MODEL 1
REMARK VINA RESULT:      -9.3      0.000      0.000
REMARK  6 active torsions:
REMARK  status: ('A' for Active; 'I' for Inactive)
REMARK    1  A    between atoms: C11_17  and  O2_3 
REMARK    2  A    between atoms: C6_12  and  O2_3 
REMARK    3  A    between atoms: C15_21  and  O4_5 
REMARK    4  A    between atoms: C16_22  and  O5_6 
REMARK    5  A    between atoms: C10_16  and  C8_14 
REMARK    6  A    between atoms: C11_17  and  C14_20 
ROOT
HETATM    1  O1  UNK     1      18.899   0.467  34.843  1.00  0.00    -0.306 OA
HETATM    2  O3  UNK     1      16.980   1.422  37.660  1.00  0.00    -0.284 OA
HETATM    3  C1  UNK     1      18.334  -0.408  36.904  1.00  0.00     0.051 A 
HETATM    4  C2  UNK     1      19.028  -0.593  35.711  1.00  0.00     0.093 A 
HETATM    5  C3  UNK     1      18.086   1.388  35.491  1.00  0.00     0.127 A 
HETATM    6  C4  UNK     1      17.680   0.892  36.828  1.00  0.00     0.218 A 
HETATM    7  C5  UNK     1      19.755  -1.741  35.478  1.00  0.00     0.075 A 
HETATM    8  C6  UNK     1      19.767  -2.711  36.486  1.00  0.00     0.071 A 
HETATM    9  C7  UNK     1      18.328  -1.349  37.913  1.00  0.00     0.021 A 
HETATM   10  C8  UNK     1      17.716   2.563  34.980  1.00  0.00     0.053 C 
HETATM   11  C9  UNK     1      19.062  -2.517  37.690  1.00  0.00     0.038 A 
ENDROOT
BRANCH  10  12
HETATM   12  C10 UNK     1      18.099   3.090  33.656  1.00  0.00    -0.031 A 
HETATM   13  C12 UNK     1      18.268   2.211  32.600  1.00  0.00     0.051 A 
HETATM   14  C15 UNK     1      18.630   2.709  31.349  1.00  0.00     0.102 A 
HETATM   15  C16 UNK     1      18.818   4.079  31.172  1.00  0.00     0.101 A 
HETATM   16  C17 UNK     1      18.644   4.951  32.247  1.00  0.00     0.040 A 
HETATM   17  C13 UNK     1      18.281   4.453  33.497  1.00  0.00     0.014 A 
BRANCH  14  18
HETATM   18  O4  UNK     1      18.797   1.847  30.307  1.00  0.00    -0.353 OA
HETATM   19  C23 UNK     1      19.402   0.588  30.599  1.00  0.00     0.210 C 
ENDBRANCH  14  18
BRANCH  15  20
HETATM   20  O5  UNK     1      19.171   4.578  29.954  1.00  0.00    -0.353 OA
HETATM   21  C24 UNK     1      19.827   5.844  29.938  1.00  0.00     0.210 C 
ENDBRANCH  15  20
ENDBRANCH  10  12
BRANCH   8  22
HETATM   22  O2  UNK     1      20.472  -3.863  36.300  1.00  0.00    -0.347 OA
BRANCH  22  23
HETATM   23  C11 UNK     1      21.140  -4.404  37.437  1.00  0.00     0.214 C 
BRANCH  23  24
HETATM   24  C14 UNK     1      20.696  -5.827  37.572  1.00  0.00    -0.034 A 
HETATM   25  C18 UNK     1      20.501  -6.603  36.432  1.00  0.00     0.011 A 
HETATM   26  C20 UNK     1      20.088  -7.929  36.560  1.00  0.00     0.019 A 
HETATM   27  C22 UNK     1      19.869  -8.473  37.825  1.00  0.00     0.011 A 
HETATM   28 Br1  UNK     1      19.307 -10.269  37.998  1.00  0.00    -0.051 Br
HETATM   29  C21 UNK     1      20.065  -7.691  38.964  1.00  0.00     0.019 A 
HETATM   30  C19 UNK     1      20.479  -6.366  38.837  1.00  0.00     0.011 A 
ENDBRANCH  23  24
ENDBRANCH  22  23
ENDBRANCH   8  22
TORSDOF 6
ENDMDL
MODEL 2
REMARK VINA RESULT:      -9.3     25.945     28.748
REMARK  6 active torsions:
REMARK  status: ('A' for Active; 'I' for Inactive)
REMARK    1  A    between atoms: C11_17  and  O2_3 
REMARK    2  A    between atoms: C6_12  and  O2_3 
REMARK    3  A    between atoms: C15_21  and  O4_5 
REMARK    4  A    between atoms: C16_22  and  O5_6 
REMARK    5  A    between atoms: C10_16  and  C8_14 
REMARK    6  A    between atoms: C11_17  and  C14_20 
ROOT
HETATM    1  O1  UNK     1      10.034   5.269   9.293  1.00  0.00    -0.306 OA
HETATM    2  O3  UNK     1       9.141   6.726   6.192  1.00  0.00    -0.284 OA
HETATM    3  C1  UNK     1      11.103   6.086   7.416  1.00  0.00     0.051 A 
HETATM    4  C2  UNK     1      11.240   5.505   8.674  1.00  0.00     0.093 A 
HETATM    5  C3  UNK     1       9.062   5.714   8.406  1.00  0.00     0.127 A 
HETATM    6  C4  UNK     1       9.677   6.256   7.170  1.00  0.00     0.218 A 
HETATM    7  C5  UNK     1      12.483   5.216   9.196  1.00  0.00     0.075 A 
HETATM    8  C6  UNK     1      13.599   5.530   8.413  1.00  0.00     0.071 A 
HETATM    9  C7  UNK     1      12.186   6.406   6.624  1.00  0.00     0.021 A 
HETATM   10  C8  UNK     1       7.749   5.662   8.633  1.00  0.00     0.053 C 
HETATM   11  C9  UNK     1      13.452   6.118   7.141  1.00  0.00     0.038 A 
ENDROOT
BRANCH  10  12
HETATM   12  C10 UNK     1       7.101   5.131   9.847  1.00  0.00    -0.031 A 
HETATM   13  C12 UNK     1       6.701   3.806   9.878  1.00  0.00     0.051 A 
HETATM   14  C15 UNK     1       6.087   3.305  11.025  1.00  0.00     0.102 A 
HETATM   15  C16 UNK     1       5.882   4.137  12.126  1.00  0.00     0.101 A 
HETATM   16  C17 UNK     1       6.290   5.470  12.078  1.00  0.00     0.040 A 
HETATM   17  C13 UNK     1       6.904   5.970  10.930  1.00  0.00     0.014 A 
BRANCH  14  18
HETATM   18  O4  UNK     1       5.693   2.001  11.060  1.00  0.00    -0.353 OA
HETATM   19  C23 UNK     1       5.179   1.448   9.850  1.00  0.00     0.210 C 
ENDBRANCH  14  18
BRANCH  15  20
HETATM   20  O5  UNK     1       5.285   3.659  13.253  1.00  0.00    -0.353 OA
HETATM   21  C24 UNK     1       5.871   4.023  14.501  1.00  0.00     0.210 C 
ENDBRANCH  15  20
ENDBRANCH  10  12
BRANCH   8  22
HETATM   22  O2  UNK     1      14.849   5.263   8.888  1.00  0.00    -0.347 OA
BRANCH  22  23
HETATM   23  C11 UNK     1      15.097   5.555  10.260  1.00  0.00     0.214 C 
BRANCH  23  24
HETATM   24  C14 UNK     1      15.562   6.976  10.330  1.00  0.00    -0.034 A 
HETATM   25  C18 UNK     1      14.698   7.966  10.790  1.00  0.00     0.011 A 
HETATM   26  C20 UNK     1      15.133   9.290  10.855  1.00  0.00     0.019 A 
HETATM   27  C22 UNK     1      16.429   9.618  10.459  1.00  0.00     0.011 A 
HETATM   28 Br1  UNK     1      17.019  11.411  10.545  1.00  0.00    -0.051 Br
HETATM   29  C21 UNK     1      17.291   8.623   9.998  1.00  0.00     0.019 A 
HETATM   30  C19 UNK     1      16.857   7.299   9.934  1.00  0.00     0.011 A 
ENDBRANCH  23  24
ENDBRANCH  22  23
ENDBRANCH   8  22
TORSDOF 6
ENDMDL
MODEL 3
REMARK VINA RESULT:      -8.9     26.641     28.742
REMARK  6 active torsions:
REMARK  status: ('A' for Active; 'I' for Inactive)
REMARK    1  A    between atoms: C11_17  and  O2_3 
REMARK    2  A    between atoms: C6_12  and  O2_3 
REMARK    3  A    between atoms: C15_21  and  O4_5 
REMARK    4  A    between atoms: C16_22  and  O5_6 
REMARK    5  A    between atoms: C10_16  and  C8_14 
REMARK    6  A    between atoms: C11_17  and  C14_20 
ROOT
HETATM    1  O1  UNK     1      10.045   5.319   9.262  1.00  0.00    -0.306 OA
HETATM    2  O3  UNK     1       9.195   6.750   6.137  1.00  0.00    -0.284 OA
HETATM    3  C1  UNK     1      11.140   6.109   7.387  1.00  0.00     0.051 A 
HETATM    4  C2  UNK     1      11.259   5.540   8.653  1.00  0.00     0.093 A 
HETATM    5  C3  UNK     1       9.086   5.761   8.360  1.00  0.00     0.127 A 
HETATM    6  C4  UNK     1       9.717   6.286   7.125  1.00  0.00     0.218 A 
HETATM    7  C5  UNK     1      12.495   5.248   9.191  1.00  0.00     0.075 A 
HETATM    8  C6  UNK     1      13.621   5.546   8.417  1.00  0.00     0.071 A 
HETATM    9  C7  UNK     1      12.233   6.413   6.604  1.00  0.00     0.021 A 
HETATM   10  C8  UNK     1       7.770   5.720   8.573  1.00  0.00     0.053 C 
HETATM   11  C9  UNK     1      13.491   6.122   7.137  1.00  0.00     0.038 A 
ENDROOT
BRANCH  10  12
HETATM   12  C10 UNK     1       7.105   5.207   9.786  1.00  0.00    -0.031 A 
HETATM   13  C12 UNK     1       6.827   6.078  10.826  1.00  0.00     0.051 A 
HETATM   14  C15 UNK     1       6.199   5.592  11.973  1.00  0.00     0.102 A 
HETATM   15  C16 UNK     1       5.860   4.243  12.064  1.00  0.00     0.101 A 
HETATM   16  C17 UNK     1       6.149   3.379  11.007  1.00  0.00     0.040 A 
HETATM   17  C13 UNK     1       6.775   3.865   9.860  1.00  0.00     0.014 A 
BRANCH  14  18
HETATM   18  O4  UNK     1       5.923   6.446  12.998  1.00  0.00    -0.353 OA
HETATM   19  C23 UNK     1       6.001   7.842  12.718  1.00  0.00     0.210 C 
ENDBRANCH  14  18
BRANCH  15  20
HETATM   20  O5  UNK     1       5.246   3.756  13.178  1.00  0.00    -0.353 OA
HETATM   21  C24 UNK     1       4.929   2.366  13.189  1.00  0.00     0.210 C 
ENDBRANCH  15  20
ENDBRANCH  10  12
BRANCH   8  22
HETATM   22  O2  UNK     1      14.864   5.275   8.907  1.00  0.00    -0.347 OA
BRANCH  22  23
HETATM   23  C11 UNK     1      15.098   5.574  10.281  1.00  0.00     0.214 C 
BRANCH  23  24
HETATM   24  C14 UNK     1      15.566   6.996  10.346  1.00  0.00    -0.034 A 
HETATM   25  C18 UNK     1      16.866   7.315   9.963  1.00  0.00     0.011 A 
HETATM   26  C20 UNK     1      17.299   8.639  10.025  1.00  0.00     0.019 A 
HETATM   27  C22 UNK     1      16.433   9.637  10.470  1.00  0.00     0.011 A 
HETATM   28 Br1  UNK     1      17.021  11.431  10.554  1.00  0.00    -0.051 Br
HETATM   29  C21 UNK     1      15.132   9.312  10.853  1.00  0.00     0.019 A 
HETATM   30  C19 UNK     1      14.697   7.988  10.791  1.00  0.00     0.011 A 
ENDBRANCH  23  24
ENDBRANCH  22  23
ENDBRANCH   8  22
TORSDOF 6
ENDMDL
MODEL 4
REMARK VINA RESULT:      -8.8      8.160     13.820
REMARK  6 active torsions:
REMARK  status: ('A' for Active; 'I' for Inactive)
REMARK    1  A    between atoms: C11_17  and  O2_3 
REMARK    2  A    between atoms: C6_12  and  O2_3 
REMARK    3  A    between atoms: C15_21  and  O4_5 
REMARK    4  A    between atoms: C16_22  and  O5_6 
REMARK    5  A    between atoms: C10_16  and  C8_14 
REMARK    6  A    between atoms: C11_17  and  C14_20 
ROOT
HETATM    1  O1  UNK     1      16.859   7.541  32.642  1.00  0.00    -0.306 OA
HETATM    2  O3  UNK     1      19.485   9.276  34.261  1.00  0.00    -0.284 OA
HETATM    3  C1  UNK     1      17.165   9.559  33.722  1.00  0.00     0.051 A 
HETATM    4  C2  UNK     1      16.280   8.720  33.049  1.00  0.00     0.093 A 
HETATM    5  C3  UNK     1      18.182   7.606  33.062  1.00  0.00     0.127 A 
HETATM    6  C4  UNK     1      18.454   8.882  33.767  1.00  0.00     0.218 A 
HETATM    7  C5  UNK     1      14.966   9.085  32.844  1.00  0.00     0.075 A 
HETATM    8  C6  UNK     1      14.559  10.331  33.335  1.00  0.00     0.071 A 
HETATM    9  C7  UNK     1      16.791  10.791  34.215  1.00  0.00     0.021 A 
HETATM   10  C8  UNK     1      19.088   6.649  32.859  1.00  0.00     0.053 C 
HETATM   11  C9  UNK     1      15.462  11.174  34.013  1.00  0.00     0.038 A 
ENDROOT
BRANCH  10  12
HETATM   12  C10 UNK     1      18.855   5.369  32.164  1.00  0.00    -0.031 A 
HETATM   13  C12 UNK     1      18.290   4.314  32.859  1.00  0.00     0.051 A 
HETATM   14  C15 UNK     1      18.071   3.103  32.202  1.00  0.00     0.102 A 
HETATM   15  C16 UNK     1      18.421   2.966  30.859  1.00  0.00     0.101 A 
HETATM   16  C17 UNK     1      18.990   4.039  30.173  1.00  0.00     0.040 A 
HETATM   17  C13 UNK     1      19.209   5.249  30.831  1.00  0.00     0.014 A 
BRANCH  14  18
HETATM   18  O4  UNK     1      17.514   2.062  32.882  1.00  0.00    -0.353 OA
HETATM   19  C23 UNK     1      18.208   1.598  34.038  1.00  0.00     0.210 C 
ENDBRANCH  14  18
BRANCH  15  20
HETATM   20  O5  UNK     1      18.211   1.789  30.205  1.00  0.00    -0.353 OA
HETATM   21  C24 UNK     1      17.877   1.867  28.821  1.00  0.00     0.210 C 
ENDBRANCH  15  20
ENDBRANCH  10  12
BRANCH   8  22
HETATM   22  O2  UNK     1      13.270  10.735  33.155  1.00  0.00    -0.347 OA
BRANCH  22  23
HETATM   23  C11 UNK     1      13.062  12.101  32.806  1.00  0.00     0.214 C 
BRANCH  23  24
HETATM   24  C14 UNK     1      11.995  12.628  33.715  1.00  0.00    -0.034 A 
HETATM   25  C18 UNK     1      12.175  12.580  35.095  1.00  0.00     0.011 A 
HETATM   26  C20 UNK     1      11.180  13.072  35.940  1.00  0.00     0.019 A 
HETATM   27  C22 UNK     1      10.011  13.610  35.402  1.00  0.00     0.011 A 
HETATM   28 Br1  UNK     1       8.663  14.275  36.547  1.00  0.00    -0.051 Br
HETATM   29  C21 UNK     1       9.836  13.656  34.020  1.00  0.00     0.019 A 
HETATM   30  C19 UNK     1      10.830  13.164  33.174  1.00  0.00     0.011 A 
ENDBRANCH  23  24
ENDBRANCH  22  23
ENDBRANCH   8  22
TORSDOF 6
ENDMDL
MODEL 5
REMARK VINA RESULT:      -8.7      2.828      4.830
REMARK  6 active torsions:
REMARK  status: ('A' for Active; 'I' for Inactive)
REMARK    1  A    between atoms: C11_17  and  O2_3 
REMARK    2  A    between atoms: C6_12  and  O2_3 
REMARK    3  A    between atoms: C15_21  and  O4_5 
REMARK    4  A    between atoms: C16_22  and  O5_6 
REMARK    5  A    between atoms: C10_16  and  C8_14 
REMARK    6  A    between atoms: C11_17  and  C14_20 
ROOT
HETATM    1  O1  UNK     1      18.075   2.828  33.363  1.00  0.00    -0.306 OA
HETATM    2  O3  UNK     1      18.927   2.150  29.995  1.00  0.00    -0.284 OA
HETATM    3  C1  UNK     1      18.717   1.008  32.094  1.00  0.00     0.051 A 
HETATM    4  C2  UNK     1      18.355   1.481  33.353  1.00  0.00     0.093 A 
HETATM    5  C3  UNK     1      18.261   3.262  32.056  1.00  0.00     0.127 A 
HETATM    6  C4  UNK     1      18.678   2.141  31.178  1.00  0.00     0.218 A 
HETATM    7  C5  UNK     1      18.297   0.639  34.443  1.00  0.00     0.075 A 
HETATM    8  C6  UNK     1      18.618  -0.707  34.235  1.00  0.00     0.071 A 
HETATM    9  C7  UNK     1      19.039  -0.312  31.862  1.00  0.00     0.021 A 
HETATM   10  C8  UNK     1      18.089   4.518  31.643  1.00  0.00     0.053 C 
HETATM   11  C9  UNK     1      18.985  -1.177  32.958  1.00  0.00     0.038 A 
ENDROOT
BRANCH  10  12
HETATM   12  C10 UNK     1      17.677   5.657  32.485  1.00  0.00    -0.031 A 
HETATM   13  C12 UNK     1      18.580   6.196  33.385  1.00  0.00     0.051 A 
HETATM   14  C15 UNK     1      18.190   7.273  34.181  1.00  0.00     0.102 A 
HETATM   15  C16 UNK     1      16.901   7.794  34.066  1.00  0.00     0.101 A 
HETATM   16  C17 UNK     1      16.003   7.238  33.155  1.00  0.00     0.040 A 
HETATM   17  C13 UNK     1      16.394   6.162  32.358  1.00  0.00     0.014 A 
BRANCH  14  18
HETATM   18  O4  UNK     1      19.076   7.806  35.068  1.00  0.00    -0.353 OA
HETATM   19  C23 UNK     1      19.989   8.780  34.565  1.00  0.00     0.210 C 
ENDBRANCH  14  18
BRANCH  15  20
HETATM   20  O5  UNK     1      16.508   8.845  34.838  1.00  0.00    -0.353 OA
HETATM   21  C24 UNK     1      15.907   9.952  34.168  1.00  0.00     0.210 C 
ENDBRANCH  15  20
ENDBRANCH  10  12
BRANCH   8  22
HETATM   22  O2  UNK     1      18.576  -1.578  35.283  1.00  0.00    -0.347 OA
BRANCH  22  23
HETATM   23  C11 UNK     1      19.741  -1.667  36.098  1.00  0.00     0.214 C 
BRANCH  23  24
HETATM   24  C14 UNK     1      19.987  -3.123  36.354  1.00  0.00    -0.034 A 
HETATM   25  C18 UNK     1      20.438  -3.539  37.603  1.00  0.00     0.011 A 
HETATM   26  C20 UNK     1      20.666  -4.895  37.839  1.00  0.00     0.019 A 
HETATM   27  C22 UNK     1      20.442  -5.827  36.826  1.00  0.00     0.011 A 
HETATM   28 Br1  UNK     1      20.752  -7.664  37.146  1.00  0.00    -0.051 Br
HETATM   29  C21 UNK     1      19.991  -5.404  35.577  1.00  0.00     0.019 A 
HETATM   30  C19 UNK     1      19.762  -4.049  35.339  1.00  0.00     0.011 A 
ENDBRANCH  23  24
ENDBRANCH  22  23
ENDBRANCH   8  22
TORSDOF 6
ENDMDL
MODEL 6
REMARK VINA RESULT:      -8.7      8.477     14.264
REMARK  6 active torsions:
REMARK  status: ('A' for Active; 'I' for Inactive)
REMARK    1  A    between atoms: C11_17  and  O2_3 
REMARK    2  A    between atoms: C6_12  and  O2_3 
REMARK    3  A    between atoms: C15_21  and  O4_5 
REMARK    4  A    between atoms: C16_22  and  O5_6 
REMARK    5  A    between atoms: C10_16  and  C8_14 
REMARK    6  A    between atoms: C11_17  and  C14_20 
ROOT
HETATM    1  O1  UNK     1      16.876   7.651  32.692  1.00  0.00    -0.306 OA
HETATM    2  O3  UNK     1      19.522   9.344  34.325  1.00  0.00    -0.284 OA
HETATM    3  C1  UNK     1      17.207   9.661  33.780  1.00  0.00     0.051 A 
HETATM    4  C2  UNK     1      16.312   8.837  33.102  1.00  0.00     0.093 A 
HETATM    5  C3  UNK     1      18.198   7.696  33.116  1.00  0.00     0.127 A 
HETATM    6  C4  UNK     1      18.487   8.965  33.827  1.00  0.00     0.218 A 
HETATM    7  C5  UNK     1      15.004   9.222  32.894  1.00  0.00     0.075 A 
HETATM    8  C6  UNK     1      14.614  10.471  33.389  1.00  0.00     0.071 A 
HETATM    9  C7  UNK     1      16.849  10.897  34.277  1.00  0.00     0.021 A 
HETATM   10  C8  UNK     1      19.092   6.727  32.912  1.00  0.00     0.053 C 
HETATM   11  C9  UNK     1      15.526  11.299  34.073  1.00  0.00     0.038 A 
ENDROOT
BRANCH  10  12
HETATM   12  C10 UNK     1      18.843   5.453  32.212  1.00  0.00    -0.031 A 
HETATM   13  C12 UNK     1      18.288   4.394  32.909  1.00  0.00     0.051 A 
HETATM   14  C15 UNK     1      18.053   3.189  32.246  1.00  0.00     0.102 A 
HETATM   15  C16 UNK     1      18.378   3.062  30.896  1.00  0.00     0.101 A 
HETATM   16  C17 UNK     1      18.937   4.139  30.209  1.00  0.00     0.040 A 
HETATM   17  C13 UNK     1      19.171   5.343  30.871  1.00  0.00     0.014 A 
BRANCH  14  18
HETATM   18  O4  UNK     1      17.506   2.144  32.929  1.00  0.00    -0.353 OA
HETATM   19  C23 UNK     1      18.183   1.716  34.109  1.00  0.00     0.210 C 
ENDBRANCH  14  18
BRANCH  15  20
HETATM   20  O5  UNK     1      18.153   1.890  30.237  1.00  0.00    -0.353 OA
HETATM   21  C24 UNK     1      17.912   1.972  28.834  1.00  0.00     0.210 C 
ENDBRANCH  15  20
ENDBRANCH  10  12
BRANCH   8  22
HETATM   22  O2  UNK     1      13.331  10.894  33.207  1.00  0.00    -0.347 OA
BRANCH  22  23
HETATM   23  C11 UNK     1      12.803  11.796  34.175  1.00  0.00     0.214 C 
BRANCH  23  24
HETATM   24  C14 UNK     1      12.259  12.974  33.427  1.00  0.00    -0.034 A 
HETATM   25  C18 UNK     1      13.117  13.775  32.678  1.00  0.00     0.011 A 
HETATM   26  C20 UNK     1      12.607  14.871  31.981  1.00  0.00     0.019 A 
HETATM   27  C22 UNK     1      11.245  15.162  32.038  1.00  0.00     0.011 A 
HETATM   28 Br1  UNK     1      10.556  16.648  31.095  1.00  0.00    -0.051 Br
HETATM   29  C21 UNK     1      10.390  14.357  32.790  1.00  0.00     0.019 A 
HETATM   30  C19 UNK     1      10.898  13.260  33.487  1.00  0.00     0.011 A 
ENDBRANCH  23  24
ENDBRANCH  22  23
ENDBRANCH   8  22
TORSDOF 6
ENDMDL
MODEL 7
REMARK VINA RESULT:      -8.7      9.473     13.654
REMARK  6 active torsions:
REMARK  status: ('A' for Active; 'I' for Inactive)
REMARK    1  A    between atoms: C11_17  and  O2_3 
REMARK    2  A    between atoms: C6_12  and  O2_3 
REMARK    3  A    between atoms: C15_21  and  O4_5 
REMARK    4  A    between atoms: C16_22  and  O5_6 
REMARK    5  A    between atoms: C10_16  and  C8_14 
REMARK    6  A    between atoms: C11_17  and  C14_20 
ROOT
HETATM    1  O1  UNK     1      29.839  -7.850  37.661  1.00  0.00    -0.306 OA
HETATM    2  O3  UNK     1      30.455 -10.895  39.358  1.00  0.00    -0.284 OA
HETATM    3  C1  UNK     1      28.647  -9.384  38.910  1.00  0.00     0.051 A 
HETATM    4  C2  UNK     1      28.616  -8.191  38.191  1.00  0.00     0.093 A 
HETATM    5  C3  UNK     1      30.712  -8.859  38.047  1.00  0.00     0.127 A 
HETATM    6  C4  UNK     1      30.014  -9.886  38.857  1.00  0.00     0.218 A 
HETATM    7  C5  UNK     1      27.450  -7.468  38.056  1.00  0.00     0.075 A 
HETATM    8  C6  UNK     1      26.301  -7.979  38.670  1.00  0.00     0.071 A 
HETATM    9  C7  UNK     1      27.530  -9.909  39.525  1.00  0.00     0.021 A 
HETATM   10  C8  UNK     1      32.007  -8.902  37.732  1.00  0.00     0.053 C 
HETATM   11  C9  UNK     1      26.341  -9.187  39.396  1.00  0.00     0.038 A 
ENDROOT
BRANCH  10  12
HETATM   12  C10 UNK     1      32.736  -7.901  36.930  1.00  0.00    -0.031 A 
HETATM   13  C12 UNK     1      32.415  -7.740  35.593  1.00  0.00     0.051 A 
HETATM   14  C15 UNK     1      33.105  -6.795  34.834  1.00  0.00     0.102 A 
HETATM   15  C16 UNK     1      34.106  -6.024  35.424  1.00  0.00     0.101 A 
HETATM   16  C17 UNK     1      34.418  -6.199  36.772  1.00  0.00     0.040 A 
HETATM   17  C13 UNK     1      33.727  -7.144  37.530  1.00  0.00     0.014 A 
BRANCH  14  18
HETATM   18  O4  UNK     1      32.791  -6.633  33.518  1.00  0.00    -0.353 OA
HETATM   19  C23 UNK     1      31.557  -5.982  33.221  1.00  0.00     0.210 C 
ENDBRANCH  14  18
BRANCH  15  20
HETATM   20  O5  UNK     1      34.787  -5.096  34.694  1.00  0.00    -0.353 OA
HETATM   21  C24 UNK     1      34.357  -3.741  34.806  1.00  0.00     0.210 C 
ENDBRANCH  15  20
ENDBRANCH  10  12
BRANCH   8  22
HETATM   22  O2  UNK     1      25.124  -7.299  38.564  1.00  0.00    -0.347 OA
BRANCH  22  23
HETATM   23  C11 UNK     1      23.967  -7.918  39.119  1.00  0.00     0.214 C 
BRANCH  23  24
HETATM   24  C14 UNK     1      22.842  -7.686  38.157  1.00  0.00    -0.034 A 
HETATM   25  C18 UNK     1      21.991  -6.598  38.336  1.00  0.00     0.011 A 
HETATM   26  C20 UNK     1      20.945  -6.383  37.439  1.00  0.00     0.019 A 
HETATM   27  C22 UNK     1      20.753  -7.257  36.369  1.00  0.00     0.011 A 
HETATM   28 Br1  UNK     1      19.334  -6.966  35.155  1.00  0.00    -0.051 Br
HETATM   29  C21 UNK     1      21.608  -8.345  36.195  1.00  0.00     0.019 A 
HETATM   30  C19 UNK     1      22.655  -8.560  37.090  1.00  0.00     0.011 A 
ENDBRANCH  23  24
ENDBRANCH  22  23
ENDBRANCH   8  22
TORSDOF 6
ENDMDL
MODEL 8
REMARK VINA RESULT:      -8.6      6.464     10.253
REMARK  6 active torsions:
REMARK  status: ('A' for Active; 'I' for Inactive)
REMARK    1  A    between atoms: C11_17  and  O2_3 
REMARK    2  A    between atoms: C6_12  and  O2_3 
REMARK    3  A    between atoms: C15_21  and  O4_5 
REMARK    4  A    between atoms: C16_22  and  O5_6 
REMARK    5  A    between atoms: C10_16  and  C8_14 
REMARK    6  A    between atoms: C11_17  and  C14_20 
ROOT
HETATM    1  O1  UNK     1      16.569   8.410  33.587  1.00  0.00    -0.306 OA
HETATM    2  O3  UNK     1      19.744   9.783  34.341  1.00  0.00    -0.284 OA
HETATM    3  C1  UNK     1      18.776   7.729  33.565  1.00  0.00     0.051 A 
HETATM    4  C2  UNK     1      17.448   7.383  33.327  1.00  0.00     0.093 A 
HETATM    5  C3  UNK     1      17.350   9.476  34.014  1.00  0.00     0.127 A 
HETATM    6  C4  UNK     1      18.788   9.111  34.027  1.00  0.00     0.218 A 
HETATM    7  C5  UNK     1      17.107   6.126  32.876  1.00  0.00     0.075 A 
HETATM    8  C6  UNK     1      18.146   5.213  32.668  1.00  0.00     0.071 A 
HETATM    9  C7  UNK     1      19.818   6.848  33.369  1.00  0.00     0.021 A 
HETATM   10  C8  UNK     1      16.873  10.670  34.368  1.00  0.00     0.053 C 
HETATM   11  C9  UNK     1      19.487   5.570  32.912  1.00  0.00     0.038 A 
ENDROOT
BRANCH  10  12
HETATM   12  C10 UNK     1      15.453  11.070  34.369  1.00  0.00    -0.031 A 
HETATM   13  C12 UNK     1      14.851  11.426  35.563  1.00  0.00     0.051 A 
HETATM   14  C15 UNK     1      13.508  11.803  35.564  1.00  0.00     0.102 A 
HETATM   15  C16 UNK     1      12.787  11.817  34.371  1.00  0.00     0.101 A 
HETATM   16  C17 UNK     1      13.409  11.455  33.176  1.00  0.00     0.040 A 
HETATM   17  C13 UNK     1      14.752  11.079  33.175  1.00  0.00     0.014 A 
BRANCH  14  18
HETATM   18  O4  UNK     1      12.911  12.155  36.738  1.00  0.00    -0.353 OA
HETATM   19  C23 UNK     1      13.770  12.479  37.829  1.00  0.00     0.210 C 
ENDBRANCH  14  18
BRANCH  15  20
HETATM   20  O5  UNK     1      11.475  12.184  34.358  1.00  0.00    -0.353 OA
HETATM   21  C24 UNK     1      10.994  12.832  33.182  1.00  0.00     0.210 C 
ENDBRANCH  15  20
ENDBRANCH  10  12
BRANCH   8  22
HETATM   22  O2  UNK     1      17.857   3.957  32.223  1.00  0.00    -0.347 OA
BRANCH  22  23
HETATM   23  C11 UNK     1      17.928   3.737  30.817  1.00  0.00     0.214 C 
BRANCH  23  24
HETATM   24  C14 UNK     1      18.539   2.384  30.614  1.00  0.00    -0.034 A 
HETATM   25  C18 UNK     1      18.834   1.943  29.327  1.00  0.00     0.011 A 
HETATM   26  C20 UNK     1      19.404   0.684  29.141  1.00  0.00     0.019 A 
HETATM   27  C22 UNK     1      19.673  -0.130  30.241  1.00  0.00     0.011 A 
HETATM   28 Br1  UNK     1      20.443  -1.837  29.989  1.00  0.00    -0.051 Br
HETATM   29  C21 UNK     1      19.374   0.316  31.529  1.00  0.00     0.019 A 
HETATM   30  C19 UNK     1      18.806   1.576  31.716  1.00  0.00     0.011 A 
ENDBRANCH  23  24
ENDBRANCH  22  23
ENDBRANCH   8  22
TORSDOF 6
ENDMDL
MODEL 9
REMARK VINA RESULT:      -8.6     27.125     29.354
REMARK  6 active torsions:
REMARK  status: ('A' for Active; 'I' for Inactive)
REMARK    1  A    between atoms: C11_17  and  O2_3 
REMARK    2  A    between atoms: C6_12  and  O2_3 
REMARK    3  A    between atoms: C15_21  and  O4_5 
REMARK    4  A    between atoms: C16_22  and  O5_6 
REMARK    5  A    between atoms: C10_16  and  C8_14 
REMARK    6  A    between atoms: C11_17  and  C14_20 
ROOT
HETATM    1  O1  UNK     1      10.031   6.076   9.445  1.00  0.00    -0.306 OA
HETATM    2  O3  UNK     1       9.191   6.159   6.007  1.00  0.00    -0.284 OA
HETATM    3  C1  UNK     1      11.118   6.336   7.424  1.00  0.00     0.051 A 
HETATM    4  C2  UNK     1      11.236   6.274   8.811  1.00  0.00     0.093 A 
HETATM    5  C3  UNK     1       9.080   6.004   8.435  1.00  0.00     0.127 A 
HETATM    6  C4  UNK     1       9.708   6.165   7.100  1.00  0.00     0.218 A 
HETATM    7  C5  UNK     1      12.461   6.402   9.430  1.00  0.00     0.075 A 
HETATM    8  C6  UNK     1      13.579   6.599   8.612  1.00  0.00     0.071 A 
HETATM    9  C7  UNK     1      12.203   6.529   6.595  1.00  0.00     0.021 A 
HETATM   10  C8  UNK     1       7.775   5.818   8.635  1.00  0.00     0.053 C 
HETATM   11  C9  UNK     1      13.451   6.661   7.210  1.00  0.00     0.038 A 
ENDROOT
BRANCH  10  12
HETATM   12  C10 UNK     1       7.115   5.655   9.944  1.00  0.00    -0.031 A 
HETATM   13  C12 UNK     1       6.699   4.395  10.341  1.00  0.00     0.051 A 
HETATM   14  C15 UNK     1       6.074   4.241  11.578  1.00  0.00     0.102 A 
HETATM   15  C16 UNK     1       5.874   5.350  12.400  1.00  0.00     0.101 A 
HETATM   16  C17 UNK     1       6.298   6.612  11.985  1.00  0.00     0.040 A 
HETATM   17  C13 UNK     1       6.923   6.765  10.748  1.00  0.00     0.014 A 
BRANCH  14  18
HETATM   18  O4  UNK     1       5.664   3.003  11.973  1.00  0.00    -0.353 OA
HETATM   19  C23 UNK     1       5.475   2.027  10.950  1.00  0.00     0.210 C 
ENDBRANCH  14  18
BRANCH  15  20
HETATM   20  O5  UNK     1       5.265   5.212  13.612  1.00  0.00    -0.353 OA
HETATM   21  C24 UNK     1       4.729   6.393  14.205  1.00  0.00     0.210 C 
ENDBRANCH  15  20
ENDBRANCH  10  12
BRANCH   8  22
HETATM   22  O2  UNK     1      14.811   6.732   9.180  1.00  0.00    -0.347 OA
BRANCH  22  23
HETATM   23  C11 UNK     1      14.953   7.722  10.194  1.00  0.00     0.214 C 
BRANCH  23  24
HETATM   24  C14 UNK     1      15.584   8.920   9.552  1.00  0.00    -0.034 A 
HETATM   25  C18 UNK     1      16.933   9.191   9.767  1.00  0.00     0.011 A 
HETATM   26  C20 UNK     1      17.518  10.306   9.168  1.00  0.00     0.019 A 
HETATM   27  C22 UNK     1      16.753  11.145   8.358  1.00  0.00     0.011 A 
HETATM   28 Br1  UNK     1      17.547  12.657   7.548  1.00  0.00    -0.051 Br
HETATM   29  C21 UNK     1      15.403  10.869   8.146  1.00  0.00     0.019 A 
HETATM   30  C19 UNK     1      14.816   9.754   8.744  1.00  0.00     0.011 A 
ENDBRANCH  23  24
ENDBRANCH  22  23
ENDBRANCH   8  22
TORSDOF 6
ENDMDL
MODEL 10
REMARK VINA RESULT:      -8.5     26.940     29.501
REMARK  6 active torsions:
REMARK  status: ('A' for Active; 'I' for Inactive)
REMARK    1  A    between atoms: C11_17  and  O2_3 
REMARK    2  A    between atoms: C6_12  and  O2_3 
REMARK    3  A    between atoms: C15_21  and  O4_5 
REMARK    4  A    between atoms: C16_22  and  O5_6 
REMARK    5  A    between atoms: C10_16  and  C8_14 
REMARK    6  A    between atoms: C11_17  and  C14_20 
ROOT
HETATM    1  O1  UNK     1      14.279   8.522   8.256  1.00  0.00    -0.306 OA
HETATM    2  O3  UNK     1      15.138   7.068  11.368  1.00  0.00    -0.284 OA
HETATM    3  C1  UNK     1      13.591   6.745   9.563  1.00  0.00     0.051 A 
HETATM    4  C2  UNK     1      13.411   7.461   8.381  1.00  0.00     0.093 A 
HETATM    5  C3  UNK     1      15.063   8.504   9.403  1.00  0.00     0.127 A 
HETATM    6  C4  UNK     1      14.677   7.385  10.295  1.00  0.00     0.218 A 
HETATM    7  C5  UNK     1      12.447   7.098   7.466  1.00  0.00     0.075 A 
HETATM    8  C6  UNK     1      11.657   5.984   7.771  1.00  0.00     0.071 A 
HETATM    9  C7  UNK     1      12.827   5.645   9.888  1.00  0.00     0.021 A 
HETATM   10  C8  UNK     1      16.035   9.378   9.669  1.00  0.00     0.053 C 
HETATM   11  C9  UNK     1      11.845   5.265   8.968  1.00  0.00     0.038 A 
ENDROOT
BRANCH  10  12
HETATM   12  C10 UNK     1      16.447  10.503   8.808  1.00  0.00    -0.031 A 
HETATM   13  C12 UNK     1      15.482  11.352   8.295  1.00  0.00     0.051 A 
HETATM   14  C15 UNK     1      15.872  12.415   7.480  1.00  0.00     0.102 A 
HETATM   15  C16 UNK     1      17.221  12.612   7.190  1.00  0.00     0.101 A 
HETATM   16  C17 UNK     1      18.181  11.747   7.714  1.00  0.00     0.040 A 
HETATM   17  C13 UNK     1      17.791  10.685   8.530  1.00  0.00     0.014 A 
BRANCH  14  18
HETATM   18  O4  UNK     1      14.925  13.253   6.973  1.00  0.00    -0.353 OA
HETATM   19  C23 UNK     1      14.400  14.245   7.854  1.00  0.00     0.210 C 
ENDBRANCH  14  18
BRANCH  15  20
HETATM   20  O5  UNK     1      17.615  13.647   6.396  1.00  0.00    -0.353 OA
HETATM   21  C24 UNK     1      18.731  13.418   5.538  1.00  0.00     0.210 C 
ENDBRANCH  15  20
ENDBRANCH  10  12
BRANCH   8  22
HETATM   22  O2  UNK     1      10.690   5.586   6.895  1.00  0.00    -0.347 OA
BRANCH  22  23
HETATM   23  C11 UNK     1       9.610   6.488   6.671  1.00  0.00     0.214 C 
BRANCH  23  24
HETATM   24  C14 UNK     1       8.771   6.487   7.912  1.00  0.00    -0.034 A 
HETATM   25  C18 UNK     1       8.712   7.628   8.708  1.00  0.00     0.011 A 
HETATM   26  C20 UNK     1       7.930   7.625   9.863  1.00  0.00     0.019 A 
HETATM   27  C22 UNK     1       7.213   6.483  10.217  1.00  0.00     0.011 A 
HETATM   28 Br1  UNK     1       6.155   6.479  11.783  1.00  0.00    -0.051 Br
HETATM   29  C21 UNK     1       7.276   5.343   9.417  1.00  0.00     0.019 A 
HETATM   30  C19 UNK     1       8.057   5.344   8.261  1.00  0.00     0.011 A 
ENDBRANCH  23  24
ENDBRANCH  22  23
ENDBRANCH   8  22
TORSDOF 6
ENDMDL
