MODEL 1
REMARK VINA RESULT:     -10.4      0.000      0.000
REMARK  4 active torsions:
REMARK  status: ('A' for Active; 'I' for Inactive)
REMARK    1  A    between atoms: C7_13  and  S1_1 
REMARK    2  A    between atoms: O2_3  and  S1_1 
REMARK    3  A    between atoms: C2_8  and  O2_3 
REMARK    4  A    between atoms: C1_7  and  C4_10 
ROOT
HETATM    1  O1  UNK     1      19.144   0.118  32.651  1.00  0.00    -0.306 OA
HETATM    2  O3  UNK     1      18.318   3.018  29.911  1.00  0.00    -0.284 OA
HETATM    3  C1  UNK     1      18.510   1.295  33.013  1.00  0.00     0.125 A 
HETATM    4  C2  UNK     1      18.214   2.295  32.164  1.00  0.00     0.175 A 
HETATM    5  C3  UNK     1      19.221   0.884  30.350  1.00  0.00     0.051 A 
HETATM    6  C5  UNK     1      19.479  -0.067  31.335  1.00  0.00     0.090 A 
HETATM    7  C6  UNK     1      18.564   2.142  30.731  1.00  0.00     0.222 A 
HETATM    8  C10 UNK     1      19.586   0.641  29.023  1.00  0.00     0.018 A 
HETATM    9  C11 UNK     1      20.105  -1.268  30.999  1.00  0.00     0.038 A 
HETATM   10  C18 UNK     1      20.211  -0.561  28.689  1.00  0.00     0.001 A 
HETATM   11  C19 UNK     1      20.470  -1.514  29.675  1.00  0.00     0.003 A 
ENDROOT
BRANCH   4  12
HETATM   12  O2  UNK     1      17.612   3.468  32.564  1.00  0.00    -0.222 OA
BRANCH  12  13
HETATM   13  S1  UNK     1      18.513   4.799  32.793  1.00  0.00     0.303 S 
HETATM   14  O4  UNK     1      19.288   4.651  34.010  1.00  0.00    -0.193 OA
HETATM   15  O5  UNK     1      19.143   5.144  31.532  1.00  0.00    -0.193 OA
BRANCH  13  16
HETATM   16  C7  UNK     1      17.317   6.053  33.132  1.00  0.00     0.086 A 
HETATM   17  C15 UNK     1      17.271   6.650  34.391  1.00  0.00     0.026 A 
HETATM   18  C20 UNK     1      16.324   7.639  34.659  1.00  0.00     0.008 A 
HETATM   19  C17 UNK     1      15.423   8.030  33.668  1.00  0.00    -0.062 A 
HETATM   20  C21 UNK     1      15.470   7.432  32.409  1.00  0.00     0.008 A 
HETATM   21  C23 UNK     1      14.411   9.086  33.955  1.00  0.00     0.048 C 
HETATM   22  C16 UNK     1      16.416   6.443  32.140  1.00  0.00     0.026 A 
ENDBRANCH  13  16
ENDBRANCH  12  13
ENDBRANCH   4  12
BRANCH   3  23
HETATM   23  C4  UNK     1      18.206   1.364  34.453  1.00  0.00     0.001 A 
HETATM   24  C8  UNK     1      17.033   0.793  34.946  1.00  0.00     0.015 A 
HETATM   25  C13 UNK     1      16.745   0.858  36.310  1.00  0.00     0.007 A 
HETATM   26  C12 UNK     1      17.630   1.494  37.181  1.00  0.00    -0.062 A 
HETATM   27  C14 UNK     1      18.803   2.065  36.688  1.00  0.00     0.007 A 
HETATM   28  C22 UNK     1      17.322   1.563  38.638  1.00  0.00     0.048 C 
HETATM   29  C9  UNK     1      19.091   2.001  35.324  1.00  0.00     0.015 A 
ENDBRANCH   3  23
TORSDOF 4
ENDMDL
MODEL 2
REMARK VINA RESULT:     -10.0     15.533     18.995
REMARK  4 active torsions:
REMARK  status: ('A' for Active; 'I' for Inactive)
REMARK    1  A    between atoms: C7_13  and  S1_1 
REMARK    2  A    between atoms: O2_3  and  S1_1 
REMARK    3  A    between atoms: C2_8  and  O2_3 
REMARK    4  A    between atoms: C1_7  and  C4_10 
ROOT
HETATM    1  O1  UNK     1      30.372 -12.450  31.450  1.00  0.00    -0.306 OA
HETATM    2  O3  UNK     1      33.970 -12.342  29.541  1.00  0.00    -0.284 OA
HETATM    3  C1  UNK     1      30.741 -11.371  30.662  1.00  0.00     0.125 A 
HETATM    4  C2  UNK     1      31.913 -11.267  30.011  1.00  0.00     0.175 A 
HETATM    5  C3  UNK     1      32.485 -13.529  30.936  1.00  0.00     0.051 A 
HETATM    6  C5  UNK     1      31.241 -13.503  31.565  1.00  0.00     0.090 A 
HETATM    7  C6  UNK     1      32.889 -12.380  30.112  1.00  0.00     0.222 A 
HETATM    8  C10 UNK     1      33.330 -14.631  31.090  1.00  0.00     0.018 A 
HETATM    9  C11 UNK     1      30.836 -14.580  32.354  1.00  0.00     0.038 A 
HETATM   10  C18 UNK     1      32.923 -15.707  31.879  1.00  0.00     0.001 A 
HETATM   11  C19 UNK     1      31.678 -15.683  32.509  1.00  0.00     0.003 A 
ENDROOT
BRANCH   4  12
HETATM   12  O2  UNK     1      32.263 -10.164  29.263  1.00  0.00    -0.222 OA
BRANCH  12  13
HETATM   13  S1  UNK     1      33.263  -9.049  29.889  1.00  0.00     0.303 S 
HETATM   14  O4  UNK     1      33.879  -9.577  31.091  1.00  0.00    -0.193 OA
HETATM   15  O5  UNK     1      34.061  -8.497  28.810  1.00  0.00    -0.193 OA
BRANCH  13  16
HETATM   16  C7  UNK     1      32.169  -7.772  30.427  1.00  0.00     0.086 A 
HETATM   17  C15 UNK     1      32.041  -7.492  31.787  1.00  0.00     0.026 A 
HETATM   18  C20 UNK     1      31.175  -6.484  32.213  1.00  0.00     0.008 A 
HETATM   19  C17 UNK     1      30.437  -5.757  31.278  1.00  0.00    -0.062 A 
HETATM   20  C21 UNK     1      30.565  -6.038  29.918  1.00  0.00     0.008 A 
HETATM   21  C23 UNK     1      29.511  -4.681  31.734  1.00  0.00     0.048 C 
HETATM   22  C16 UNK     1      31.431  -7.046  29.492  1.00  0.00     0.026 A 
ENDBRANCH  13  16
ENDBRANCH  12  13
ENDBRANCH   4  12
BRANCH   3  23
HETATM   23  C4  UNK     1      29.718 -10.312  30.624  1.00  0.00     0.001 A 
HETATM   24  C8  UNK     1      29.303  -9.700  31.807  1.00  0.00     0.015 A 
HETATM   25  C13 UNK     1      28.335  -8.697  31.770  1.00  0.00     0.007 A 
HETATM   26  C12 UNK     1      27.782  -8.304  30.552  1.00  0.00    -0.062 A 
HETATM   27  C14 UNK     1      28.197  -8.915  29.368  1.00  0.00     0.007 A 
HETATM   28  C22 UNK     1      26.747  -7.231  30.513  1.00  0.00     0.048 C 
HETATM   29  C9  UNK     1      29.165  -9.920  29.404  1.00  0.00     0.015 A 
ENDBRANCH   3  23
TORSDOF 4
ENDMDL
MODEL 3
REMARK VINA RESULT:      -9.9     14.830     16.869
REMARK  4 active torsions:
REMARK  status: ('A' for Active; 'I' for Inactive)
REMARK    1  A    between atoms: C7_13  and  S1_1 
REMARK    2  A    between atoms: O2_3  and  S1_1 
REMARK    3  A    between atoms: C2_8  and  O2_3 
REMARK    4  A    between atoms: C1_7  and  C4_10 
ROOT
HETATM    1  O1  UNK     1      27.764  -8.627  35.692  1.00  0.00    -0.306 OA
HETATM    2  O3  UNK     1      29.807  -5.459  37.237  1.00  0.00    -0.284 OA
HETATM    3  C1  UNK     1      28.492  -7.772  34.881  1.00  0.00     0.125 A 
HETATM    4  C2  UNK     1      29.183  -6.706  35.322  1.00  0.00     0.175 A 
HETATM    5  C3  UNK     1      28.435  -7.335  37.634  1.00  0.00     0.051 A 
HETATM    6  C5  UNK     1      27.755  -8.398  37.043  1.00  0.00     0.090 A 
HETATM    7  C6  UNK     1      29.196  -6.414  36.777  1.00  0.00     0.222 A 
HETATM    8  C10 UNK     1      28.389  -7.150  39.018  1.00  0.00     0.018 A 
HETATM    9  C11 UNK     1      27.023  -9.284  37.835  1.00  0.00     0.038 A 
HETATM   10  C18 UNK     1      27.657  -8.037  39.808  1.00  0.00     0.001 A 
HETATM   11  C19 UNK     1      26.976  -9.103  39.218  1.00  0.00     0.003 A 
ENDROOT
BRANCH   4  12
HETATM   12  O2  UNK     1      29.870  -5.855  34.484  1.00  0.00    -0.222 OA
BRANCH  12  13
HETATM   13  S1  UNK     1      31.448  -6.108  34.196  1.00  0.00     0.303 S 
HETATM   14  O4  UNK     1      32.158  -4.845  34.267  1.00  0.00    -0.193 OA
HETATM   15  O5  UNK     1      31.872  -7.260  34.969  1.00  0.00    -0.193 OA
BRANCH  13  16
HETATM   16  C7  UNK     1      31.484  -6.587  32.497  1.00  0.00     0.086 A 
HETATM   17  C15 UNK     1      30.762  -5.858  31.552  1.00  0.00     0.026 A 
HETATM   18  C20 UNK     1      30.788  -6.238  30.210  1.00  0.00     0.008 A 
HETATM   19  C17 UNK     1      31.536  -7.347  29.813  1.00  0.00    -0.062 A 
HETATM   20  C21 UNK     1      32.257  -8.076  30.758  1.00  0.00     0.008 A 
HETATM   21  C23 UNK     1      31.563  -7.753  28.378  1.00  0.00     0.048 C 
HETATM   22  C16 UNK     1      32.231  -7.696  32.100  1.00  0.00     0.026 A 
ENDBRANCH  13  16
ENDBRANCH  12  13
ENDBRANCH   4  12
BRANCH   3  23
HETATM   23  C4  UNK     1      28.419  -8.131  33.454  1.00  0.00     0.001 A 
HETATM   24  C8  UNK     1      29.053  -9.285  32.992  1.00  0.00     0.015 A 
HETATM   25  C13 UNK     1      28.982  -9.626  31.642  1.00  0.00     0.007 A 
HETATM   26  C12 UNK     1      28.279  -8.814  30.752  1.00  0.00    -0.062 A 
HETATM   27  C14 UNK     1      27.645  -7.660  31.214  1.00  0.00     0.007 A 
HETATM   28  C22 UNK     1      28.204  -9.178  29.308  1.00  0.00     0.048 C 
HETATM   29  C9  UNK     1      27.715  -7.318  32.565  1.00  0.00     0.015 A 
ENDBRANCH   3  23
TORSDOF 4
ENDMDL
MODEL 4
REMARK VINA RESULT:      -9.9     15.224     17.507
REMARK  4 active torsions:
REMARK  status: ('A' for Active; 'I' for Inactive)
REMARK    1  A    between atoms: C7_13  and  S1_1 
REMARK    2  A    between atoms: O2_3  and  S1_1 
REMARK    3  A    between atoms: C2_8  and  O2_3 
REMARK    4  A    between atoms: C1_7  and  C4_10 
ROOT
HETATM    1  O1  UNK     1      31.311  -8.060  35.462  1.00  0.00    -0.306 OA
HETATM    2  O3  UNK     1      31.773  -4.232  34.146  1.00  0.00    -0.284 OA
HETATM    3  C1  UNK     1      31.246  -7.746  34.114  1.00  0.00     0.125 A 
HETATM    4  C2  UNK     1      31.382  -6.506  33.612  1.00  0.00     0.175 A 
HETATM    5  C3  UNK     1      31.724  -5.723  35.972  1.00  0.00     0.051 A 
HETATM    6  C5  UNK     1      31.554  -7.052  36.357  1.00  0.00     0.090 A 
HETATM    7  C6  UNK     1      31.639  -5.381  34.544  1.00  0.00     0.222 A 
HETATM    8  C10 UNK     1      31.970  -4.737  36.930  1.00  0.00     0.018 A 
HETATM    9  C11 UNK     1      31.627  -7.402  37.706  1.00  0.00     0.038 A 
HETATM   10  C18 UNK     1      32.043  -5.089  38.278  1.00  0.00     0.001 A 
HETATM   11  C19 UNK     1      31.873  -6.418  38.666  1.00  0.00     0.003 A 
ENDROOT
BRANCH   4  12
HETATM   12  O2  UNK     1      31.278  -6.223  32.267  1.00  0.00    -0.222 OA
BRANCH  12  13
HETATM   13  S1  UNK     1      29.853  -5.747  31.652  1.00  0.00     0.303 S 
HETATM   14  O4  UNK     1      28.865  -5.694  32.712  1.00  0.00    -0.193 OA
HETATM   15  O5  UNK     1      30.090  -4.611  30.780  1.00  0.00    -0.193 OA
BRANCH  13  16
HETATM   16  C7  UNK     1      29.380  -7.098  30.618  1.00  0.00     0.086 A 
HETATM   17  C15 UNK     1      28.130  -7.696  30.781  1.00  0.00     0.026 A 
HETATM   18  C20 UNK     1      27.757  -8.765  29.967  1.00  0.00     0.008 A 
HETATM   19  C17 UNK     1      28.634  -9.238  28.990  1.00  0.00    -0.062 A 
HETATM   20  C21 UNK     1      29.884  -8.640  28.828  1.00  0.00     0.008 A 
HETATM   21  C23 UNK     1      28.236 -10.381  28.120  1.00  0.00     0.048 C 
HETATM   22  C16 UNK     1      30.258  -7.571  29.642  1.00  0.00     0.026 A 
ENDBRANCH  13  16
ENDBRANCH  12  13
ENDBRANCH   4  12
BRANCH   3  23
HETATM   23  C4  UNK     1      30.981  -8.919  33.263  1.00  0.00     0.001 A 
HETATM   24  C8  UNK     1      29.769  -9.601  33.373  1.00  0.00     0.015 A 
HETATM   25  C13 UNK     1      29.517 -10.711  32.567  1.00  0.00     0.007 A 
HETATM   26  C12 UNK     1      30.477 -11.140  31.650  1.00  0.00    -0.062 A 
HETATM   27  C14 UNK     1      31.689 -10.458  31.539  1.00  0.00     0.007 A 
HETATM   28  C22 UNK     1      30.209 -12.326  30.789  1.00  0.00     0.048 C 
HETATM   29  C9  UNK     1      31.941  -9.347  32.346  1.00  0.00     0.015 A 
ENDBRANCH   3  23
TORSDOF 4
ENDMDL
MODEL 5
REMARK VINA RESULT:      -9.9     14.546     17.623
REMARK  4 active torsions:
REMARK  status: ('A' for Active; 'I' for Inactive)
REMARK    1  A    between atoms: C7_13  and  S1_1 
REMARK    2  A    between atoms: O2_3  and  S1_1 
REMARK    3  A    between atoms: C2_8  and  O2_3 
REMARK    4  A    between atoms: C1_7  and  C4_10 
ROOT
HETATM    1  O1  UNK     1      30.038  -5.828  35.139  1.00  0.00    -0.306 OA
HETATM    2  O3  UNK     1      34.059  -6.293  34.672  1.00  0.00    -0.284 OA
HETATM    3  C1  UNK     1      30.586  -6.207  33.924  1.00  0.00     0.125 A 
HETATM    4  C2  UNK     1      31.901  -6.372  33.698  1.00  0.00     0.175 A 
HETATM    5  C3  UNK     1      32.263  -5.770  36.108  1.00  0.00     0.051 A 
HETATM    6  C5  UNK     1      30.880  -5.624  36.201  1.00  0.00     0.090 A 
HETATM    7  C6  UNK     1      32.851  -6.156  34.817  1.00  0.00     0.222 A 
HETATM    8  C10 UNK     1      33.072  -5.549  37.225  1.00  0.00     0.018 A 
HETATM    9  C11 UNK     1      30.297  -5.256  37.414  1.00  0.00     0.038 A 
HETATM   10  C18 UNK     1      32.488  -5.181  38.437  1.00  0.00     0.001 A 
HETATM   11  C19 UNK     1      31.103  -5.035  38.532  1.00  0.00     0.003 A 
ENDROOT
BRANCH   4  12
HETATM   12  O2  UNK     1      32.416  -6.718  32.468  1.00  0.00    -0.222 OA
BRANCH  12  13
HETATM   13  S1  UNK     1      32.790  -8.267  32.157  1.00  0.00     0.303 S 
HETATM   14  O4  UNK     1      34.036  -8.321  31.417  1.00  0.00    -0.193 OA
HETATM   15  O5  UNK     1      32.598  -9.034  33.374  1.00  0.00    -0.193 OA
BRANCH  13  16
HETATM   16  C7  UNK     1      31.534  -8.774  31.025  1.00  0.00     0.086 A 
HETATM   17  C15 UNK     1      31.274  -8.014  29.885  1.00  0.00     0.026 A 
HETATM   18  C20 UNK     1      30.280  -8.413  28.992  1.00  0.00     0.008 A 
HETATM   19  C17 UNK     1      29.545  -9.573  29.239  1.00  0.00    -0.062 A 
HETATM   20  C21 UNK     1      29.805 -10.334  30.379  1.00  0.00     0.008 A 
HETATM   21  C23 UNK     1      28.482 -10.000  28.284  1.00  0.00     0.048 C 
HETATM   22  C16 UNK     1      30.799  -9.934  31.273  1.00  0.00     0.026 A 
ENDBRANCH  13  16
ENDBRANCH  12  13
ENDBRANCH   4  12
BRANCH   3  23
HETATM   23  C4  UNK     1      29.573  -6.392  32.870  1.00  0.00     0.001 A 
HETATM   24  C8  UNK     1      29.475  -5.471  31.828  1.00  0.00     0.015 A 
HETATM   25  C13 UNK     1      28.517  -5.647  30.829  1.00  0.00     0.007 A 
HETATM   26  C12 UNK     1      27.657  -6.744  30.873  1.00  0.00    -0.062 A 
HETATM   27  C14 UNK     1      27.754  -7.665  31.915  1.00  0.00     0.007 A 
HETATM   28  C22 UNK     1      26.632  -6.931  29.806  1.00  0.00     0.048 C 
HETATM   29  C9  UNK     1      28.712  -7.490  32.915  1.00  0.00     0.015 A 
ENDBRANCH   3  23
TORSDOF 4
ENDMDL
MODEL 6
REMARK VINA RESULT:      -9.7     15.733     17.638
REMARK  4 active torsions:
REMARK  status: ('A' for Active; 'I' for Inactive)
REMARK    1  A    between atoms: C7_13  and  S1_1 
REMARK    2  A    between atoms: O2_3  and  S1_1 
REMARK    3  A    between atoms: C2_8  and  O2_3 
REMARK    4  A    between atoms: C1_7  and  C4_10 
ROOT
HETATM    1  O1  UNK     1      31.980  -7.648  32.328  1.00  0.00    -0.306 OA
HETATM    2  O3  UNK     1      35.921  -6.933  33.074  1.00  0.00    -0.284 OA
HETATM    3  C1  UNK     1      32.438  -7.387  33.610  1.00  0.00     0.125 A 
HETATM    4  C2  UNK     1      33.722  -7.149  33.928  1.00  0.00     0.175 A 
HETATM    5  C3  UNK     1      34.243  -7.406  31.486  1.00  0.00     0.051 A 
HETATM    6  C5  UNK     1      32.883  -7.646  31.298  1.00  0.00     0.090 A 
HETATM    7  C6  UNK     1      34.737  -7.144  32.846  1.00  0.00     0.222 A 
HETATM    8  C10 UNK     1      35.118  -7.417  30.397  1.00  0.00     0.018 A 
HETATM    9  C11 UNK     1      32.390  -7.900  30.018  1.00  0.00     0.038 A 
HETATM   10  C18 UNK     1      34.623  -7.671  29.117  1.00  0.00     0.001 A 
HETATM   11  C19 UNK     1      33.261  -7.911  28.928  1.00  0.00     0.003 A 
ENDROOT
BRANCH   4  12
HETATM   12  O2  UNK     1      34.149  -6.926  35.219  1.00  0.00    -0.222 OA
BRANCH  12  13
HETATM   13  S1  UNK     1      34.407  -5.407  35.731  1.00  0.00     0.303 S 
HETATM   14  O4  UNK     1      35.550  -5.387  36.622  1.00  0.00    -0.193 OA
HETATM   15  O5  UNK     1      34.326  -4.521  34.584  1.00  0.00    -0.193 OA
BRANCH  13  16
HETATM   16  C7  UNK     1      32.999  -5.070  36.742  1.00  0.00     0.086 A 
HETATM   17  C15 UNK     1      32.137  -4.026  36.410  1.00  0.00     0.026 A 
HETATM   18  C20 UNK     1      31.026  -3.757  37.211  1.00  0.00     0.008 A 
HETATM   19  C17 UNK     1      30.779  -4.533  38.344  1.00  0.00    -0.062 A 
HETATM   20  C21 UNK     1      31.642  -5.577  38.676  1.00  0.00     0.008 A 
HETATM   21  C23 UNK     1      29.592  -4.246  39.200  1.00  0.00     0.048 C 
HETATM   22  C16 UNK     1      32.753  -5.846  37.875  1.00  0.00     0.026 A 
ENDBRANCH  13  16
ENDBRANCH  12  13
ENDBRANCH   4  12
BRANCH   3  23
HETATM   23  C4  UNK     1      31.366  -7.418  34.620  1.00  0.00     0.001 A 
HETATM   24  C8  UNK     1      30.336  -6.478  34.574  1.00  0.00     0.015 A 
HETATM   25  C13 UNK     1      29.321  -6.508  35.531  1.00  0.00     0.007 A 
HETATM   26  C12 UNK     1      29.335  -7.478  36.533  1.00  0.00    -0.062 A 
HETATM   27  C14 UNK     1      30.364  -8.418  36.579  1.00  0.00     0.007 A 
HETATM   28  C22 UNK     1      28.250  -7.510  37.555  1.00  0.00     0.048 C 
HETATM   29  C9  UNK     1      31.380  -8.389  35.623  1.00  0.00     0.015 A 
ENDBRANCH   3  23
TORSDOF 4
ENDMDL
MODEL 7
REMARK VINA RESULT:      -9.7     15.487     19.129
REMARK  4 active torsions:
REMARK  status: ('A' for Active; 'I' for Inactive)
REMARK    1  A    between atoms: C7_13  and  S1_1 
REMARK    2  A    between atoms: O2_3  and  S1_1 
REMARK    3  A    between atoms: C2_8  and  O2_3 
REMARK    4  A    between atoms: C1_7  and  C4_10 
ROOT
HETATM    1  O1  UNK     1      30.678  -7.182  36.374  1.00  0.00    -0.306 OA
HETATM    2  O3  UNK     1      31.940  -3.310  36.245  1.00  0.00    -0.284 OA
HETATM    3  C1  UNK     1      31.608  -6.755  35.440  1.00  0.00     0.125 A 
HETATM    4  C2  UNK     1      32.063  -5.493  35.336  1.00  0.00     0.175 A 
HETATM    5  C3  UNK     1      30.588  -4.936  37.289  1.00  0.00     0.051 A 
HETATM    6  C5  UNK     1      30.194  -6.273  37.278  1.00  0.00     0.090 A 
HETATM    7  C6  UNK     1      31.562  -4.473  36.290  1.00  0.00     0.222 A 
HETATM    8  C10 UNK     1      30.060  -4.053  38.235  1.00  0.00     0.018 A 
HETATM    9  C11 UNK     1      29.269  -6.736  38.214  1.00  0.00     0.038 A 
HETATM   10  C18 UNK     1      29.136  -4.518  39.171  1.00  0.00     0.001 A 
HETATM   11  C19 UNK     1      28.741  -5.857  39.161  1.00  0.00     0.003 A 
ENDROOT
BRANCH   4  12
HETATM   12  O2  UNK     1      32.964  -5.095  34.373  1.00  0.00    -0.222 OA
BRANCH  12  13
HETATM   13  S1  UNK     1      34.532  -4.926  34.757  1.00  0.00     0.303 S 
HETATM   14  O4  UNK     1      35.058  -3.735  34.117  1.00  0.00    -0.193 OA
HETATM   15  O5  UNK     1      34.677  -5.145  36.184  1.00  0.00    -0.193 OA
BRANCH  13  16
HETATM   16  C7  UNK     1      35.304  -6.291  33.946  1.00  0.00     0.086 A 
HETATM   17  C15 UNK     1      35.000  -6.573  32.615  1.00  0.00     0.026 A 
HETATM   18  C20 UNK     1      35.607  -7.653  31.974  1.00  0.00     0.008 A 
HETATM   19  C17 UNK     1      36.519  -8.451  32.665  1.00  0.00    -0.062 A 
HETATM   20  C21 UNK     1      36.822  -8.169  33.997  1.00  0.00     0.008 A 
HETATM   21  C23 UNK     1      37.167  -9.607  31.981  1.00  0.00     0.048 C 
HETATM   22  C16 UNK     1      36.215  -7.089  34.638  1.00  0.00     0.026 A 
ENDBRANCH  13  16
ENDBRANCH  12  13
ENDBRANCH   4  12
BRANCH   3  23
HETATM   23  C4  UNK     1      32.045  -7.830  34.531  1.00  0.00     0.001 A 
HETATM   24  C8  UNK     1      32.942  -8.799  34.979  1.00  0.00     0.015 A 
HETATM   25  C13 UNK     1      33.355  -9.817  34.119  1.00  0.00     0.007 A 
HETATM   26  C12 UNK     1      32.871  -9.866  32.812  1.00  0.00    -0.062 A 
HETATM   27  C14 UNK     1      31.974  -8.897  32.364  1.00  0.00     0.007 A 
HETATM   28  C22 UNK     1      33.313 -10.954  31.893  1.00  0.00     0.048 C 
HETATM   29  C9  UNK     1      31.560  -7.878  33.224  1.00  0.00     0.015 A 
ENDBRANCH   3  23
TORSDOF 4
ENDMDL
MODEL 8
REMARK VINA RESULT:      -9.5     16.018     18.482
REMARK  4 active torsions:
REMARK  status: ('A' for Active; 'I' for Inactive)
REMARK    1  A    between atoms: C7_13  and  S1_1 
REMARK    2  A    between atoms: O2_3  and  S1_1 
REMARK    3  A    between atoms: C2_8  and  O2_3 
REMARK    4  A    between atoms: C1_7  and  C4_10 
ROOT
HETATM    1  O1  UNK     1      33.738  -9.580  34.099  1.00  0.00    -0.306 OA
HETATM    2  O3  UNK     1      35.629  -6.400  32.392  1.00  0.00    -0.284 OA
HETATM    3  C1  UNK     1      33.340  -8.278  34.358  1.00  0.00     0.125 A 
HETATM    4  C2  UNK     1      33.922  -7.184  33.835  1.00  0.00     0.175 A 
HETATM    5  C3  UNK     1      35.467  -8.742  32.617  1.00  0.00     0.051 A 
HETATM    6  C5  UNK     1      34.781  -9.786  33.235  1.00  0.00     0.090 A 
HETATM    7  C6  UNK     1      35.060  -7.358  32.900  1.00  0.00     0.222 A 
HETATM    8  C10 UNK     1      36.525  -9.012  31.744  1.00  0.00     0.018 A 
HETATM    9  C11 UNK     1      35.150 -11.108  32.986  1.00  0.00     0.038 A 
HETATM   10  C18 UNK     1      36.891 -10.335  31.496  1.00  0.00     0.001 A 
HETATM   11  C19 UNK     1      36.205 -11.381  32.114  1.00  0.00     0.003 A 
ENDROOT
BRANCH   4  12
HETATM   12  O2  UNK     1      33.522  -5.901  34.139  1.00  0.00    -0.222 OA
BRANCH  12  13
HETATM   13  S1  UNK     1      34.223  -5.109  35.371  1.00  0.00     0.303 S 
HETATM   14  O4  UNK     1      35.175  -5.985  36.027  1.00  0.00    -0.193 OA
HETATM   15  O5  UNK     1      34.607  -3.789  34.903  1.00  0.00    -0.193 OA
BRANCH  13  16
HETATM   16  C7  UNK     1      32.903  -4.883  36.520  1.00  0.00     0.086 A 
HETATM   17  C15 UNK     1      32.988  -5.437  37.797  1.00  0.00     0.026 A 
HETATM   18  C20 UNK     1      31.943  -5.262  38.705  1.00  0.00     0.008 A 
HETATM   19  C17 UNK     1      30.812  -4.532  38.335  1.00  0.00    -0.062 A 
HETATM   20  C21 UNK     1      30.727  -3.979  37.057  1.00  0.00     0.008 A 
HETATM   21  C23 UNK     1      29.695  -4.346  39.304  1.00  0.00     0.048 C 
HETATM   22  C16 UNK     1      31.772  -4.154  36.149  1.00  0.00     0.026 A 
ENDBRANCH  13  16
ENDBRANCH  12  13
ENDBRANCH   4  12
BRANCH   3  23
HETATM   23  C4  UNK     1      32.210  -8.198  35.300  1.00  0.00     0.001 A 
HETATM   24  C8  UNK     1      31.023  -7.575  34.914  1.00  0.00     0.015 A 
HETATM   25  C13 UNK     1      29.953  -7.500  35.805  1.00  0.00     0.007 A 
HETATM   26  C12 UNK     1      30.069  -8.049  37.083  1.00  0.00    -0.062 A 
HETATM   27  C14 UNK     1      31.256  -8.672  37.469  1.00  0.00     0.007 A 
HETATM   28  C22 UNK     1      28.925  -7.968  38.036  1.00  0.00     0.048 C 
HETATM   29  C9  UNK     1      32.327  -8.746  36.577  1.00  0.00     0.015 A 
ENDBRANCH   3  23
TORSDOF 4
ENDMDL
MODEL 9
REMARK VINA RESULT:      -9.4     14.596     17.676
REMARK  4 active torsions:
REMARK  status: ('A' for Active; 'I' for Inactive)
REMARK    1  A    between atoms: C7_13  and  S1_1 
REMARK    2  A    between atoms: O2_3  and  S1_1 
REMARK    3  A    between atoms: C2_8  and  O2_3 
REMARK    4  A    between atoms: C1_7  and  C4_10 
ROOT
HETATM    1  O1  UNK     1      27.765  -8.750  36.093  1.00  0.00    -0.306 OA
HETATM    2  O3  UNK     1      31.496  -8.896  37.723  1.00  0.00    -0.284 OA
HETATM    3  C1  UNK     1      28.880  -8.331  35.385  1.00  0.00     0.125 A 
HETATM    4  C2  UNK     1      30.137  -8.345  35.863  1.00  0.00     0.175 A 
HETATM    5  C3  UNK     1      29.189  -9.316  37.975  1.00  0.00     0.051 A 
HETATM    6  C5  UNK     1      27.940  -9.237  37.362  1.00  0.00     0.090 A 
HETATM    7  C6  UNK     1      30.374  -8.857  37.235  1.00  0.00     0.222 A 
HETATM    8  C10 UNK     1      29.307  -9.822  39.272  1.00  0.00     0.018 A 
HETATM    9  C11 UNK     1      26.800  -9.663  38.044  1.00  0.00     0.038 A 
HETATM   10  C18 UNK     1      28.166 -10.248  39.952  1.00  0.00     0.001 A 
HETATM   11  C19 UNK     1      26.915 -10.169  39.339  1.00  0.00     0.003 A 
ENDROOT
BRANCH   4  12
HETATM   12  O2  UNK     1      31.220  -7.889  35.144  1.00  0.00    -0.222 OA
BRANCH  12  13
HETATM   13  S1  UNK     1      32.144  -8.942  34.324  1.00  0.00     0.303 S 
HETATM   14  O4  UNK     1      33.543  -8.652  34.573  1.00  0.00    -0.193 OA
HETATM   15  O5  UNK     1      31.600 -10.274  34.521  1.00  0.00    -0.193 OA
BRANCH  13  16
HETATM   16  C7  UNK     1      31.855  -8.514  32.635  1.00  0.00     0.086 A 
HETATM   17  C15 UNK     1      31.768  -7.174  32.261  1.00  0.00     0.026 A 
HETATM   18  C20 UNK     1      31.537  -6.835  30.928  1.00  0.00     0.008 A 
HETATM   19  C17 UNK     1      31.392  -7.837  29.969  1.00  0.00    -0.062 A 
HETATM   20  C21 UNK     1      31.478  -9.178  30.343  1.00  0.00     0.008 A 
HETATM   21  C23 UNK     1      31.144  -7.475  28.543  1.00  0.00     0.048 C 
HETATM   22  C16 UNK     1      31.709  -9.517  31.676  1.00  0.00     0.026 A 
ENDBRANCH  13  16
ENDBRANCH  12  13
ENDBRANCH   4  12
BRANCH   3  23
HETATM   23  C4  UNK     1      28.552  -7.832  34.038  1.00  0.00     0.001 A 
HETATM   24  C8  UNK     1      28.423  -8.727  32.976  1.00  0.00     0.015 A 
HETATM   25  C13 UNK     1      28.111  -8.255  31.701  1.00  0.00     0.007 A 
HETATM   26  C12 UNK     1      27.929  -6.889  31.487  1.00  0.00    -0.062 A 
HETATM   27  C14 UNK     1      28.058  -5.994  32.549  1.00  0.00     0.007 A 
HETATM   28  C22 UNK     1      27.597  -6.385  30.124  1.00  0.00     0.048 C 
HETATM   29  C9  UNK     1      28.370  -6.465  33.825  1.00  0.00     0.015 A 
ENDBRANCH   3  23
TORSDOF 4
ENDMDL
MODEL 10
REMARK VINA RESULT:      -9.4     15.310     18.092
REMARK  4 active torsions:
REMARK  status: ('A' for Active; 'I' for Inactive)
REMARK    1  A    between atoms: C7_13  and  S1_1 
REMARK    2  A    between atoms: O2_3  and  S1_1 
REMARK    3  A    between atoms: C2_8  and  O2_3 
REMARK    4  A    between atoms: C1_7  and  C4_10 
ROOT
HETATM    1  O1  UNK     1      34.334  -6.730  35.649  1.00  0.00    -0.306 OA
HETATM    2  O3  UNK     1      33.065  -9.565  33.011  1.00  0.00    -0.284 OA
HETATM    3  C1  UNK     1      32.999  -7.093  35.563  1.00  0.00     0.125 A 
HETATM    4  C2  UNK     1      32.511  -8.013  34.713  1.00  0.00     0.175 A 
HETATM    5  C3  UNK     1      34.868  -8.340  33.913  1.00  0.00     0.051 A 
HETATM    6  C5  UNK     1      35.237  -7.361  34.834  1.00  0.00     0.090 A 
HETATM    7  C6  UNK     1      33.451  -8.717  33.806  1.00  0.00     0.222 A 
HETATM    8  C10 UNK     1      35.833  -8.949  33.106  1.00  0.00     0.018 A 
HETATM    9  C11 UNK     1      36.575  -6.983  34.952  1.00  0.00     0.038 A 
HETATM   10  C18 UNK     1      37.170  -8.571  33.227  1.00  0.00     0.001 A 
HETATM   11  C19 UNK     1      37.541  -7.591  34.149  1.00  0.00     0.003 A 
ENDROOT
BRANCH   4  12
HETATM   12  O2  UNK     1      31.172  -8.326  34.630  1.00  0.00    -0.222 OA
BRANCH  12  13
HETATM   13  S1  UNK     1      30.562  -9.509  35.558  1.00  0.00     0.303 S 
HETATM   14  O4  UNK     1      29.785 -10.416  34.734  1.00  0.00    -0.193 OA
HETATM   15  O5  UNK     1      31.617  -9.994  36.429  1.00  0.00    -0.193 OA
BRANCH  13  16
HETATM   16  C7  UNK     1      29.395  -8.668  36.582  1.00  0.00     0.086 A 
HETATM   17  C15 UNK     1      28.623  -7.634  36.055  1.00  0.00     0.026 A 
HETATM   18  C20 UNK     1      27.703  -6.967  36.864  1.00  0.00     0.008 A 
HETATM   19  C17 UNK     1      27.556  -7.335  38.202  1.00  0.00    -0.062 A 
HETATM   20  C21 UNK     1      28.328  -8.370  38.730  1.00  0.00     0.008 A 
HETATM   21  C23 UNK     1      26.573  -6.622  39.068  1.00  0.00     0.048 C 
HETATM   22  C16 UNK     1      29.249  -9.037  37.920  1.00  0.00     0.026 A 
ENDBRANCH  13  16
ENDBRANCH  12  13
ENDBRANCH   4  12
BRANCH   3  23
HETATM   23  C4  UNK     1      32.139  -6.341  36.493  1.00  0.00     0.001 A 
HETATM   24  C8  UNK     1      32.065  -6.718  37.834  1.00  0.00     0.015 A 
HETATM   25  C13 UNK     1      31.251  -6.005  38.715  1.00  0.00     0.007 A 
HETATM   26  C12 UNK     1      30.511  -4.916  38.256  1.00  0.00    -0.062 A 
HETATM   27  C14 UNK     1      30.584  -4.539  36.915  1.00  0.00     0.007 A 
HETATM   28  C22 UNK     1      29.640  -4.155  39.197  1.00  0.00     0.048 C 
HETATM   29  C9  UNK     1      31.398  -5.251  36.033  1.00  0.00     0.015 A 
ENDBRANCH   3  23
TORSDOF 4
ENDMDL
