MODEL 1
REMARK VINA RESULT:      -9.2      0.000      0.000
REMARK  4 active torsions:
REMARK  status: ('A' for Active; 'I' for Inactive)
REMARK    1  A    between atoms: C11_17  and  O2_2 
REMARK    2  A    between atoms: C12_18  and  O3_3 
REMARK    3  A    between atoms: C5_11  and  N1_6 
REMARK       I    between atoms: C6_12  and  N1_6 
REMARK    4  A    between atoms: C2_8  and  C6_12 
ROOT
HETATM    1  O4  UNK     1      17.564   3.226  32.780  1.00  0.00    -0.267 OA
HETATM    2  N1  UNK     1      18.695   4.705  31.339  1.00  0.00    -0.323 N 
HETATM    3  C6  UNK     1      18.253   3.469  31.791  1.00  0.00     0.262 C 
HETATM    4  H2  UNK     1      19.243   4.738  30.483  1.00  0.00     0.169 HD
ENDROOT
BRANCH   3   5
HETATM    5  C2  UNK     1      18.706   2.371  30.930  1.00  0.00     0.108 A 
HETATM    6  C10 UNK     1      18.693   2.472  29.454  1.00  0.00     0.304 A 
HETATM    7  O1  UNK     1      19.147   1.363  28.746  1.00  0.00    -0.274 OA
HETATM    8  O5  UNK     1      18.303   3.483  28.877  1.00  0.00    -0.259 OA
HETATM    9  C3  UNK     1      19.598   0.199  29.398  1.00  0.00     0.089 A 
HETATM   10  C1  UNK     1      19.602   0.124  30.787  1.00  0.00    -0.001 A 
HETATM   11  C13 UNK     1      20.034  -0.859  28.605  1.00  0.00     0.038 A 
HETATM   12  C4  UNK     1      19.133   1.267  31.555  1.00  0.00     0.037 A 
HETATM   13  C7  UNK     1      20.056  -1.048  31.397  1.00  0.00     0.014 A 
HETATM   14  C15 UNK     1      20.497  -2.118  30.614  1.00  0.00     0.001 A 
HETATM   15  C16 UNK     1      20.487  -2.024  29.220  1.00  0.00     0.003 A 
ENDBRANCH   3   5
BRANCH   2  16
HETATM   16  C5  UNK     1      18.449   5.974  31.917  1.00  0.00     0.040 A 
HETATM   17  C8  UNK     1      17.373   6.723  31.473  1.00  0.00     0.066 A 
HETATM   18  C12 UNK     1      17.130   7.973  32.044  1.00  0.00     0.073 A 
HETATM   19  C14 UNK     1      17.968   8.454  33.050  1.00  0.00     0.073 A 
HETATM   20  C11 UNK     1      19.048   7.687  33.485  1.00  0.00     0.073 A 
HETATM   21  C9  UNK     1      19.291   6.438  32.914  1.00  0.00     0.066 A 
BRANCH  18  22
HETATM   22  O3  UNK     1      16.076   8.723  31.620  1.00  0.00    -0.356 OA
HETATM   23  C18 UNK     1      15.227   9.278  32.623  1.00  0.00     0.210 C 
ENDBRANCH  18  22
BRANCH  20  24
HETATM   24  O2  UNK     1      19.866   8.158  34.466  1.00  0.00    -0.356 OA
HETATM   25  C17 UNK     1      20.160   9.554  34.451  1.00  0.00     0.210 C 
ENDBRANCH  20  24
ENDBRANCH   2  16
TORSDOF 4
ENDMDL
MODEL 2
REMARK VINA RESULT:      -9.2      0.035      2.279
REMARK  4 active torsions:
REMARK  status: ('A' for Active; 'I' for Inactive)
REMARK    1  A    between atoms: C11_17  and  O2_2 
REMARK    2  A    between atoms: C12_18  and  O3_3 
REMARK    3  A    between atoms: C5_11  and  N1_6 
REMARK       I    between atoms: C6_12  and  N1_6 
REMARK    4  A    between atoms: C2_8  and  C6_12 
ROOT
HETATM    1  O4  UNK     1      17.574   3.243  32.773  1.00  0.00    -0.267 OA
HETATM    2  N1  UNK     1      18.711   4.714  31.327  1.00  0.00    -0.323 N 
HETATM    3  C6  UNK     1      18.262   3.481  31.782  1.00  0.00     0.262 C 
HETATM    4  H2  UNK     1      19.257   4.741  30.470  1.00  0.00     0.169 HD
ENDROOT
BRANCH   3   5
HETATM    5  C2  UNK     1      18.706   2.378  30.921  1.00  0.00     0.108 A 
HETATM    6  C10 UNK     1      18.683   2.475  29.445  1.00  0.00     0.304 A 
HETATM    7  O1  UNK     1      19.130   1.362  28.738  1.00  0.00    -0.274 OA
HETATM    8  O5  UNK     1      18.292   3.484  28.868  1.00  0.00    -0.259 OA
HETATM    9  C3  UNK     1      19.582   0.199  29.391  1.00  0.00     0.089 A 
HETATM   10  C1  UNK     1      19.595   0.129  30.780  1.00  0.00    -0.001 A 
HETATM   11  C13 UNK     1      20.010  -0.863  28.598  1.00  0.00     0.038 A 
HETATM   12  C4  UNK     1      19.135   1.275  31.547  1.00  0.00     0.037 A 
HETATM   13  C7  UNK     1      20.050  -1.042  31.391  1.00  0.00     0.014 A 
HETATM   14  C15 UNK     1      20.483  -2.117  30.609  1.00  0.00     0.001 A 
HETATM   15  C16 UNK     1      20.463  -2.027  29.215  1.00  0.00     0.003 A 
ENDBRANCH   3   5
BRANCH   2  16
HETATM   16  C5  UNK     1      18.475   5.985  31.903  1.00  0.00     0.040 A 
HETATM   17  C8  UNK     1      19.326   6.449  32.892  1.00  0.00     0.066 A 
HETATM   18  C12 UNK     1      19.094   7.702  33.459  1.00  0.00     0.073 A 
HETATM   19  C14 UNK     1      18.013   8.472  33.029  1.00  0.00     0.073 A 
HETATM   20  C11 UNK     1      17.166   7.990  32.032  1.00  0.00     0.073 A 
HETATM   21  C9  UNK     1      17.398   6.737  31.466  1.00  0.00     0.066 A 
BRANCH  18  22
HETATM   22  O3  UNK     1      19.922   8.173  34.432  1.00  0.00    -0.356 OA
HETATM   23  C18 UNK     1      20.144   9.582  34.471  1.00  0.00     0.210 C 
ENDBRANCH  18  22
BRANCH  20  24
HETATM   24  O2  UNK     1      16.111   8.742  31.614  1.00  0.00    -0.356 OA
HETATM   25  C17 UNK     1      15.206   9.205  32.615  1.00  0.00     0.210 C 
ENDBRANCH  20  24
ENDBRANCH   2  16
TORSDOF 4
ENDMDL
MODEL 3
REMARK VINA RESULT:      -9.0      8.030     12.810
REMARK  4 active torsions:
REMARK  status: ('A' for Active; 'I' for Inactive)
REMARK    1  A    between atoms: C11_17  and  O2_2 
REMARK    2  A    between atoms: C12_18  and  O3_3 
REMARK    3  A    between atoms: C5_11  and  N1_6 
REMARK       I    between atoms: C6_12  and  N1_6 
REMARK    4  A    between atoms: C2_8  and  C6_12 
ROOT
HETATM    1  O4  UNK     1      21.253  -4.267  37.242  1.00  0.00    -0.267 OA
HETATM    2  N1  UNK     1      19.492  -5.208  35.994  1.00  0.00    -0.323 N 
HETATM    3  C6  UNK     1      20.255  -4.179  36.530  1.00  0.00     0.262 C 
HETATM    4  H2  UNK     1      18.703  -4.965  35.401  1.00  0.00     0.169 HD
ENDROOT
BRANCH   3   5
HETATM    5  C2  UNK     1      19.742  -2.857  36.154  1.00  0.00     0.108 A 
HETATM    6  C10 UNK     1      19.982  -2.272  34.816  1.00  0.00     0.304 A 
HETATM    7  O1  UNK     1      19.443  -1.010  34.579  1.00  0.00    -0.274 OA
HETATM    8  O5  UNK     1      20.621  -2.865  33.954  1.00  0.00    -0.259 OA
HETATM    9  C3  UNK     1      18.706  -0.320  35.561  1.00  0.00     0.089 A 
HETATM   10  C1  UNK     1      18.493  -0.888  36.814  1.00  0.00    -0.001 A 
HETATM   11  C13 UNK     1      18.207   0.938  35.232  1.00  0.00     0.038 A 
HETATM   12  C4  UNK     1      19.043  -2.206  37.092  1.00  0.00     0.037 A 
HETATM   13  C7  UNK     1      17.757  -0.173  37.762  1.00  0.00     0.014 A 
HETATM   14  C15 UNK     1      17.250   1.090  37.445  1.00  0.00     0.001 A 
HETATM   15  C16 UNK     1      17.473   1.645  36.182  1.00  0.00     0.003 A 
ENDBRANCH   3   5
BRANCH   2  16
HETATM   16  C5  UNK     1      19.693  -6.601  36.147  1.00  0.00     0.040 A 
HETATM   17  C8  UNK     1      20.505  -7.271  35.247  1.00  0.00     0.066 A 
HETATM   18  C12 UNK     1      20.704  -8.643  35.399  1.00  0.00     0.073 A 
HETATM   19  C14 UNK     1      20.087  -9.325  36.447  1.00  0.00     0.073 A 
HETATM   20  C11 UNK     1      19.273  -8.635  37.345  1.00  0.00     0.073 A 
HETATM   21  C9  UNK     1      19.074  -7.264  37.193  1.00  0.00     0.066 A 
BRANCH  18  22
HETATM   22  O3  UNK     1      21.499  -9.317  34.522  1.00  0.00    -0.356 OA
HETATM   23  C18 UNK     1      21.946 -10.614  34.915  1.00  0.00     0.210 C 
ENDBRANCH  18  22
BRANCH  20  24
HETATM   24  O2  UNK     1      18.671  -9.302  38.368  1.00  0.00    -0.356 OA
HETATM   25  C17 UNK     1      19.373 -10.415  38.920  1.00  0.00     0.210 C 
ENDBRANCH  20  24
ENDBRANCH   2  16
TORSDOF 4
ENDMDL
MODEL 4
REMARK VINA RESULT:      -9.0      8.017     12.770
REMARK  4 active torsions:
REMARK  status: ('A' for Active; 'I' for Inactive)
REMARK    1  A    between atoms: C11_17  and  O2_2 
REMARK    2  A    between atoms: C12_18  and  O3_3 
REMARK    3  A    between atoms: C5_11  and  N1_6 
REMARK       I    between atoms: C6_12  and  N1_6 
REMARK    4  A    between atoms: C2_8  and  C6_12 
ROOT
HETATM    1  O4  UNK     1      20.929  -4.213  37.657  1.00  0.00    -0.267 OA
HETATM    2  N1  UNK     1      19.503  -5.133  36.024  1.00  0.00    -0.323 N 
HETATM    3  C6  UNK     1      20.107  -4.113  36.748  1.00  0.00     0.262 C 
HETATM    4  H2  UNK     1      18.855  -4.879  35.283  1.00  0.00     0.169 HD
ENDROOT
BRANCH   3   5
HETATM    5  C2  UNK     1      19.656  -2.786  36.315  1.00  0.00     0.108 A 
HETATM    6  C10 UNK     1      19.972  -2.246  34.975  1.00  0.00     0.304 A 
HETATM    7  O1  UNK     1      19.487  -0.974  34.681  1.00  0.00    -0.274 OA
HETATM    8  O5  UNK     1      20.628  -2.884  34.158  1.00  0.00    -0.259 OA
HETATM    9  C3  UNK     1      18.733  -0.234  35.612  1.00  0.00     0.089 A 
HETATM   10  C1  UNK     1      18.446  -0.760  36.868  1.00  0.00    -0.001 A 
HETATM   11  C13 UNK     1      18.290   1.030  35.228  1.00  0.00     0.038 A 
HETATM   12  C4  UNK     1      18.939  -2.087  37.204  1.00  0.00     0.037 A 
HETATM   13  C7  UNK     1      17.695   0.005  37.763  1.00  0.00     0.014 A 
HETATM   14  C15 UNK     1      17.244   1.275  37.392  1.00  0.00     0.001 A 
HETATM   15  C16 UNK     1      17.541   1.786  36.126  1.00  0.00     0.003 A 
ENDBRANCH   3   5
BRANCH   2  16
HETATM   16  C5  UNK     1      19.700  -6.528  36.169  1.00  0.00     0.040 A 
HETATM   17  C8  UNK     1      19.097  -7.190  37.224  1.00  0.00     0.066 A 
HETATM   18  C12 UNK     1      19.290  -8.565  37.365  1.00  0.00     0.073 A 
HETATM   19  C14 UNK     1      20.084  -9.255  36.449  1.00  0.00     0.073 A 
HETATM   20  C11 UNK     1      20.684  -8.572  35.391  1.00  0.00     0.073 A 
HETATM   21  C9  UNK     1      20.491  -7.198  35.251  1.00  0.00     0.066 A 
BRANCH  18  22
HETATM   22  O3  UNK     1      18.704  -9.232  38.398  1.00  0.00    -0.356 OA
HETATM   23  C18 UNK     1      19.448 -10.297  38.988  1.00  0.00     0.210 C 
ENDBRANCH  18  22
BRANCH  20  24
HETATM   24  O2  UNK     1      21.459  -9.246  34.498  1.00  0.00    -0.356 OA
HETATM   25  C17 UNK     1      21.915 -10.542  34.884  1.00  0.00     0.210 C 
ENDBRANCH  20  24
ENDBRANCH   2  16
TORSDOF 4
ENDMDL
MODEL 5
REMARK VINA RESULT:      -8.7      1.334      3.114
REMARK  4 active torsions:
REMARK  status: ('A' for Active; 'I' for Inactive)
REMARK    1  A    between atoms: C11_17  and  O2_2 
REMARK    2  A    between atoms: C12_18  and  O3_3 
REMARK    3  A    between atoms: C5_11  and  N1_6 
REMARK       I    between atoms: C6_12  and  N1_6 
REMARK    4  A    between atoms: C2_8  and  C6_12 
ROOT
HETATM    1  O4  UNK     1      18.542   4.594  30.190  1.00  0.00    -0.267 OA
HETATM    2  N1  UNK     1      17.991   4.610  32.479  1.00  0.00    -0.323 N 
HETATM    3  C6  UNK     1      18.403   4.044  31.280  1.00  0.00     0.262 C 
HETATM    4  H2  UNK     1      17.950   4.017  33.304  1.00  0.00     0.169 HD
ENDROOT
BRANCH   3   5
HETATM    5  C2  UNK     1      18.690   2.611  31.416  1.00  0.00     0.108 A 
HETATM    6  C10 UNK     1      18.381   1.861  32.653  1.00  0.00     0.304 A 
HETATM    7  O1  UNK     1      18.699   0.505  32.659  1.00  0.00    -0.274 OA
HETATM    8  O5  UNK     1      17.867   2.401  33.627  1.00  0.00    -0.259 OA
HETATM    9  C3  UNK     1      19.288  -0.125  31.546  1.00  0.00     0.089 A 
HETATM   10  C1  UNK     1      19.572   0.599  30.392  1.00  0.00    -0.001 A 
HETATM   11  C13 UNK     1      19.571  -1.485  31.646  1.00  0.00     0.038 A 
HETATM   12  C4  UNK     1      19.250   2.017  30.354  1.00  0.00     0.037 A 
HETATM   13  C7  UNK     1      20.157  -0.061  29.308  1.00  0.00     0.014 A 
HETATM   14  C15 UNK     1      20.446  -1.426  29.395  1.00  0.00     0.001 A 
HETATM   15  C16 UNK     1      20.153  -2.137  30.561  1.00  0.00     0.003 A 
ENDBRANCH   3   5
BRANCH   2  16
HETATM   16  C5  UNK     1      17.634   5.959  32.719  1.00  0.00     0.040 A 
HETATM   17  C8  UNK     1      18.560   6.811  33.297  1.00  0.00     0.066 A 
HETATM   18  C12 UNK     1      18.208   8.141  33.532  1.00  0.00     0.073 A 
HETATM   19  C14 UNK     1      16.937   8.598  33.184  1.00  0.00     0.073 A 
HETATM   20  C11 UNK     1      16.018   7.727  32.602  1.00  0.00     0.073 A 
HETATM   21  C9  UNK     1      16.369   6.397  32.368  1.00  0.00     0.066 A 
BRANCH  18  22
HETATM   22  O3  UNK     1      19.107   8.992  34.100  1.00  0.00    -0.356 OA
HETATM   23  C18 UNK     1      18.834  10.389  33.997  1.00  0.00     0.210 C 
ENDBRANCH  18  22
BRANCH  20  24
HETATM   24  O2  UNK     1      14.777   8.174  32.263  1.00  0.00    -0.356 OA
HETATM   25  C17 UNK     1      13.716   7.220  32.282  1.00  0.00     0.210 C 
ENDBRANCH  20  24
ENDBRANCH   2  16
TORSDOF 4
ENDMDL
MODEL 6
REMARK VINA RESULT:      -8.7      1.312      2.122
REMARK  4 active torsions:
REMARK  status: ('A' for Active; 'I' for Inactive)
REMARK    1  A    between atoms: C11_17  and  O2_2 
REMARK    2  A    between atoms: C12_18  and  O3_3 
REMARK    3  A    between atoms: C5_11  and  N1_6 
REMARK       I    between atoms: C6_12  and  N1_6 
REMARK    4  A    between atoms: C2_8  and  C6_12 
ROOT
HETATM    1  O4  UNK     1      18.514   4.569  30.159  1.00  0.00    -0.267 OA
HETATM    2  N1  UNK     1      18.025   4.605  32.462  1.00  0.00    -0.323 N 
HETATM    3  C6  UNK     1      18.405   4.028  31.258  1.00  0.00     0.262 C 
HETATM    4  H2  UNK     1      18.006   4.019  33.293  1.00  0.00     0.169 HD
ENDROOT
BRANCH   3   5
HETATM    5  C2  UNK     1      18.696   2.597  31.398  1.00  0.00     0.108 A 
HETATM    6  C10 UNK     1      18.381   1.848  32.634  1.00  0.00     0.304 A 
HETATM    7  O1  UNK     1      18.704   0.494  32.646  1.00  0.00    -0.274 OA
HETATM    8  O5  UNK     1      17.859   2.388  33.604  1.00  0.00    -0.259 OA
HETATM    9  C3  UNK     1      19.302  -0.137  31.538  1.00  0.00     0.089 A 
HETATM   10  C1  UNK     1      19.591   0.586  30.384  1.00  0.00    -0.001 A 
HETATM   11  C13 UNK     1      19.589  -1.496  31.643  1.00  0.00     0.038 A 
HETATM   12  C4  UNK     1      19.265   2.003  30.342  1.00  0.00     0.037 A 
HETATM   13  C7  UNK     1      20.185  -0.075  29.306  1.00  0.00     0.014 A 
HETATM   14  C15 UNK     1      20.478  -1.438  29.397  1.00  0.00     0.001 A 
HETATM   15  C16 UNK     1      20.180  -2.148  30.563  1.00  0.00     0.003 A 
ENDBRANCH   3   5
BRANCH   2  16
HETATM   16  C5  UNK     1      17.675   5.957  32.699  1.00  0.00     0.040 A 
HETATM   17  C8  UNK     1      16.418   6.405  32.331  1.00  0.00     0.066 A 
HETATM   18  C12 UNK     1      16.073   7.736  32.566  1.00  0.00     0.073 A 
HETATM   19  C14 UNK     1      16.991   8.599  33.165  1.00  0.00     0.073 A 
HETATM   20  C11 UNK     1      18.252   8.130  33.531  1.00  0.00     0.073 A 
HETATM   21  C9  UNK     1      18.597   6.800  33.295  1.00  0.00     0.066 A 
BRANCH  18  22
HETATM   22  O3  UNK     1      14.841   8.194  32.209  1.00  0.00    -0.356 OA
HETATM   23  C18 UNK     1      13.750   7.282  32.328  1.00  0.00     0.210 C 
ENDBRANCH  18  22
BRANCH  20  24
HETATM   24  O2  UNK     1      19.148   8.973  34.115  1.00  0.00    -0.356 OA
HETATM   25  C17 UNK     1      18.861  10.369  34.052  1.00  0.00     0.210 C 
ENDBRANCH  20  24
ENDBRANCH   2  16
TORSDOF 4
ENDMDL
MODEL 7
REMARK VINA RESULT:      -8.6      8.611     12.910
REMARK  4 active torsions:
REMARK  status: ('A' for Active; 'I' for Inactive)
REMARK    1  A    between atoms: C11_17  and  O2_2 
REMARK    2  A    between atoms: C12_18  and  O3_3 
REMARK    3  A    between atoms: C5_11  and  N1_6 
REMARK       I    between atoms: C6_12  and  N1_6 
REMARK    4  A    between atoms: C2_8  and  C6_12 
ROOT
HETATM    1  O4  UNK     1      20.120  -5.079  35.294  1.00  0.00    -0.267 OA
HETATM    2  N1  UNK     1      20.052  -4.709  37.619  1.00  0.00    -0.323 N 
HETATM    3  C6  UNK     1      19.955  -4.361  36.278  1.00  0.00     0.262 C 
HETATM    4  H2  UNK     1      19.863  -3.995  38.317  1.00  0.00     0.169 HD
ENDROOT
BRANCH   3   5
HETATM    5  C2  UNK     1      19.611  -2.945  36.098  1.00  0.00     0.108 A 
HETATM    6  C10 UNK     1      20.053  -2.172  34.917  1.00  0.00     0.304 A 
HETATM    7  O1  UNK     1      19.662  -0.837  34.860  1.00  0.00    -0.274 OA
HETATM    8  O5  UNK     1      20.728  -2.679  34.026  1.00  0.00    -0.259 OA
HETATM    9  C3  UNK     1      18.885  -0.247  35.876  1.00  0.00     0.089 A 
HETATM   10  C1  UNK     1      18.481  -0.991  36.979  1.00  0.00    -0.001 A 
HETATM   11  C13 UNK     1      18.543   1.096  35.731  1.00  0.00     0.038 A 
HETATM   12  C4  UNK     1      18.873  -2.389  37.067  1.00  0.00     0.037 A 
HETATM   13  C7  UNK     1      17.712  -0.370  37.966  1.00  0.00     0.014 A 
HETATM   14  C15 UNK     1      17.361   0.976  37.835  1.00  0.00     0.001 A 
HETATM   15  C16 UNK     1      17.775   1.708  36.719  1.00  0.00     0.003 A 
ENDBRANCH   3   5
BRANCH   2  16
HETATM   16  C5  UNK     1      20.364  -5.980  38.160  1.00  0.00     0.040 A 
HETATM   17  C8  UNK     1      21.609  -6.187  38.727  1.00  0.00     0.066 A 
HETATM   18  C12 UNK     1      21.915  -7.440  39.261  1.00  0.00     0.073 A 
HETATM   19  C14 UNK     1      20.970  -8.465  39.219  1.00  0.00     0.073 A 
HETATM   20  C11 UNK     1      19.720  -8.238  38.645  1.00  0.00     0.073 A 
HETATM   21  C9  UNK     1      19.415  -6.987  38.110  1.00  0.00     0.066 A 
BRANCH  18  22
HETATM   22  O3  UNK     1      23.136  -7.661  39.822  1.00  0.00    -0.356 OA
HETATM   23  C18 UNK     1      24.239  -7.826  38.932  1.00  0.00     0.210 C 
ENDBRANCH  18  22
BRANCH  20  24
HETATM   24  O2  UNK     1      18.799  -9.240  38.604  1.00  0.00    -0.356 OA
HETATM   25  C17 UNK     1      19.295 -10.577  38.579  1.00  0.00     0.210 C 
ENDBRANCH  20  24
ENDBRANCH   2  16
TORSDOF 4
ENDMDL
MODEL 8
REMARK VINA RESULT:      -8.5      8.635     12.766
REMARK  4 active torsions:
REMARK  status: ('A' for Active; 'I' for Inactive)
REMARK    1  A    between atoms: C11_17  and  O2_2 
REMARK    2  A    between atoms: C12_18  and  O3_3 
REMARK    3  A    between atoms: C5_11  and  N1_6 
REMARK       I    between atoms: C6_12  and  N1_6 
REMARK    4  A    between atoms: C2_8  and  C6_12 
ROOT
HETATM    1  O4  UNK     1      20.130  -5.162  35.271  1.00  0.00    -0.267 OA
HETATM    2  N1  UNK     1      20.062  -4.784  37.594  1.00  0.00    -0.323 N 
HETATM    3  C6  UNK     1      19.967  -4.440  36.252  1.00  0.00     0.262 C 
HETATM    4  H2  UNK     1      19.874  -4.067  38.290  1.00  0.00     0.169 HD
ENDROOT
BRANCH   3   5
HETATM    5  C2  UNK     1      19.628  -3.024  36.067  1.00  0.00     0.108 A 
HETATM    6  C10 UNK     1      20.064  -2.260  34.878  1.00  0.00     0.304 A 
HETATM    7  O1  UNK     1      19.679  -0.923  34.817  1.00  0.00    -0.274 OA
HETATM    8  O5  UNK     1      20.731  -2.774  33.986  1.00  0.00    -0.259 OA
HETATM    9  C3  UNK     1      18.913  -0.324  35.835  1.00  0.00     0.089 A 
HETATM   10  C1  UNK     1      18.513  -1.060  36.946  1.00  0.00    -0.001 A 
HETATM   11  C13 UNK     1      18.575   1.020  35.686  1.00  0.00     0.038 A 
HETATM   12  C4  UNK     1      18.900  -2.459  37.038  1.00  0.00     0.037 A 
HETATM   13  C7  UNK     1      17.754  -0.430  37.935  1.00  0.00     0.014 A 
HETATM   14  C15 UNK     1      17.408   0.917  37.799  1.00  0.00     0.001 A 
HETATM   15  C16 UNK     1      17.817   1.641  36.676  1.00  0.00     0.003 A 
ENDBRANCH   3   5
BRANCH   2  16
HETATM   16  C5  UNK     1      20.368  -6.054  38.140  1.00  0.00     0.040 A 
HETATM   17  C8  UNK     1      19.420  -7.061  38.084  1.00  0.00     0.066 A 
HETATM   18  C12 UNK     1      19.723  -8.313  38.620  1.00  0.00     0.073 A 
HETATM   19  C14 UNK     1      20.969  -8.538  39.205  1.00  0.00     0.073 A 
HETATM   20  C11 UNK     1      21.913  -7.512  39.252  1.00  0.00     0.073 A 
HETATM   21  C9  UNK     1      21.609  -6.261  38.716  1.00  0.00     0.066 A 
BRANCH  18  22
HETATM   22  O3  UNK     1      18.801  -9.315  38.574  1.00  0.00    -0.356 OA
HETATM   23  C18 UNK     1      19.296 -10.653  38.576  1.00  0.00     0.210 C 
ENDBRANCH  18  22
BRANCH  20  24
HETATM   24  O2  UNK     1      23.129  -7.733  39.823  1.00  0.00    -0.356 OA
HETATM   25  C17 UNK     1      24.245  -7.863  38.944  1.00  0.00     0.210 C 
ENDBRANCH  20  24
ENDBRANCH   2  16
TORSDOF 4
ENDMDL
MODEL 9
REMARK VINA RESULT:      -8.5      8.042     10.404
REMARK  4 active torsions:
REMARK  status: ('A' for Active; 'I' for Inactive)
REMARK    1  A    between atoms: C11_17  and  O2_2 
REMARK    2  A    between atoms: C12_18  and  O3_3 
REMARK    3  A    between atoms: C5_11  and  N1_6 
REMARK       I    between atoms: C6_12  and  N1_6 
REMARK    4  A    between atoms: C2_8  and  C6_12 
ROOT
HETATM    1  O4  UNK     1      21.346  -4.029  37.181  1.00  0.00    -0.267 OA
HETATM    2  N1  UNK     1      19.160  -3.933  36.310  1.00  0.00    -0.323 N 
HETATM    3  C6  UNK     1      20.308  -4.555  36.785  1.00  0.00     0.262 C 
HETATM    4  H2  UNK     1      18.373  -4.517  36.040  1.00  0.00     0.169 HD
ENDROOT
BRANCH   3   5
HETATM    5  C2  UNK     1      20.186  -6.017  36.782  1.00  0.00     0.108 A 
HETATM    6  C10 UNK     1      20.232  -6.807  35.532  1.00  0.00     0.304 A 
HETATM    7  O1  UNK     1      20.106  -8.188  35.658  1.00  0.00    -0.274 OA
HETATM    8  O5  UNK     1      20.375  -6.277  34.435  1.00  0.00    -0.259 OA
HETATM    9  C3  UNK     1      19.942  -8.807  36.913  1.00  0.00     0.089 A 
HETATM   10  C1  UNK     1      19.902  -8.045  38.077  1.00  0.00    -0.001 A 
HETATM   11  C13 UNK     1      19.824 -10.194  36.940  1.00  0.00     0.038 A 
HETATM   12  C4  UNK     1      20.031  -6.600  37.977  1.00  0.00     0.037 A 
HETATM   13  C7  UNK     1      19.737  -8.696  39.302  1.00  0.00     0.014 A 
HETATM   14  C15 UNK     1      19.618 -10.087  39.345  1.00  0.00     0.001 A 
HETATM   15  C16 UNK     1      19.662 -10.836  38.166  1.00  0.00     0.003 A 
ENDBRANCH   3   5
BRANCH   2  16
HETATM   16  C5  UNK     1      18.924  -2.544  36.176  1.00  0.00     0.040 A 
HETATM   17  C8  UNK     1      19.067  -1.951  34.933  1.00  0.00     0.066 A 
HETATM   18  C12 UNK     1      18.833  -0.581  34.800  1.00  0.00     0.073 A 
HETATM   19  C14 UNK     1      18.459   0.173  35.913  1.00  0.00     0.073 A 
HETATM   20  C11 UNK     1      18.319  -0.441  37.157  1.00  0.00     0.073 A 
HETATM   21  C9  UNK     1      18.554  -1.809  37.289  1.00  0.00     0.066 A 
BRANCH  18  22
HETATM   22  O3  UNK     1      18.970   0.018  33.585  1.00  0.00    -0.356 OA
HETATM   23  C18 UNK     1      18.906  -0.823  32.435  1.00  0.00     0.210 C 
ENDBRANCH  18  22
BRANCH  20  24
HETATM   24  O2  UNK     1      17.955   0.296  38.242  1.00  0.00    -0.356 OA
HETATM   25  C17 UNK     1      17.311   1.544  37.992  1.00  0.00     0.210 C 
ENDBRANCH  20  24
ENDBRANCH   2  16
TORSDOF 4
ENDMDL
MODEL 10
REMARK VINA RESULT:      -8.3      7.937     10.320
REMARK  4 active torsions:
REMARK  status: ('A' for Active; 'I' for Inactive)
REMARK    1  A    between atoms: C11_17  and  O2_2 
REMARK    2  A    between atoms: C12_18  and  O3_3 
REMARK    3  A    between atoms: C5_11  and  N1_6 
REMARK       I    between atoms: C6_12  and  N1_6 
REMARK    4  A    between atoms: C2_8  and  C6_12 
ROOT
HETATM    1  O4  UNK     1      21.156  -3.761  37.519  1.00  0.00    -0.267 OA
HETATM    2  N1  UNK     1      19.161  -3.722  36.268  1.00  0.00    -0.323 N 
HETATM    3  C6  UNK     1      20.223  -4.313  36.941  1.00  0.00     0.262 C 
HETATM    4  H2  UNK     1      18.453  -4.326  35.859  1.00  0.00     0.169 HD
ENDROOT
BRANCH   3   5
HETATM    5  C2  UNK     1      20.147  -5.779  36.912  1.00  0.00     0.108 A 
HETATM    6  C10 UNK     1      20.188  -6.544  35.647  1.00  0.00     0.304 A 
HETATM    7  O1  UNK     1      20.109  -7.930  35.750  1.00  0.00    -0.274 OA
HETATM    8  O5  UNK     1      20.289  -5.989  34.557  1.00  0.00    -0.259 OA
HETATM    9  C3  UNK     1      19.994  -8.577  36.996  1.00  0.00     0.089 A 
HETATM   10  C1  UNK     1      19.957  -7.838  38.175  1.00  0.00    -0.001 A 
HETATM   11  C13 UNK     1      19.921  -9.967  37.000  1.00  0.00     0.038 A 
HETATM   12  C4  UNK     1      20.038  -6.388  38.099  1.00  0.00     0.037 A 
HETATM   13  C7  UNK     1      19.842  -8.516  39.391  1.00  0.00     0.014 A 
HETATM   14  C15 UNK     1      19.768  -9.911  39.410  1.00  0.00     0.001 A 
HETATM   15  C16 UNK     1      19.808 -10.636  38.217  1.00  0.00     0.003 A 
ENDBRANCH   3   5
BRANCH   2  16
HETATM   16  C5  UNK     1      18.912  -2.339  36.096  1.00  0.00     0.040 A 
HETATM   17  C8  UNK     1      18.544  -1.576  37.191  1.00  0.00     0.066 A 
HETATM   18  C12 UNK     1      18.300  -0.213  37.021  1.00  0.00     0.073 A 
HETATM   19  C14 UNK     1      18.427   0.366  35.758  1.00  0.00     0.073 A 
HETATM   20  C11 UNK     1      18.799  -0.417  34.666  1.00  0.00     0.073 A 
HETATM   21  C9  UNK     1      19.043  -1.780  34.836  1.00  0.00     0.066 A 
BRANCH  18  22
HETATM   22  O3  UNK     1      17.936   0.552  38.087  1.00  0.00    -0.356 OA
HETATM   23  C18 UNK     1      16.924   1.533  37.868  1.00  0.00     0.210 C 
ENDBRANCH  18  22
BRANCH  20  24
HETATM   24  O2  UNK     1      18.923   0.149  33.434  1.00  0.00    -0.356 OA
HETATM   25  C17 UNK     1      19.061  -0.737  32.324  1.00  0.00     0.210 C 
ENDBRANCH  20  24
ENDBRANCH   2  16
TORSDOF 4
ENDMDL
