MODEL 1
REMARK VINA RESULT:      -8.1      0.000      0.000
REMARK  3 active torsions:
REMARK  status: ('A' for Active; 'I' for Inactive)
REMARK    1  A    between atoms: C4_12  and  N1_6 
REMARK    2  A    between atoms: C7_15  and  N2_7 
REMARK    3  A    between atoms: C1_9  and  C5_13 
ROOT
HETATM    1  N3  UNK     1      29.478  -3.583  39.996  1.00  0.00    -0.191 NA
HETATM    2  C5  UNK     1      31.251  -5.932  35.499  1.00  0.00    -0.043 A 
HETATM    3  C10 UNK     1      30.071  -6.374  36.088  1.00  0.00     0.010 A 
HETATM    4  C11 UNK     1      31.976  -4.888  36.062  1.00  0.00     0.010 A 
HETATM    5  C14 UNK     1      29.612  -5.764  37.255  1.00  0.00     0.023 A 
HETATM    6  C15 UNK     1      31.516  -4.277  37.228  1.00  0.00     0.023 A 
HETATM    7  C17 UNK     1      30.334  -4.715  37.825  1.00  0.00     0.044 A 
HETATM    8  C19 UNK     1      29.862  -4.091  39.021  1.00  0.00     0.099 C 
ENDROOT
BRANCH   2   9
HETATM    9  C1  UNK     1      31.747  -6.590  34.246  1.00  0.00     0.121 C 
HETATM   10  C2  UNK     1      30.673  -6.557  33.166  1.00  0.00     0.067 A 
HETATM   11  C3  UNK     1      30.110  -7.694  32.719  1.00  0.00     0.104 A 
HETATM   12  C8  UNK     1      30.290  -5.241  32.593  1.00  0.00     0.298 A 
HETATM   13  C6  UNK     1      29.060  -7.666  31.703  1.00  0.00     0.033 A 
HETATM   14  O1  UNK     1      30.469  -8.956  33.176  1.00  0.00    -0.290 OA
HETATM   15  C12 UNK     1      28.423  -8.813  31.215  1.00  0.00     0.017 A 
HETATM   16  C9  UNK     1      28.669  -6.431  31.193  1.00  0.00     0.092 A 
HETATM   17  C16 UNK     1      27.422  -8.708  30.243  1.00  0.00     0.001 A 
HETATM   18  C18 UNK     1      27.048  -7.459  29.749  1.00  0.00     0.003 A 
HETATM   19  C13 UNK     1      27.674  -6.310  30.224  1.00  0.00     0.038 A 
HETATM   20  O2  UNK     1      29.280  -5.243  31.638  1.00  0.00    -0.274 OA
HETATM   21  C7  UNK     1      31.569  -9.109  34.029  1.00  0.00     0.172 C 
HETATM   22  C4  UNK     1      32.161  -8.009  34.521  1.00  0.00     0.144 C 
HETATM   23  O3  UNK     1      30.832  -4.196  32.938  1.00  0.00    -0.259 OA
BRANCH  21  24
HETATM   24  N2  UNK     1      31.914 -10.409  34.259  1.00  0.00    -0.378 N 
HETATM   25  H10 UNK     1      32.860 -10.707  34.065  1.00  0.00     0.158 HD
HETATM   26  H9  UNK     1      31.235 -11.070  34.616  1.00  0.00     0.158 HD
ENDBRANCH  21  24
BRANCH  22  27
HETATM   27  N1  UNK     1      33.317  -8.174  35.339  1.00  0.00    -0.114 N 
HETATM   28  O4  UNK     1      33.140  -8.615  36.482  1.00  0.00    -0.532 OA
HETATM   29  O5  UNK     1      34.407  -7.865  34.844  1.00  0.00    -0.532 OA
ENDBRANCH  22  27
ENDBRANCH   2   9
TORSDOF 3
ENDMDL
MODEL 2
REMARK VINA RESULT:      -7.9      1.308      1.619
REMARK  3 active torsions:
REMARK  status: ('A' for Active; 'I' for Inactive)
REMARK    1  A    between atoms: C4_12  and  N1_6 
REMARK    2  A    between atoms: C7_15  and  N2_7 
REMARK    3  A    between atoms: C1_9  and  C5_13 
ROOT
HETATM    1  N3  UNK     1      29.400  -3.866  39.761  1.00  0.00    -0.191 NA
HETATM    2  C5  UNK     1      31.824  -5.475  35.243  1.00  0.00    -0.043 A 
HETATM    3  C10 UNK     1      30.891  -6.304  35.857  1.00  0.00     0.010 A 
HETATM    4  C11 UNK     1      32.135  -4.233  35.785  1.00  0.00     0.010 A 
HETATM    5  C14 UNK     1      30.263  -5.886  37.029  1.00  0.00     0.023 A 
HETATM    6  C15 UNK     1      31.505  -3.815  36.958  1.00  0.00     0.023 A 
HETATM    7  C17 UNK     1      30.570  -4.641  37.580  1.00  0.00     0.044 A 
HETATM    8  C19 UNK     1      29.924  -4.214  38.782  1.00  0.00     0.099 C 
ENDROOT
BRANCH   2   9
HETATM    9  C1  UNK     1      32.502  -5.926  33.983  1.00  0.00     0.121 C 
HETATM   10  C2  UNK     1      31.476  -6.437  32.979  1.00  0.00     0.067 A 
HETATM   11  C3  UNK     1      31.455  -7.731  32.614  1.00  0.00     0.104 A 
HETATM   12  C8  UNK     1      30.524  -5.463  32.386  1.00  0.00     0.298 A 
HETATM   13  C6  UNK     1      30.456  -8.232  31.672  1.00  0.00     0.033 A 
HETATM   14  O1  UNK     1      32.356  -8.676  33.092  1.00  0.00    -0.290 OA
HETATM   15  C12 UNK     1      30.371  -9.571  31.272  1.00  0.00     0.017 A 
HETATM   16  C9  UNK     1      29.536  -7.330  31.145  1.00  0.00     0.092 A 
HETATM   17  C16 UNK     1      29.384  -9.979  30.368  1.00  0.00     0.001 A 
HETATM   18  C18 UNK     1      28.473  -9.056  29.855  1.00  0.00     0.003 A 
HETATM   19  C13 UNK     1      28.546  -7.721  30.244  1.00  0.00     0.038 A 
HETATM   20  O2  UNK     1      29.577  -5.969  31.504  1.00  0.00    -0.274 OA
HETATM   21  C7  UNK     1      33.448  -8.274  33.871  1.00  0.00     0.172 C 
HETATM   22  C4  UNK     1      33.514  -6.998  34.280  1.00  0.00     0.144 C 
HETATM   23  O3  UNK     1      30.563  -4.267  32.654  1.00  0.00    -0.259 OA
BRANCH  21  24
HETATM   24  N2  UNK     1      34.343  -9.273  34.125  1.00  0.00    -0.378 N 
HETATM   25  H10 UNK     1      35.151  -9.371  33.525  1.00  0.00     0.158 HD
HETATM   26  H9  UNK     1      34.202  -9.911  34.898  1.00  0.00     0.158 HD
ENDBRANCH  21  24
BRANCH  22  27
HETATM   27  N1  UNK     1      34.659  -6.586  35.023  1.00  0.00    -0.114 N 
HETATM   28  O4  UNK     1      35.419  -5.772  34.483  1.00  0.00    -0.532 OA
HETATM   29  O5  UNK     1      34.805  -7.074  36.150  1.00  0.00    -0.532 OA
ENDBRANCH  22  27
ENDBRANCH   2   9
TORSDOF 3
ENDMDL
MODEL 3
REMARK VINA RESULT:      -7.9     31.077     33.305
REMARK  3 active torsions:
REMARK  status: ('A' for Active; 'I' for Inactive)
REMARK    1  A    between atoms: C4_12  and  N1_6 
REMARK    2  A    between atoms: C7_15  and  N2_7 
REMARK    3  A    between atoms: C1_9  and  C5_13 
ROOT
HETATM    1  N3  UNK     1       9.744   6.139   5.508  1.00  0.00    -0.191 NA
HETATM    2  C5  UNK     1      13.319   6.886   9.450  1.00  0.00    -0.043 A 
HETATM    3  C10 UNK     1      12.211   6.074   9.670  1.00  0.00     0.010 A 
HETATM    4  C11 UNK     1      13.511   7.507   8.221  1.00  0.00     0.010 A 
HETATM    5  C14 UNK     1      11.284   5.880   8.646  1.00  0.00     0.023 A 
HETATM    6  C15 UNK     1      12.583   7.312   7.198  1.00  0.00     0.023 A 
HETATM    7  C17 UNK     1      11.470   6.500   7.410  1.00  0.00     0.044 A 
HETATM    8  C19 UNK     1      10.519   6.300   6.362  1.00  0.00     0.099 C 
ENDROOT
BRANCH   2   9
HETATM    9  C1  UNK     1      14.315   7.097  10.552  1.00  0.00     0.121 C 
HETATM   10  C2  UNK     1      14.483   8.583  10.840  1.00  0.00     0.067 A 
HETATM   11  C3  UNK     1      15.653   9.204  10.599  1.00  0.00     0.104 A 
HETATM   12  C8  UNK     1      13.336   9.323  11.428  1.00  0.00     0.298 A 
HETATM   13  C6  UNK     1      15.812  10.635  10.848  1.00  0.00     0.033 A 
HETATM   14  O1  UNK     1      16.776   8.552  10.104  1.00  0.00    -0.290 OA
HETATM   15  C12 UNK     1      16.996  11.338  10.597  1.00  0.00     0.017 A 
HETATM   16  C9  UNK     1      14.726  11.340  11.361  1.00  0.00     0.092 A 
HETATM   17  C16 UNK     1      17.073  12.711  10.857  1.00  0.00     0.001 A 
HETATM   18  C18 UNK     1      15.971  13.394  11.369  1.00  0.00     0.003 A 
HETATM   19  C13 UNK     1      14.787  12.708  11.625  1.00  0.00     0.038 A 
HETATM   20  O2  UNK     1      13.511  10.685  11.641  1.00  0.00    -0.274 OA
HETATM   21  C7  UNK     1      16.783   7.158   9.982  1.00  0.00     0.172 C 
HETATM   22  C4  UNK     1      15.640   6.486  10.193  1.00  0.00     0.144 C 
HETATM   23  O3  UNK     1      12.281   8.768  11.715  1.00  0.00    -0.259 OA
BRANCH  21  24
HETATM   24  N2  UNK     1      18.001   6.638   9.651  1.00  0.00    -0.378 N 
HETATM   25  H10 UNK     1      18.263   5.733  10.018  1.00  0.00     0.158 HD
HETATM   26  H9  UNK     1      18.636   7.148   9.051  1.00  0.00     0.158 HD
ENDBRANCH  21  24
BRANCH  22  27
HETATM   27  N1  UNK     1      15.672   5.062  10.124  1.00  0.00    -0.114 N 
HETATM   28  O4  UNK     1      16.451   4.554   9.307  1.00  0.00    -0.532 OA
HETATM   29  O5  UNK     1      14.920   4.444  10.887  1.00  0.00    -0.532 OA
ENDBRANCH  22  27
ENDBRANCH   2   9
TORSDOF 3
ENDMDL
MODEL 4
REMARK VINA RESULT:      -7.8      2.312      3.466
REMARK  3 active torsions:
REMARK  status: ('A' for Active; 'I' for Inactive)
REMARK    1  A    between atoms: C4_12  and  N1_6 
REMARK    2  A    between atoms: C7_15  and  N2_7 
REMARK    3  A    between atoms: C1_9  and  C5_13 
ROOT
HETATM    1  N3  UNK     1      29.418  -3.612  40.040  1.00  0.00    -0.191 NA
HETATM    2  C5  UNK     1      31.982  -5.534  35.726  1.00  0.00    -0.043 A 
HETATM    3  C10 UNK     1      31.817  -4.160  35.874  1.00  0.00     0.010 A 
HETATM    4  C11 UNK     1      31.490  -6.414  36.683  1.00  0.00     0.010 A 
HETATM    5  C14 UNK     1      31.152  -3.662  36.993  1.00  0.00     0.023 A 
HETATM    6  C15 UNK     1      30.826  -5.915  37.803  1.00  0.00     0.023 A 
HETATM    7  C17 UNK     1      30.656  -4.540  37.958  1.00  0.00     0.044 A 
HETATM    8  C19 UNK     1      29.974  -4.028  39.105  1.00  0.00     0.099 C 
ENDROOT
BRANCH   2   9
HETATM    9  C1  UNK     1      32.695  -6.070  34.519  1.00  0.00     0.121 C 
HETATM   10  C2  UNK     1      31.997  -7.320  34.001  1.00  0.00     0.067 A 
HETATM   11  C3  UNK     1      32.608  -8.518  34.040  1.00  0.00     0.104 A 
HETATM   12  C8  UNK     1      30.638  -7.178  33.415  1.00  0.00     0.298 A 
HETATM   13  C6  UNK     1      31.933  -9.725  33.569  1.00  0.00     0.033 A 
HETATM   14  O1  UNK     1      33.898  -8.702  34.523  1.00  0.00    -0.290 OA
HETATM   15  C12 UNK     1      32.509 -11.000  33.605  1.00  0.00     0.017 A 
HETATM   16  C9  UNK     1      30.644  -9.602  33.057  1.00  0.00     0.092 A 
HETATM   17  C16 UNK     1      31.799 -12.112  33.139  1.00  0.00     0.001 A 
HETATM   18  C18 UNK     1      30.509 -11.963  32.632  1.00  0.00     0.003 A 
HETATM   19  C13 UNK     1      29.923 -10.700  32.589  1.00  0.00     0.038 A 
HETATM   20  O2  UNK     1      30.015  -8.344  32.987  1.00  0.00    -0.274 OA
HETATM   21  C7  UNK     1      34.691  -7.596  34.850  1.00  0.00     0.172 C 
HETATM   22  C4  UNK     1      34.130  -6.376  34.844  1.00  0.00     0.144 C 
HETATM   23  O3  UNK     1      30.084  -6.089  33.310  1.00  0.00    -0.259 OA
BRANCH  21  24
HETATM   24  N2  UNK     1      35.986  -7.911  35.144  1.00  0.00    -0.378 N 
HETATM   25  H10 UNK     1      36.241  -8.884  35.252  1.00  0.00     0.158 HD
HETATM   26  H9  UNK     1      36.683  -7.186  35.257  1.00  0.00     0.158 HD
ENDBRANCH  21  24
BRANCH  22  27
HETATM   27  N1  UNK     1      34.961  -5.251  35.120  1.00  0.00    -0.114 N 
HETATM   28  O4  UNK     1      35.563  -5.246  36.202  1.00  0.00    -0.532 OA
HETATM   29  O5  UNK     1      35.016  -4.366  34.258  1.00  0.00    -0.532 OA
ENDBRANCH  22  27
ENDBRANCH   2   9
TORSDOF 3
ENDMDL
MODEL 5
REMARK VINA RESULT:      -7.7     31.995     34.054
REMARK  3 active torsions:
REMARK  status: ('A' for Active; 'I' for Inactive)
REMARK    1  A    between atoms: C4_12  and  N1_6 
REMARK    2  A    between atoms: C7_15  and  N2_7 
REMARK    3  A    between atoms: C1_9  and  C5_13 
ROOT
HETATM    1  N3  UNK     1      18.723  12.507   7.108  1.00  0.00    -0.191 NA
HETATM    2  C5  UNK     1      15.274   9.261   9.648  1.00  0.00    -0.043 A 
HETATM    3  C10 UNK     1      14.797  10.189   8.727  1.00  0.00     0.010 A 
HETATM    4  C11 UNK     1      16.634   9.165   9.917  1.00  0.00     0.010 A 
HETATM    5  C14 UNK     1      15.692  11.031   8.069  1.00  0.00     0.023 A 
HETATM    6  C15 UNK     1      17.530  10.007   9.257  1.00  0.00     0.023 A 
HETATM    7  C17 UNK     1      17.059  10.939   8.334  1.00  0.00     0.044 A 
HETATM    8  C19 UNK     1      17.976  11.803   7.658  1.00  0.00     0.099 C 
ENDROOT
BRANCH   2   9
HETATM    9  C1  UNK     1      14.310   8.358  10.359  1.00  0.00     0.121 C 
HETATM   10  C2  UNK     1      13.377   7.684   9.360  1.00  0.00     0.067 A 
HETATM   11  C3  UNK     1      12.059   7.951   9.361  1.00  0.00     0.104 A 
HETATM   12  C8  UNK     1      13.954   6.696   8.412  1.00  0.00     0.298 A 
HETATM   13  C6  UNK     1      11.164   7.327   8.388  1.00  0.00     0.033 A 
HETATM   14  O1  UNK     1      11.454   8.821  10.260  1.00  0.00    -0.290 OA
HETATM   15  C12 UNK     1       9.788   7.582   8.325  1.00  0.00     0.017 A 
HETATM   16  C9  UNK     1      11.707   6.432   7.471  1.00  0.00     0.092 A 
HETATM   17  C16 UNK     1       8.994   6.950   7.363  1.00  0.00     0.001 A 
HETATM   18  C18 UNK     1       9.563   6.059   6.455  1.00  0.00     0.003 A 
HETATM   19  C13 UNK     1      10.929   5.795   6.505  1.00  0.00     0.038 A 
HETATM   20  O2  UNK     1      13.082   6.129   7.490  1.00  0.00    -0.274 OA
HETATM   21  C7  UNK     1      12.189   9.347  11.330  1.00  0.00     0.172 C 
HETATM   22  C4  UNK     1      13.512   9.128  11.374  1.00  0.00     0.144 C 
HETATM   23  O3  UNK     1      15.141   6.388   8.432  1.00  0.00    -0.259 OA
BRANCH  21  24
HETATM   24  N2  UNK     1      11.434  10.043  12.229  1.00  0.00    -0.378 N 
HETATM   25  H10 UNK     1      11.593  11.036  12.338  1.00  0.00     0.158 HD
HETATM   26  H9  UNK     1      10.727   9.576  12.784  1.00  0.00     0.158 HD
ENDBRANCH  21  24
BRANCH  22  27
HETATM   27  N1  UNK     1      14.240   9.617  12.498  1.00  0.00    -0.114 N 
HETATM   28  O4  UNK     1      14.904   8.794  13.142  1.00  0.00    -0.532 OA
HETATM   29  O5  UNK     1      14.151  10.826  12.744  1.00  0.00    -0.532 OA
ENDBRANCH  22  27
ENDBRANCH   2   9
TORSDOF 3
ENDMDL
MODEL 6
REMARK VINA RESULT:      -7.7      3.690      6.790
REMARK  3 active torsions:
REMARK  status: ('A' for Active; 'I' for Inactive)
REMARK    1  A    between atoms: C4_12  and  N1_6 
REMARK    2  A    between atoms: C7_15  and  N2_7 
REMARK    3  A    between atoms: C1_9  and  C5_13 
ROOT
HETATM    1  N3  UNK     1      25.158  -6.173  29.863  1.00  0.00    -0.191 NA
HETATM    2  C5  UNK     1      29.972  -8.323  30.904  1.00  0.00    -0.043 A 
HETATM    3  C10 UNK     1      28.869  -9.154  30.735  1.00  0.00     0.010 A 
HETATM    4  C11 UNK     1      29.842  -6.943  30.806  1.00  0.00     0.010 A 
HETATM    5  C14 UNK     1      27.620  -8.595  30.465  1.00  0.00     0.023 A 
HETATM    6  C15 UNK     1      28.593  -6.385  30.535  1.00  0.00     0.023 A 
HETATM    7  C17 UNK     1      27.482  -7.210  30.364  1.00  0.00     0.044 A 
HETATM    8  C19 UNK     1      26.201  -6.639  30.087  1.00  0.00     0.099 C 
ENDROOT
BRANCH   2   9
HETATM    9  C1  UNK     1      31.315  -8.924  31.198  1.00  0.00     0.121 C 
HETATM   10  C2  UNK     1      31.906  -8.313  32.461  1.00  0.00     0.067 A 
HETATM   11  C3  UNK     1      33.021  -7.562  32.407  1.00  0.00     0.104 A 
HETATM   12  C8  UNK     1      31.243  -8.597  33.760  1.00  0.00     0.298 A 
HETATM   13  C6  UNK     1      33.577  -6.951  33.612  1.00  0.00     0.033 A 
HETATM   14  O1  UNK     1      33.716  -7.309  31.231  1.00  0.00    -0.290 OA
HETATM   15  C12 UNK     1      34.721  -6.143  33.615  1.00  0.00     0.017 A 
HETATM   16  C9  UNK     1      32.935  -7.182  34.826  1.00  0.00     0.092 A 
HETATM   17  C16 UNK     1      35.194  -5.588  34.809  1.00  0.00     0.001 A 
HETATM   18  C18 UNK     1      34.531  -5.834  36.011  1.00  0.00     0.003 A 
HETATM   19  C13 UNK     1      33.393  -6.636  36.024  1.00  0.00     0.038 A 
HETATM   20  O2  UNK     1      31.785  -7.993  34.887  1.00  0.00    -0.274 OA
HETATM   21  C7  UNK     1      33.364  -7.973  30.049  1.00  0.00     0.172 C 
HETATM   22  C4  UNK     1      32.251  -8.723  30.039  1.00  0.00     0.144 C 
HETATM   23  O3  UNK     1      30.262  -9.329  33.845  1.00  0.00    -0.259 OA
BRANCH  21  24
HETATM   24  N2  UNK     1      34.233  -7.764  29.017  1.00  0.00    -0.378 N 
HETATM   25  H10 UNK     1      33.927  -7.959  28.073  1.00  0.00     0.158 HD
HETATM   26  H9  UNK     1      35.170  -7.424  29.190  1.00  0.00     0.158 HD
ENDBRANCH  21  24
BRANCH  22  27
HETATM   27  N1  UNK     1      31.933  -9.442  28.849  1.00  0.00    -0.114 N 
HETATM   28  O4  UNK     1      31.806  -8.783  27.809  1.00  0.00    -0.532 OA
HETATM   29  O5  UNK     1      31.810 -10.669  28.948  1.00  0.00    -0.532 OA
ENDBRANCH  22  27
ENDBRANCH   2   9
TORSDOF 3
ENDMDL
MODEL 7
REMARK VINA RESULT:      -7.7      3.042      5.637
REMARK  3 active torsions:
REMARK  status: ('A' for Active; 'I' for Inactive)
REMARK    1  A    between atoms: C4_12  and  N1_6 
REMARK    2  A    between atoms: C7_15  and  N2_7 
REMARK    3  A    between atoms: C1_9  and  C5_13 
ROOT
HETATM    1  N3  UNK     1      37.053  -6.958  34.946  1.00  0.00    -0.191 NA
HETATM    2  C5  UNK     1      31.756  -6.076  34.726  1.00  0.00    -0.043 A 
HETATM    3  C10 UNK     1      32.231  -7.366  34.936  1.00  0.00     0.010 A 
HETATM    4  C11 UNK     1      32.638  -5.011  34.573  1.00  0.00     0.010 A 
HETATM    5  C14 UNK     1      33.606  -7.594  34.993  1.00  0.00     0.023 A 
HETATM    6  C15 UNK     1      34.012  -5.240  34.631  1.00  0.00     0.023 A 
HETATM    7  C17 UNK     1      34.497  -6.531  34.841  1.00  0.00     0.044 A 
HETATM    8  C19 UNK     1      35.905  -6.766  34.900  1.00  0.00     0.099 C 
ENDROOT
BRANCH   2   9
HETATM    9  C1  UNK     1      30.278  -5.831  34.661  1.00  0.00     0.121 C 
HETATM   10  C2  UNK     1      29.593  -6.373  35.909  1.00  0.00     0.067 A 
HETATM   11  C3  UNK     1      28.730  -7.402  35.830  1.00  0.00     0.104 A 
HETATM   12  C8  UNK     1      29.874  -5.714  37.211  1.00  0.00     0.298 A 
HETATM   13  C6  UNK     1      28.091  -7.944  37.027  1.00  0.00     0.033 A 
HETATM   14  O1  UNK     1      28.385  -8.020  34.634  1.00  0.00    -0.290 OA
HETATM   15  C12 UNK     1      27.202  -9.025  37.010  1.00  0.00     0.017 A 
HETATM   16  C9  UNK     1      28.384  -7.355  38.255  1.00  0.00     0.092 A 
HETATM   17  C16 UNK     1      26.631  -9.492  38.199  1.00  0.00     0.001 A 
HETATM   18  C18 UNK     1      26.942  -8.886  39.415  1.00  0.00     0.003 A 
HETATM   19  C13 UNK     1      27.823  -7.809  39.448  1.00  0.00     0.038 A 
HETATM   20  O2  UNK     1      29.264  -6.259  38.335  1.00  0.00    -0.274 OA
HETATM   21  C7  UNK     1      28.813  -7.481  33.415  1.00  0.00     0.172 C 
HETATM   22  C4  UNK     1      29.689  -6.463  33.432  1.00  0.00     0.144 C 
HETATM   23  O3  UNK     1      30.608  -4.736  37.302  1.00  0.00    -0.259 OA
BRANCH  21  24
HETATM   24  N2  UNK     1      28.262  -8.082  32.320  1.00  0.00    -0.378 N 
HETATM   25  H10 UNK     1      28.688  -7.936  31.415  1.00  0.00     0.158 HD
HETATM   26  H9  UNK     1      27.438  -8.663  32.408  1.00  0.00     0.158 HD
ENDBRANCH  21  24
BRANCH  22  27
HETATM   27  N1  UNK     1      30.072  -5.883  32.187  1.00  0.00    -0.114 N 
HETATM   28  O4  UNK     1      30.783  -6.568  31.440  1.00  0.00    -0.532 OA
HETATM   29  O5  UNK     1      29.664  -4.740  31.949  1.00  0.00    -0.532 OA
ENDBRANCH  22  27
ENDBRANCH   2   9
TORSDOF 3
ENDMDL
MODEL 8
REMARK VINA RESULT:      -7.6      2.900      6.526
REMARK  3 active torsions:
REMARK  status: ('A' for Active; 'I' for Inactive)
REMARK    1  A    between atoms: C4_12  and  N1_6 
REMARK    2  A    between atoms: C7_15  and  N2_7 
REMARK    3  A    between atoms: C1_9  and  C5_13 
ROOT
HETATM    1  N3  UNK     1      31.489  -8.073  28.930  1.00  0.00    -0.191 NA
HETATM    2  C5  UNK     1      32.370  -7.071  34.136  1.00  0.00    -0.043 A 
HETATM    3  C10 UNK     1      31.125  -6.790  33.581  1.00  0.00     0.010 A 
HETATM    4  C11 UNK     1      33.388  -7.609  33.357  1.00  0.00     0.010 A 
HETATM    5  C14 UNK     1      30.897  -7.051  32.231  1.00  0.00     0.023 A 
HETATM    6  C15 UNK     1      33.159  -7.870  32.006  1.00  0.00     0.023 A 
HETATM    7  C17 UNK     1      31.914  -7.591  31.443  1.00  0.00     0.044 A 
HETATM    8  C19 UNK     1      31.679  -7.857  30.058  1.00  0.00     0.099 C 
ENDROOT
BRANCH   2   9
HETATM    9  C1  UNK     1      32.616  -6.788  35.589  1.00  0.00     0.121 C 
HETATM   10  C2  UNK     1      31.562  -7.471  36.450  1.00  0.00     0.067 A 
HETATM   11  C3  UNK     1      30.683  -6.748  37.167  1.00  0.00     0.104 A 
HETATM   12  C8  UNK     1      31.552  -8.956  36.508  1.00  0.00     0.298 A 
HETATM   13  C6  UNK     1      29.653  -7.399  37.974  1.00  0.00     0.033 A 
HETATM   14  O1  UNK     1      30.680  -5.359  37.197  1.00  0.00    -0.290 OA
HETATM   15  C12 UNK     1      28.698  -6.700  38.723  1.00  0.00     0.017 A 
HETATM   16  C9  UNK     1      29.615  -8.790  37.999  1.00  0.00     0.092 A 
HETATM   17  C16 UNK     1      27.738  -7.392  39.470  1.00  0.00     0.001 A 
HETATM   18  C18 UNK     1      27.722  -8.786  39.477  1.00  0.00     0.003 A 
HETATM   19  C13 UNK     1      28.665  -9.494  38.738  1.00  0.00     0.038 A 
HETATM   20  O2  UNK     1      30.554  -9.548  37.272  1.00  0.00    -0.274 OA
HETATM   21  C7  UNK     1      31.717  -4.641  36.590  1.00  0.00     0.172 C 
HETATM   22  C4  UNK     1      32.615  -5.307  35.847  1.00  0.00     0.144 C 
HETATM   23  O3  UNK     1      32.382  -9.637  35.914  1.00  0.00    -0.259 OA
BRANCH  21  24
HETATM   24  N2  UNK     1      31.683  -3.300  36.843  1.00  0.00    -0.378 N 
HETATM   25  H10 UNK     1      30.887  -2.762  36.526  1.00  0.00     0.158 HD
HETATM   26  H9  UNK     1      32.441  -2.846  37.336  1.00  0.00     0.158 HD
ENDBRANCH  21  24
BRANCH  22  27
HETATM   27  N1  UNK     1      33.701  -4.575  35.284  1.00  0.00    -0.114 N 
HETATM   28  O4  UNK     1      33.421  -3.705  34.448  1.00  0.00    -0.532 OA
HETATM   29  O5  UNK     1      34.838  -4.864  35.673  1.00  0.00    -0.532 OA
ENDBRANCH  22  27
ENDBRANCH   2   9
TORSDOF 3
ENDMDL
MODEL 9
REMARK VINA RESULT:      -7.5      3.283      6.716
REMARK  3 active torsions:
REMARK  status: ('A' for Active; 'I' for Inactive)
REMARK    1  A    between atoms: C4_12  and  N1_6 
REMARK    2  A    between atoms: C7_15  and  N2_7 
REMARK    3  A    between atoms: C1_9  and  C5_13 
ROOT
HETATM    1  N3  UNK     1      31.398 -10.599  29.188  1.00  0.00    -0.191 NA
HETATM    2  C5  UNK     1      33.223  -8.193  33.634  1.00  0.00    -0.043 A 
HETATM    3  C10 UNK     1      32.212  -7.592  32.891  1.00  0.00     0.010 A 
HETATM    4  C11 UNK     1      33.765  -9.411  33.239  1.00  0.00     0.010 A 
HETATM    5  C14 UNK     1      31.739  -8.216  31.737  1.00  0.00     0.023 A 
HETATM    6  C15 UNK     1      33.291 -10.035  32.085  1.00  0.00     0.023 A 
HETATM    7  C17 UNK     1      32.278  -9.439  31.335  1.00  0.00     0.044 A 
HETATM    8  C19 UNK     1      31.792 -10.078  30.152  1.00  0.00     0.099 C 
ENDROOT
BRANCH   2   9
HETATM    9  C1  UNK     1      33.734  -7.519  34.873  1.00  0.00     0.121 C 
HETATM   10  C2  UNK     1      32.589  -7.243  35.839  1.00  0.00     0.067 A 
HETATM   11  C3  UNK     1      32.226  -5.982  36.135  1.00  0.00     0.104 A 
HETATM   12  C8  UNK     1      31.909  -8.400  36.476  1.00  0.00     0.298 A 
HETATM   13  C6  UNK     1      31.111  -5.711  37.040  1.00  0.00     0.033 A 
HETATM   14  O1  UNK     1      32.862  -4.861  35.615  1.00  0.00    -0.290 OA
HETATM   15  C12 UNK     1      30.674  -4.422  37.368  1.00  0.00     0.017 A 
HETATM   16  C9  UNK     1      30.445  -6.794  37.607  1.00  0.00     0.092 A 
HETATM   17  C16 UNK     1      29.595  -4.241  38.241  1.00  0.00     0.001 A 
HETATM   18  C18 UNK     1      28.944  -5.342  38.794  1.00  0.00     0.003 A 
HETATM   19  C13 UNK     1      29.368  -6.629  38.479  1.00  0.00     0.038 A 
HETATM   20  O2  UNK     1      30.844  -8.114  37.322  1.00  0.00    -0.274 OA
HETATM   21  C7  UNK     1      34.037  -5.003  34.866  1.00  0.00     0.172 C 
HETATM   22  C4  UNK     1      34.440  -6.238  34.527  1.00  0.00     0.144 C 
HETATM   23  O3  UNK     1      32.262  -9.557  36.273  1.00  0.00    -0.259 OA
BRANCH  21  24
HETATM   24  N2  UNK     1      34.648  -3.820  34.567  1.00  0.00    -0.378 N 
HETATM   25  H10 UNK     1      35.347  -3.456  35.200  1.00  0.00     0.158 HD
HETATM   26  H9  UNK     1      34.406  -3.310  33.727  1.00  0.00     0.158 HD
ENDBRANCH  21  24
BRANCH  22  27
HETATM   27  N1  UNK     1      35.668  -6.374  33.816  1.00  0.00    -0.114 N 
HETATM   28  O4  UNK     1      35.685  -5.993  32.639  1.00  0.00    -0.532 OA
HETATM   29  O5  UNK     1      36.623  -6.863  34.432  1.00  0.00    -0.532 OA
ENDBRANCH  22  27
ENDBRANCH   2   9
TORSDOF 3
ENDMDL
MODEL 10
REMARK VINA RESULT:      -7.4      2.706      3.538
REMARK  3 active torsions:
REMARK  status: ('A' for Active; 'I' for Inactive)
REMARK    1  A    between atoms: C4_12  and  N1_6 
REMARK    2  A    between atoms: C7_15  and  N2_7 
REMARK    3  A    between atoms: C1_9  and  C5_13 
ROOT
HETATM    1  N3  UNK     1      28.395 -10.330  39.543  1.00  0.00    -0.191 NA
HETATM    2  C5  UNK     1      30.159  -6.813  35.882  1.00  0.00    -0.043 A 
HETATM    3  C10 UNK     1      30.578  -8.138  35.822  1.00  0.00     0.010 A 
HETATM    4  C11 UNK     1      29.288  -6.389  36.880  1.00  0.00     0.010 A 
HETATM    5  C14 UNK     1      30.120  -9.050  36.772  1.00  0.00     0.023 A 
HETATM    6  C15 UNK     1      28.829  -7.302  37.829  1.00  0.00     0.023 A 
HETATM    7  C17 UNK     1      29.245  -8.632  37.776  1.00  0.00     0.044 A 
HETATM    8  C19 UNK     1      28.777  -9.569  38.749  1.00  0.00     0.099 C 
ENDROOT
BRANCH   2   9
HETATM    9  C1  UNK     1      30.654  -5.831  34.862  1.00  0.00     0.121 C 
HETATM   10  C2  UNK     1      30.401  -6.353  33.454  1.00  0.00     0.067 A 
HETATM   11  C3  UNK     1      31.426  -6.666  32.640  1.00  0.00     0.104 A 
HETATM   12  C8  UNK     1      28.996  -6.473  32.987  1.00  0.00     0.298 A 
HETATM   13  C6  UNK     1      31.189  -7.193  31.298  1.00  0.00     0.033 A 
HETATM   14  O1  UNK     1      32.761  -6.521  33.001  1.00  0.00    -0.290 OA
HETATM   15  C12 UNK     1      32.214  -7.556  30.416  1.00  0.00     0.017 A 
HETATM   16  C9  UNK     1      29.873  -7.346  30.873  1.00  0.00     0.092 A 
HETATM   17  C16 UNK     1      31.911  -8.058  29.146  1.00  0.00     0.001 A 
HETATM   18  C18 UNK     1      30.584  -8.202  28.744  1.00  0.00     0.003 A 
HETATM   19  C13 UNK     1      29.554  -7.844  29.610  1.00  0.00     0.038 A 
HETATM   20  O2  UNK     1      28.800  -6.990  31.712  1.00  0.00    -0.274 OA
HETATM   21  C7  UNK     1      33.099  -5.878  34.198  1.00  0.00     0.172 C 
HETATM   22  C4  UNK     1      32.119  -5.557  35.057  1.00  0.00     0.144 C 
HETATM   23  O3  UNK     1      28.046  -6.136  33.686  1.00  0.00    -0.259 OA
BRANCH  21  24
HETATM   24  N2  UNK     1      34.437  -5.650  34.344  1.00  0.00    -0.378 N 
HETATM   25  H10 UNK     1      34.919  -6.053  35.136  1.00  0.00     0.158 HD
HETATM   26  H9  UNK     1      34.942  -5.083  33.674  1.00  0.00     0.158 HD
ENDBRANCH  21  24
BRANCH  22  27
HETATM   27  N1  UNK     1      32.469  -4.850  36.245  1.00  0.00    -0.114 N 
HETATM   28  O4  UNK     1      32.039  -3.695  36.361  1.00  0.00    -0.532 OA
HETATM   29  O5  UNK     1      33.175  -5.445  37.068  1.00  0.00    -0.532 OA
ENDBRANCH  22  27
ENDBRANCH   2   9
TORSDOF 3
ENDMDL
