MODEL 1
REMARK VINA RESULT:      -9.7      0.000      0.000
REMARK  5 active torsions:
REMARK  status: ('A' for Active; 'I' for Inactive)
REMARK    1  A    between atoms: C17_26  and  O2_6 
REMARK    2  A    between atoms: C5_14  and  O2_6 
REMARK    3  A    between atoms: C7_16  and  N1_9 
REMARK       I    between atoms: C8_17  and  N1_9 
REMARK    4  A    between atoms: C3_12  and  C8_17 
REMARK    5  A    between atoms: C12_21  and  C18_27 
ROOT
HETATM    1  O3  UNK     1      21.320  -4.133  37.249  1.00  0.00    -0.267 OA
HETATM    2  N1  UNK     1      19.767  -5.305  35.921  1.00  0.00    -0.323 N 
HETATM    3  C8  UNK     1      20.375  -4.181  36.463  1.00  0.00     0.262 C 
HETATM    4  H4  UNK     1      18.976  -5.173  35.296  1.00  0.00     0.169 HD
ENDROOT
BRANCH   3   5
HETATM    5  C3  UNK     1      19.760  -2.936  35.989  1.00  0.00     0.108 A 
HETATM    6  C9  UNK     1      19.987  -2.419  34.620  1.00  0.00     0.304 A 
HETATM    7  O1  UNK     1      19.347  -1.229  34.288  1.00  0.00    -0.271 OA
HETATM    8  O4  UNK     1      20.703  -3.006  33.816  1.00  0.00    -0.259 OA
HETATM    9  C2  UNK     1      18.523  -0.546  35.204  1.00  0.00     0.123 A 
HETATM   10  C1  UNK     1      18.324  -1.049  36.485  1.00  0.00     0.002 A 
HETATM   11  C5  UNK     1      17.925   0.639  34.779  1.00  0.00     0.103 A 
HETATM   12  C4  UNK     1      18.978  -2.292  36.863  1.00  0.00     0.037 A 
HETATM   13  C6  UNK     1      17.500  -0.343  37.366  1.00  0.00     0.014 A 
HETATM   14  C11 UNK     1      16.894   0.848  36.954  1.00  0.00     0.004 A 
HETATM   15  C10 UNK     1      17.106   1.337  35.664  1.00  0.00     0.040 A 
BRANCH  11  16
HETATM   16  O2  UNK     1      18.130   1.120  33.523  1.00  0.00    -0.349 OA
BRANCH  16  17
HETATM   17  C17 UNK     1      18.180   2.538  33.371  1.00  0.00     0.171 C 
HETATM   18  C19 UNK     1      18.188   2.876  31.895  1.00  0.00     0.034 C 
ENDBRANCH  16  17
ENDBRANCH  11  16
ENDBRANCH   3   5
BRANCH   2  19
HETATM   19  C7  UNK     1      20.099  -6.663  36.154  1.00  0.00     0.035 A 
HETATM   20  C13 UNK     1      19.934  -7.191  37.423  1.00  0.00     0.047 A 
HETATM   21  C12 UNK     1      20.260  -8.527  37.653  1.00  0.00     0.071 A 
HETATM   22  C15 UNK     1      20.746  -9.316  36.609  1.00  0.00     0.049 A 
HETATM   23 Cl1  UNK     1      21.161 -10.973  36.855  1.00  0.00    -0.083 Cl
HETATM   24  C16 UNK     1      20.906  -8.767  35.336  1.00  0.00     0.027 A 
HETATM   25  C14 UNK     1      20.579  -7.431  35.108  1.00  0.00     0.031 A 
BRANCH  21  26
HETATM   26  C18 UNK     1      20.075  -9.078  39.030  1.00  0.00     0.419 C 
HETATM   27  F1  UNK     1      19.225 -10.143  39.081  1.00  0.00    -0.166 F 
HETATM   28  F2  UNK     1      21.234  -9.515  39.602  1.00  0.00    -0.166 F 
HETATM   29  F3  UNK     1      19.562  -8.156  39.896  1.00  0.00    -0.166 F 
ENDBRANCH  21  26
ENDBRANCH   2  19
TORSDOF 5
ENDMDL
MODEL 2
REMARK VINA RESULT:      -9.7      1.671      2.168
REMARK  5 active torsions:
REMARK  status: ('A' for Active; 'I' for Inactive)
REMARK    1  A    between atoms: C17_26  and  O2_6 
REMARK    2  A    between atoms: C5_14  and  O2_6 
REMARK    3  A    between atoms: C7_16  and  N1_9 
REMARK       I    between atoms: C8_17  and  N1_9 
REMARK    4  A    between atoms: C3_12  and  C8_17 
REMARK    5  A    between atoms: C12_21  and  C18_27 
ROOT
HETATM    1  O3  UNK     1      21.233  -4.341  37.420  1.00  0.00    -0.267 OA
HETATM    2  N1  UNK     1      19.374  -5.314  36.349  1.00  0.00    -0.323 N 
HETATM    3  C8  UNK     1      20.206  -4.276  36.746  1.00  0.00     0.262 C 
HETATM    4  H4  UNK     1      18.545  -5.088  35.806  1.00  0.00     0.169 HD
ENDROOT
BRANCH   3   5
HETATM    5  C3  UNK     1      19.736  -2.973  36.259  1.00  0.00     0.108 A 
HETATM    6  C9  UNK     1      20.022  -2.498  34.887  1.00  0.00     0.304 A 
HETATM    7  O1  UNK     1      19.522  -1.246  34.543  1.00  0.00    -0.271 OA
HETATM    8  O4  UNK     1      20.668  -3.169  34.089  1.00  0.00    -0.259 OA
HETATM    9  C2  UNK     1      18.780  -0.466  35.451  1.00  0.00     0.123 A 
HETATM   10  C1  UNK     1      18.523  -0.931  36.736  1.00  0.00     0.002 A 
HETATM   11  C5  UNK     1      18.321   0.776  35.014  1.00  0.00     0.103 A 
HETATM   12  C4  UNK     1      19.031  -2.237  37.127  1.00  0.00     0.037 A 
HETATM   13  C6  UNK     1      17.784  -0.128  37.609  1.00  0.00     0.014 A 
HETATM   14  C11 UNK     1      17.317   1.120  37.185  1.00  0.00     0.004 A 
HETATM   15  C10 UNK     1      17.585   1.570  35.891  1.00  0.00     0.040 A 
BRANCH  11  16
HETATM   16  O2  UNK     1      18.580   1.219  33.755  1.00  0.00    -0.349 OA
BRANCH  16  17
HETATM   17  C17 UNK     1      18.187   2.555  33.443  1.00  0.00     0.171 C 
HETATM   18  C19 UNK     1      18.220   2.741  31.940  1.00  0.00     0.034 C 
ENDBRANCH  16  17
ENDBRANCH  11  16
ENDBRANCH   3   5
BRANCH   2  19
HETATM   19  C7  UNK     1      19.520  -6.694  36.634  1.00  0.00     0.035 A 
HETATM   20  C13 UNK     1      20.400  -7.451  35.881  1.00  0.00     0.047 A 
HETATM   21  C12 UNK     1      20.544  -8.809  36.161  1.00  0.00     0.071 A 
HETATM   22  C15 UNK     1      19.806  -9.391  37.192  1.00  0.00     0.049 A 
HETATM   23 Cl1  UNK     1      19.957 -11.069  37.568  1.00  0.00    -0.083 Cl
HETATM   24  C16 UNK     1      18.923  -8.613  37.942  1.00  0.00     0.027 A 
HETATM   25  C14 UNK     1      18.780  -7.254  37.661  1.00  0.00     0.031 A 
BRANCH  21  26
HETATM   26  C18 UNK     1      21.500  -9.608  35.335  1.00  0.00     0.419 C 
HETATM   27  F1  UNK     1      22.736  -9.732  35.899  1.00  0.00    -0.166 F 
HETATM   28  F2  UNK     1      21.082 -10.886  35.102  1.00  0.00    -0.166 F 
HETATM   29  F3  UNK     1      21.711  -9.059  34.104  1.00  0.00    -0.166 F 
ENDBRANCH  21  26
ENDBRANCH   2  19
TORSDOF 5
ENDMDL
MODEL 3
REMARK VINA RESULT:      -9.5      2.508      3.766
REMARK  5 active torsions:
REMARK  status: ('A' for Active; 'I' for Inactive)
REMARK    1  A    between atoms: C17_26  and  O2_6 
REMARK    2  A    between atoms: C5_14  and  O2_6 
REMARK    3  A    between atoms: C7_16  and  N1_9 
REMARK       I    between atoms: C8_17  and  N1_9 
REMARK    4  A    between atoms: C3_12  and  C8_17 
REMARK    5  A    between atoms: C12_21  and  C18_27 
ROOT
HETATM    1  O3  UNK     1      20.477  -2.414  36.721  1.00  0.00    -0.267 OA
HETATM    2  N1  UNK     1      19.629  -4.262  35.532  1.00  0.00    -0.323 N 
HETATM    3  C8  UNK     1      20.007  -2.939  35.713  1.00  0.00     0.262 C 
HETATM    4  H4  UNK     1      19.235  -4.533  34.635  1.00  0.00     0.169 HD
ENDROOT
BRANCH   3   5
HETATM    5  C3  UNK     1      19.789  -2.130  34.507  1.00  0.00     0.108 A 
HETATM    6  C9  UNK     1      19.014  -0.870  34.536  1.00  0.00     0.304 A 
HETATM    7  O1  UNK     1      18.878  -0.192  33.328  1.00  0.00    -0.271 OA
HETATM    8  O4  UNK     1      18.513  -0.440  35.570  1.00  0.00    -0.259 OA
HETATM    9  C2  UNK     1      19.448  -0.677  32.135  1.00  0.00     0.123 A 
HETATM   10  C1  UNK     1      20.172  -1.864  32.130  1.00  0.00     0.002 A 
HETATM   11  C5  UNK     1      19.257   0.072  30.975  1.00  0.00     0.103 A 
HETATM   12  C4  UNK     1      20.334  -2.596  33.377  1.00  0.00     0.037 A 
HETATM   13  C6  UNK     1      20.722  -2.313  30.926  1.00  0.00     0.014 A 
HETATM   14  C11 UNK     1      20.539  -1.572  29.754  1.00  0.00     0.004 A 
HETATM   15  C10 UNK     1      19.808  -0.383  29.779  1.00  0.00     0.040 A 
BRANCH  11  16
HETATM   16  O2  UNK     1      18.546   1.231  30.994  1.00  0.00    -0.349 OA
BRANCH  16  17
HETATM   17  C17 UNK     1      18.714   2.115  29.886  1.00  0.00     0.171 C 
HETATM   18  C19 UNK     1      18.763   3.540  30.396  1.00  0.00     0.034 C 
ENDBRANCH  16  17
ENDBRANCH  11  16
ENDBRANCH   3   5
BRANCH   2  19
HETATM   19  C7  UNK     1      19.700  -5.316  36.475  1.00  0.00     0.035 A 
HETATM   20  C13 UNK     1      20.882  -5.530  37.163  1.00  0.00     0.047 A 
HETATM   21  C12 UNK     1      20.952  -6.568  38.093  1.00  0.00     0.071 A 
HETATM   22  C15 UNK     1      19.838  -7.377  38.320  1.00  0.00     0.049 A 
HETATM   23 Cl1  UNK     1      19.887  -8.671  39.461  1.00  0.00    -0.083 Cl
HETATM   24  C16 UNK     1      18.655  -7.147  37.617  1.00  0.00     0.027 A 
HETATM   25  C14 UNK     1      18.586  -6.109  36.689  1.00  0.00     0.031 A 
BRANCH  21  26
HETATM   26  C18 UNK     1      22.238  -6.781  38.825  1.00  0.00     0.419 C 
HETATM   27  F1  UNK     1      22.077  -6.952  40.169  1.00  0.00    -0.166 F 
HETATM   28  F2  UNK     1      22.928  -7.879  38.403  1.00  0.00    -0.166 F 
HETATM   29  F3  UNK     1      23.096  -5.730  38.688  1.00  0.00    -0.166 F 
ENDBRANCH  21  26
ENDBRANCH   2  19
TORSDOF 5
ENDMDL
MODEL 4
REMARK VINA RESULT:      -9.2      2.465      3.743
REMARK  5 active torsions:
REMARK  status: ('A' for Active; 'I' for Inactive)
REMARK    1  A    between atoms: C17_26  and  O2_6 
REMARK    2  A    between atoms: C5_14  and  O2_6 
REMARK    3  A    between atoms: C7_16  and  N1_9 
REMARK       I    between atoms: C8_17  and  N1_9 
REMARK    4  A    between atoms: C3_12  and  C8_17 
REMARK    5  A    between atoms: C12_21  and  C18_27 
ROOT
HETATM    1  O3  UNK     1      20.913  -2.979  36.410  1.00  0.00    -0.267 OA
HETATM    2  N1  UNK     1      19.791  -4.636  35.168  1.00  0.00    -0.323 N 
HETATM    3  C8  UNK     1      20.290  -3.366  35.423  1.00  0.00     0.262 C 
HETATM    4  H4  UNK     1      19.276  -4.788  34.304  1.00  0.00     0.169 HD
ENDROOT
BRANCH   3   5
HETATM    5  C3  UNK     1      20.000  -2.427  34.332  1.00  0.00     0.108 A 
HETATM    6  C9  UNK     1      19.221  -1.187  34.550  1.00  0.00     0.304 A 
HETATM    7  O1  UNK     1      19.014  -0.376  33.438  1.00  0.00    -0.271 OA
HETATM    8  O4  UNK     1      18.779  -0.884  35.653  1.00  0.00    -0.259 OA
HETATM    9  C2  UNK     1      19.516  -0.715  32.167  1.00  0.00     0.123 A 
HETATM   10  C1  UNK     1      20.244  -1.885  31.984  1.00  0.00     0.002 A 
HETATM   11  C5  UNK     1      19.256   0.160  31.113  1.00  0.00     0.103 A 
HETATM   12  C4  UNK     1      20.480  -2.754  33.127  1.00  0.00     0.037 A 
HETATM   13  C6  UNK     1      20.726  -2.187  30.707  1.00  0.00     0.014 A 
HETATM   14  C11 UNK     1      20.473  -1.320  29.641  1.00  0.00     0.004 A 
HETATM   15  C10 UNK     1      19.740  -0.150  29.843  1.00  0.00     0.040 A 
BRANCH  11  16
HETATM   16  O2  UNK     1      18.541   1.301  31.306  1.00  0.00    -0.349 OA
BRANCH  16  17
HETATM   17  C17 UNK     1      18.474   2.217  30.214  1.00  0.00     0.171 C 
HETATM   18  C19 UNK     1      18.705   3.621  30.733  1.00  0.00     0.034 C 
ENDBRANCH  16  17
ENDBRANCH  11  16
ENDBRANCH   3   5
BRANCH   2  19
HETATM   19  C7  UNK     1      19.886  -5.782  35.994  1.00  0.00     0.035 A 
HETATM   20  C13 UNK     1      20.543  -6.905  35.520  1.00  0.00     0.047 A 
HETATM   21  C12 UNK     1      20.637  -8.034  36.333  1.00  0.00     0.071 A 
HETATM   22  C15 UNK     1      20.073  -8.024  37.609  1.00  0.00     0.049 A 
HETATM   23 Cl1  UNK     1      20.168  -9.402  38.644  1.00  0.00    -0.083 Cl
HETATM   24  C16 UNK     1      19.415  -6.883  38.071  1.00  0.00     0.027 A 
HETATM   25  C14 UNK     1      19.322  -5.755  37.257  1.00  0.00     0.031 A 
BRANCH  21  26
HETATM   26  C18 UNK     1      21.350  -9.236  35.801  1.00  0.00     0.419 C 
HETATM   27  F1  UNK     1      21.616  -9.164  34.465  1.00  0.00    -0.166 F 
HETATM   28  F2  UNK     1      22.558  -9.458  36.396  1.00  0.00    -0.166 F 
HETATM   29  F3  UNK     1      20.637 -10.385  35.974  1.00  0.00    -0.166 F 
ENDBRANCH  21  26
ENDBRANCH   2  19
TORSDOF 5
ENDMDL
MODEL 5
REMARK VINA RESULT:      -9.2      8.633     12.630
REMARK  5 active torsions:
REMARK  status: ('A' for Active; 'I' for Inactive)
REMARK    1  A    between atoms: C17_26  and  O2_6 
REMARK    2  A    between atoms: C5_14  and  O2_6 
REMARK    3  A    between atoms: C7_16  and  N1_9 
REMARK       I    between atoms: C8_17  and  N1_9 
REMARK    4  A    between atoms: C3_12  and  C8_17 
REMARK    5  A    between atoms: C12_21  and  C18_27 
ROOT
HETATM    1  O3  UNK     1      18.207   4.781  30.435  1.00  0.00    -0.267 OA
HETATM    2  N1  UNK     1      18.185   4.767  32.790  1.00  0.00    -0.323 N 
HETATM    3  C8  UNK     1      18.318   4.217  31.522  1.00  0.00     0.262 C 
HETATM    4  H4  UNK     1      18.288   4.154  33.595  1.00  0.00     0.169 HD
ENDROOT
BRANCH   3   5
HETATM    5  C3  UNK     1      18.634   2.784  31.570  1.00  0.00     0.108 A 
HETATM    6  C9  UNK     1      18.401   1.970  32.784  1.00  0.00     0.304 A 
HETATM    7  O1  UNK     1      18.738   0.621  32.705  1.00  0.00    -0.271 OA
HETATM    8  O4  UNK     1      17.935   2.453  33.811  1.00  0.00    -0.259 OA
HETATM    9  C2  UNK     1      19.275   0.056  31.532  1.00  0.00     0.123 A 
HETATM   10  C1  UNK     1      19.486   0.840  30.403  1.00  0.00     0.002 A 
HETATM   11  C5  UNK     1      19.582  -1.303  31.550  1.00  0.00     0.103 A 
HETATM   12  C4  UNK     1      19.142   2.253  30.452  1.00  0.00     0.037 A 
HETATM   13  C6  UNK     1      20.021   0.243  29.258  1.00  0.00     0.014 A 
HETATM   14  C11 UNK     1      20.334  -1.119  29.261  1.00  0.00     0.004 A 
HETATM   15  C10 UNK     1      20.116  -1.890  30.404  1.00  0.00     0.040 A 
BRANCH  11  16
HETATM   16  O2  UNK     1      19.372  -2.058  32.661  1.00  0.00    -0.349 OA
BRANCH  16  17
HETATM   17  C17 UNK     1      20.523  -2.452  33.406  1.00  0.00     0.171 C 
HETATM   18  C19 UNK     1      20.188  -2.424  34.883  1.00  0.00     0.034 C 
ENDBRANCH  16  17
ENDBRANCH  11  16
ENDBRANCH   3   5
BRANCH   2  19
HETATM   19  C7  UNK     1      17.886   6.111  33.120  1.00  0.00     0.035 A 
HETATM   20  C13 UNK     1      16.590   6.572  32.971  1.00  0.00     0.047 A 
HETATM   21  C12 UNK     1      16.295   7.896  33.297  1.00  0.00     0.071 A 
HETATM   22  C15 UNK     1      17.301   8.739  33.768  1.00  0.00     0.049 A 
HETATM   23 Cl1  UNK     1      16.976  10.383  34.180  1.00  0.00    -0.083 Cl
HETATM   24  C16 UNK     1      18.603   8.257  33.912  1.00  0.00     0.027 A 
HETATM   25  C14 UNK     1      18.896   6.934  33.587  1.00  0.00     0.031 A 
BRANCH  21  26
HETATM   26  C18 UNK     1      14.888   8.373  33.128  1.00  0.00     0.419 C 
HETATM   27  F1  UNK     1      14.078   7.471  32.504  1.00  0.00    -0.166 F 
HETATM   28  F2  UNK     1      14.265   8.659  34.308  1.00  0.00    -0.166 F 
HETATM   29  F3  UNK     1      14.810   9.514  32.385  1.00  0.00    -0.166 F 
ENDBRANCH  21  26
ENDBRANCH   2  19
TORSDOF 5
ENDMDL
MODEL 6
REMARK VINA RESULT:      -9.1      8.560     12.753
REMARK  5 active torsions:
REMARK  status: ('A' for Active; 'I' for Inactive)
REMARK    1  A    between atoms: C17_26  and  O2_6 
REMARK    2  A    between atoms: C5_14  and  O2_6 
REMARK    3  A    between atoms: C7_16  and  N1_9 
REMARK       I    between atoms: C8_17  and  N1_9 
REMARK    4  A    between atoms: C3_12  and  C8_17 
REMARK    5  A    between atoms: C12_21  and  C18_27 
ROOT
HETATM    1  O3  UNK     1      18.750   4.938  30.272  1.00  0.00    -0.267 OA
HETATM    2  N1  UNK     1      17.414   4.737  32.201  1.00  0.00    -0.323 N 
HETATM    3  C8  UNK     1      18.270   4.293  31.203  1.00  0.00     0.262 C 
HETATM    4  H4  UNK     1      17.089   4.065  32.892  1.00  0.00     0.169 HD
ENDROOT
BRANCH   3   5
HETATM    5  C3  UNK     1      18.597   2.869  31.345  1.00  0.00     0.108 A 
HETATM    6  C9  UNK     1      18.373   2.135  32.611  1.00  0.00     0.304 A 
HETATM    7  O1  UNK     1      18.721   0.788  32.622  1.00  0.00    -0.271 OA
HETATM    8  O4  UNK     1      17.904   2.682  33.605  1.00  0.00    -0.259 OA
HETATM    9  C2  UNK     1      19.260   0.150  31.488  1.00  0.00     0.123 A 
HETATM   10  C1  UNK     1      19.463   0.858  30.309  1.00  0.00     0.002 A 
HETATM   11  C5  UNK     1      19.578  -1.203  31.597  1.00  0.00     0.103 A 
HETATM   12  C4  UNK     1      19.108   2.268  30.265  1.00  0.00     0.037 A 
HETATM   13  C6  UNK     1      20.001   0.190  29.206  1.00  0.00     0.014 A 
HETATM   14  C11 UNK     1      20.325  -1.166  29.299  1.00  0.00     0.004 A 
HETATM   15  C10 UNK     1      20.115  -1.861  30.491  1.00  0.00     0.040 A 
BRANCH  11  16
HETATM   16  O2  UNK     1      19.376  -1.884  32.756  1.00  0.00    -0.349 OA
BRANCH  16  17
HETATM   17  C17 UNK     1      20.522  -2.463  33.378  1.00  0.00     0.171 C 
HETATM   18  C19 UNK     1      20.303  -2.504  34.876  1.00  0.00     0.034 C 
ENDBRANCH  16  17
ENDBRANCH  11  16
ENDBRANCH   3   5
BRANCH   2  19
HETATM   19  C7  UNK     1      16.895   6.043  32.376  1.00  0.00     0.035 A 
HETATM   20  C13 UNK     1      17.616   6.964  33.116  1.00  0.00     0.047 A 
HETATM   21  C12 UNK     1      17.106   8.251  33.287  1.00  0.00     0.071 A 
HETATM   22  C15 UNK     1      15.881   8.597  32.716  1.00  0.00     0.049 A 
HETATM   23 Cl1  UNK     1      15.217  10.179  32.907  1.00  0.00    -0.083 Cl
HETATM   24  C16 UNK     1      15.168   7.656  31.973  1.00  0.00     0.027 A 
HETATM   25  C14 UNK     1      15.679   6.370  31.801  1.00  0.00     0.031 A 
BRANCH  21  26
HETATM   26  C18 UNK     1      17.901   9.229  34.090  1.00  0.00     0.419 C 
HETATM   27  F1  UNK     1      17.161   9.900  35.019  1.00  0.00    -0.166 F 
HETATM   28  F2  UNK     1      18.922   8.656  34.791  1.00  0.00    -0.166 F 
HETATM   29  F3  UNK     1      18.480  10.191  33.316  1.00  0.00    -0.166 F 
ENDBRANCH  21  26
ENDBRANCH   2  19
TORSDOF 5
ENDMDL
MODEL 7
REMARK VINA RESULT:      -9.0      4.702      8.995
REMARK  5 active torsions:
REMARK  status: ('A' for Active; 'I' for Inactive)
REMARK    1  A    between atoms: C17_26  and  O2_6 
REMARK    2  A    between atoms: C5_14  and  O2_6 
REMARK    3  A    between atoms: C7_16  and  N1_9 
REMARK       I    between atoms: C8_17  and  N1_9 
REMARK    4  A    between atoms: C3_12  and  C8_17 
REMARK    5  A    between atoms: C12_21  and  C18_27 
ROOT
HETATM    1  O3  UNK     1      20.785  -3.066  37.648  1.00  0.00    -0.267 OA
HETATM    2  N1  UNK     1      19.185  -3.263  35.932  1.00  0.00    -0.323 N 
HETATM    3  C8  UNK     1      20.081  -3.725  36.885  1.00  0.00     0.262 C 
HETATM    4  H4  UNK     1      18.691  -3.946  35.362  1.00  0.00     0.169 HD
ENDROOT
BRANCH   3   5
HETATM    5  C3  UNK     1      20.138  -5.192  36.928  1.00  0.00     0.108 A 
HETATM    6  C9  UNK     1      20.265  -6.008  35.700  1.00  0.00     0.304 A 
HETATM    7  O1  UNK     1      20.311  -7.389  35.870  1.00  0.00    -0.271 OA
HETATM    8  O4  UNK     1      20.328  -5.499  34.585  1.00  0.00    -0.259 OA
HETATM    9  C2  UNK     1      20.239  -7.984  37.144  1.00  0.00     0.123 A 
HETATM   10  C1  UNK     1      20.118  -7.198  38.285  1.00  0.00     0.002 A 
HETATM   11  C5  UNK     1      20.291  -9.375  37.213  1.00  0.00     0.103 A 
HETATM   12  C4  UNK     1      20.070  -5.751  38.141  1.00  0.00     0.037 A 
HETATM   13  C6  UNK     1      20.049  -7.825  39.532  1.00  0.00     0.014 A 
HETATM   14  C11 UNK     1      20.100  -9.220  39.617  1.00  0.00     0.004 A 
HETATM   15  C10 UNK     1      20.221  -9.992  38.461  1.00  0.00     0.040 A 
BRANCH  11  16
HETATM   16  O2  UNK     1      20.408 -10.132  36.090  1.00  0.00    -0.349 OA
BRANCH  16  17
HETATM   17  C17 UNK     1      21.483 -11.070  36.047  1.00  0.00     0.171 C 
HETATM   18  C19 UNK     1      22.784 -10.321  35.850  1.00  0.00     0.034 C 
ENDBRANCH  16  17
ENDBRANCH  11  16
ENDBRANCH   3   5
BRANCH   2  19
HETATM   19  C7  UNK     1      18.875  -1.917  35.619  1.00  0.00     0.035 A 
HETATM   20  C13 UNK     1      18.480  -1.061  36.632  1.00  0.00     0.047 A 
HETATM   21  C12 UNK     1      18.175   0.265  36.324  1.00  0.00     0.071 A 
HETATM   22  C15 UNK     1      18.272   0.716  35.007  1.00  0.00     0.049 A 
HETATM   23 Cl1  UNK     1      17.902   2.349  34.588  1.00  0.00    -0.083 Cl
HETATM   24  C16 UNK     1      18.672  -0.162  33.998  1.00  0.00     0.027 A 
HETATM   25  C14 UNK     1      18.977  -1.487  34.307  1.00  0.00     0.031 A 
BRANCH  21  26
HETATM   26  C18 UNK     1      17.750   1.173  37.434  1.00  0.00     0.419 C 
HETATM   27  F1  UNK     1      18.493   2.313  37.519  1.00  0.00    -0.166 F 
HETATM   28  F2  UNK     1      16.457   1.593  37.326  1.00  0.00    -0.166 F 
HETATM   29  F3  UNK     1      17.845   0.579  38.658  1.00  0.00    -0.166 F 
ENDBRANCH  21  26
ENDBRANCH   2  19
TORSDOF 5
ENDMDL
MODEL 8
REMARK VINA RESULT:      -9.0      8.179     10.673
REMARK  5 active torsions:
REMARK  status: ('A' for Active; 'I' for Inactive)
REMARK    1  A    between atoms: C17_26  and  O2_6 
REMARK    2  A    between atoms: C5_14  and  O2_6 
REMARK    3  A    between atoms: C7_16  and  N1_9 
REMARK       I    between atoms: C8_17  and  N1_9 
REMARK    4  A    between atoms: C3_12  and  C8_17 
REMARK    5  A    between atoms: C12_21  and  C18_27 
ROOT
HETATM    1  O3  UNK     1      17.945   3.518  33.149  1.00  0.00    -0.267 OA
HETATM    2  N1  UNK     1      18.373   4.214  30.939  1.00  0.00    -0.323 N 
HETATM    3  C8  UNK     1      18.102   4.385  32.290  1.00  0.00     0.262 C 
HETATM    4  H4  UNK     1      18.455   5.041  30.354  1.00  0.00     0.169 HD
ENDROOT
BRANCH   3   5
HETATM    5  C3  UNK     1      18.009   5.802  32.661  1.00  0.00     0.108 A 
HETATM    6  C9  UNK     1      16.768   6.584  32.465  1.00  0.00     0.304 A 
HETATM    7  O1  UNK     1      16.802   7.919  32.858  1.00  0.00    -0.271 OA
HETATM    8  O4  UNK     1      15.756   6.087  31.981  1.00  0.00    -0.259 OA
HETATM    9  C2  UNK     1      17.958   8.501  33.414  1.00  0.00     0.123 A 
HETATM   10  C1  UNK     1      19.114   7.748  33.589  1.00  0.00     0.002 A 
HETATM   11  C5  UNK     1      17.896   9.845  33.777  1.00  0.00     0.103 A 
HETATM   12  C4  UNK     1      19.110   6.349  33.189  1.00  0.00     0.037 A 
HETATM   13  C6  UNK     1      20.241   8.361  34.143  1.00  0.00     0.014 A 
HETATM   14  C11 UNK     1      20.194   9.708  34.511  1.00  0.00     0.004 A 
HETATM   15  C10 UNK     1      19.025  10.449  34.328  1.00  0.00     0.040 A 
BRANCH  11  16
HETATM   16  O2  UNK     1      16.760  10.571  33.599  1.00  0.00    -0.349 OA
BRANCH  16  17
HETATM   17  C17 UNK     1      16.062  10.983  34.774  1.00  0.00     0.171 C 
HETATM   18  C19 UNK     1      14.893  10.050  35.007  1.00  0.00     0.034 C 
ENDBRANCH  16  17
ENDBRANCH  11  16
ENDBRANCH   3   5
BRANCH   2  19
HETATM   19  C7  UNK     1      18.530   2.993  30.239  1.00  0.00     0.035 A 
HETATM   20  C13 UNK     1      19.159   1.930  30.864  1.00  0.00     0.047 A 
HETATM   21  C12 UNK     1      19.314   0.728  30.175  1.00  0.00     0.071 A 
HETATM   22  C15 UNK     1      18.836   0.605  28.870  1.00  0.00     0.049 A 
HETATM   23 Cl1  UNK     1      19.010  -0.866  27.984  1.00  0.00    -0.083 Cl
HETATM   24  C16 UNK     1      18.205   1.687  28.254  1.00  0.00     0.027 A 
HETATM   25  C14 UNK     1      18.050   2.888  28.945  1.00  0.00     0.031 A 
BRANCH  21  26
HETATM   26  C18 UNK     1      19.996  -0.407  30.869  1.00  0.00     0.419 C 
HETATM   27  F1  UNK     1      19.792  -1.615  30.268  1.00  0.00    -0.166 F 
HETATM   28  F2  UNK     1      21.351  -0.265  30.940  1.00  0.00    -0.166 F 
HETATM   29  F3  UNK     1      19.574  -0.561  32.157  1.00  0.00    -0.166 F 
ENDBRANCH  21  26
ENDBRANCH   2  19
TORSDOF 5
ENDMDL
MODEL 9
REMARK VINA RESULT:      -8.7      8.025     10.443
REMARK  5 active torsions:
REMARK  status: ('A' for Active; 'I' for Inactive)
REMARK    1  A    between atoms: C17_26  and  O2_6 
REMARK    2  A    between atoms: C5_14  and  O2_6 
REMARK    3  A    between atoms: C7_16  and  N1_9 
REMARK       I    between atoms: C8_17  and  N1_9 
REMARK    4  A    between atoms: C3_12  and  C8_17 
REMARK    5  A    between atoms: C12_21  and  C18_27 
ROOT
HETATM    1  O3  UNK     1      19.960   5.304  30.795  1.00  0.00    -0.267 OA
HETATM    2  N1  UNK     1      18.127   3.886  31.216  1.00  0.00    -0.323 N 
HETATM    3  C8  UNK     1      18.855   5.066  31.281  1.00  0.00     0.262 C 
HETATM    4  H4  UNK     1      17.229   3.846  31.693  1.00  0.00     0.169 HD
ENDROOT
BRANCH   3   5
HETATM    5  C3  UNK     1      18.152   6.110  32.037  1.00  0.00     0.108 A 
HETATM    6  C9  UNK     1      18.872   7.070  32.904  1.00  0.00     0.304 A 
HETATM    7  O1  UNK     1      18.096   8.015  33.568  1.00  0.00    -0.271 OA
HETATM    8  O4  UNK     1      20.092   7.038  33.035  1.00  0.00    -0.259 OA
HETATM    9  C2  UNK     1      16.695   8.060  33.426  1.00  0.00     0.123 A 
HETATM   10  C1  UNK     1      16.039   7.148  32.607  1.00  0.00     0.002 A 
HETATM   11  C5  UNK     1      16.004   9.042  34.133  1.00  0.00     0.103 A 
HETATM   12  C4  UNK     1      16.822   6.148  31.898  1.00  0.00     0.037 A 
HETATM   13  C6  UNK     1      14.648   7.223  32.492  1.00  0.00     0.014 A 
HETATM   14  C11 UNK     1      13.941   8.203  33.195  1.00  0.00     0.004 A 
HETATM   15  C10 UNK     1      14.617   9.110  34.013  1.00  0.00     0.040 A 
BRANCH  11  16
HETATM   16  O2  UNK     1      16.658   9.927  34.932  1.00  0.00    -0.349 OA
BRANCH  16  17
HETATM   17  C17 UNK     1      16.772  11.269  34.458  1.00  0.00     0.171 C 
HETATM   18  C19 UNK     1      18.215  11.540  34.089  1.00  0.00     0.034 C 
ENDBRANCH  16  17
ENDBRANCH  11  16
ENDBRANCH   3   5
BRANCH   2  19
HETATM   19  C7  UNK     1      18.494   2.680  30.571  1.00  0.00     0.035 A 
HETATM   20  C13 UNK     1      18.946   1.616  31.334  1.00  0.00     0.047 A 
HETATM   21  C12 UNK     1      19.307   0.428  30.700  1.00  0.00     0.071 A 
HETATM   22  C15 UNK     1      19.211   0.320  29.312  1.00  0.00     0.049 A 
HETATM   23 Cl1  UNK     1      19.650  -1.134  28.492  1.00  0.00    -0.083 Cl
HETATM   24  C16 UNK     1      18.754   1.402  28.559  1.00  0.00     0.027 A 
HETATM   25  C14 UNK     1      18.392   2.590  29.194  1.00  0.00     0.031 A 
BRANCH  21  26
HETATM   26  C18 UNK     1      19.793  -0.708  31.542  1.00  0.00     0.419 C 
HETATM   27  F1  UNK     1      19.534  -0.549  32.872  1.00  0.00    -0.166 F 
HETATM   28  F2  UNK     1      19.236  -1.908  31.209  1.00  0.00    -0.166 F 
HETATM   29  F3  UNK     1      21.141  -0.888  31.449  1.00  0.00    -0.166 F 
ENDBRANCH  21  26
ENDBRANCH   2  19
TORSDOF 5
ENDMDL
MODEL 10
REMARK VINA RESULT:      -8.7      7.551     10.462
REMARK  5 active torsions:
REMARK  status: ('A' for Active; 'I' for Inactive)
REMARK    1  A    between atoms: C17_26  and  O2_6 
REMARK    2  A    between atoms: C5_14  and  O2_6 
REMARK    3  A    between atoms: C7_16  and  N1_9 
REMARK       I    between atoms: C8_17  and  N1_9 
REMARK    4  A    between atoms: C3_12  and  C8_17 
REMARK    5  A    between atoms: C12_21  and  C18_27 
ROOT
HETATM    1  O3  UNK     1      26.197  -9.444  39.814  1.00  0.00    -0.267 OA
HETATM    2  N1  UNK     1      25.222  -7.783  38.459  1.00  0.00    -0.323 N 
HETATM    3  C8  UNK     1      26.258  -8.437  39.111  1.00  0.00     0.262 C 
HETATM    4  H4  UNK     1      25.438  -6.942  37.929  1.00  0.00     0.169 HD
ENDROOT
BRANCH   3   5
HETATM    5  C3  UNK     1      27.554  -7.787  38.882  1.00  0.00     0.108 A 
HETATM    6  C9  UNK     1      27.711  -6.315  38.917  1.00  0.00     0.304 A 
HETATM    7  O1  UNK     1      28.991  -5.818  38.687  1.00  0.00    -0.271 OA
HETATM    8  O4  UNK     1      26.765  -5.566  39.136  1.00  0.00    -0.259 OA
HETATM    9  C2  UNK     1      30.084  -6.669  38.432  1.00  0.00     0.123 A 
HETATM   10  C1  UNK     1      29.914  -8.048  38.403  1.00  0.00     0.002 A 
HETATM   11  C5  UNK     1      31.327  -6.077  38.213  1.00  0.00     0.103 A 
HETATM   12  C4  UNK     1      28.589  -8.600  38.642  1.00  0.00     0.037 A 
HETATM   13  C6  UNK     1      31.023  -8.859  38.147  1.00  0.00     0.014 A 
HETATM   14  C11 UNK     1      32.276  -8.280  37.925  1.00  0.00     0.004 A 
HETATM   15  C10 UNK     1      32.428  -6.894  37.957  1.00  0.00     0.040 A 
BRANCH  11  16
HETATM   16  O2  UNK     1      31.479  -4.726  38.243  1.00  0.00    -0.349 OA
BRANCH  16  17
HETATM   17  C17 UNK     1      31.141  -4.008  37.057  1.00  0.00     0.171 C 
HETATM   18  C19 UNK     1      32.416  -3.579  36.360  1.00  0.00     0.034 C 
ENDBRANCH  16  17
ENDBRANCH  11  16
ENDBRANCH   3   5
BRANCH   2  19
HETATM   19  C7  UNK     1      23.848  -8.129  38.457  1.00  0.00     0.035 A 
HETATM   20  C13 UNK     1      23.312  -8.759  37.348  1.00  0.00     0.047 A 
HETATM   21  C12 UNK     1      21.959  -9.101  37.345  1.00  0.00     0.071 A 
HETATM   22  C15 UNK     1      21.163  -8.808  38.453  1.00  0.00     0.049 A 
HETATM   23 Cl1  UNK     1      19.486  -9.214  38.487  1.00  0.00    -0.083 Cl
HETATM   24  C16 UNK     1      21.721  -8.172  39.563  1.00  0.00     0.027 A 
HETATM   25  C14 UNK     1      23.073  -7.832  39.565  1.00  0.00     0.031 A 
BRANCH  21  26
HETATM   26  C18 UNK     1      21.400  -9.781  36.137  1.00  0.00     0.419 C 
HETATM   27  F1  UNK     1      22.335 -10.045  35.180  1.00  0.00    -0.166 F 
HETATM   28  F2  UNK     1      20.816 -10.983  36.410  1.00  0.00    -0.166 F 
HETATM   29  F3  UNK     1      20.439  -9.036  35.517  1.00  0.00    -0.166 F 
ENDBRANCH  21  26
ENDBRANCH   2  19
TORSDOF 5
ENDMDL
