MODEL 1
REMARK VINA RESULT:      -8.0      0.000      0.000
REMARK  4 active torsions:
REMARK  status: ('A' for Active; 'I' for Inactive)
REMARK    1  A    between atoms: C11_15  and  O2_2 
REMARK    2  A    between atoms: C18_22  and  O2_2 
REMARK    3  A    between atoms: C1_5  and  C4_8 
REMARK    4  A    between atoms: C4_8  and  C6_10 
ROOT
HETATM    1  O1  UNK     1      18.202   3.793  33.447  1.00  0.00    -0.274 OA
HETATM    2  O3  UNK     1      17.823   5.713  34.596  1.00  0.00    -0.259 OA
HETATM    3  C1  UNK     1      18.206   5.943  32.256  1.00  0.00     0.029 A 
HETATM    4  C2  UNK     1      18.502   5.331  31.089  1.00  0.00    -0.036 A 
HETATM    5  C3  UNK     1      18.627   3.859  31.052  1.00  0.00     0.005 A 
HETATM    6  C5  UNK     1      18.475   3.141  32.234  1.00  0.00     0.093 A 
HETATM    7  C7  UNK     1      18.057   5.168  33.521  1.00  0.00     0.295 A 
HETATM    8  C8  UNK     1      18.733   6.068  29.793  1.00  0.00     0.050 C 
HETATM    9  C9  UNK     1      18.884   3.123  29.885  1.00  0.00     0.017 A 
HETATM   10  C10 UNK     1      18.578   1.749  32.287  1.00  0.00     0.075 A 
HETATM   11  C11 UNK     1      18.838   1.041  31.120  1.00  0.00     0.081 A 
HETATM   12  C12 UNK     1      18.990   1.727  29.919  1.00  0.00     0.038 A 
ENDROOT
BRANCH   3  13
HETATM   13  C4  UNK     1      17.988   7.425  32.420  1.00  0.00     0.084 C 
BRANCH  13  14
HETATM   14  C6  UNK     1      16.549   7.759  32.683  1.00  0.00    -0.054 A 
HETATM   15  C13 UNK     1      15.548   7.082  31.995  1.00  0.00     0.007 A 
HETATM   16  C15 UNK     1      14.210   7.393  32.240  1.00  0.00     0.001 A 
HETATM   17  C17 UNK     1      13.882   8.379  33.171  1.00  0.00     0.000 A 
HETATM   18  C16 UNK     1      14.891   9.054  33.857  1.00  0.00     0.001 A 
HETATM   19  C14 UNK     1      16.229   8.743  33.613  1.00  0.00     0.007 A 
ENDBRANCH  13  14
ENDBRANCH   3  13
BRANCH  11  20
HETATM   20  O2  UNK     1      18.942  -0.315  31.150  1.00  0.00    -0.279 OA
BRANCH  20  21
HETATM   21  C18 UNK     1      20.232  -0.800  30.877  1.00  0.00     0.260 C 
HETATM   22  O4  UNK     1      21.254  -0.488  31.474  1.00  0.00    -0.265 OA
HETATM   23  C19 UNK     1      20.186  -1.768  29.731  1.00  0.00     0.126 C 
ENDBRANCH  20  21
ENDBRANCH  11  20
TORSDOF 4
ENDMDL
MODEL 2
REMARK VINA RESULT:      -7.8     22.645     24.237
REMARK  4 active torsions:
REMARK  status: ('A' for Active; 'I' for Inactive)
REMARK    1  A    between atoms: C11_15  and  O2_2 
REMARK    2  A    between atoms: C18_22  and  O2_2 
REMARK    3  A    between atoms: C1_5  and  C4_8 
REMARK    4  A    between atoms: C4_8  and  C6_10 
ROOT
HETATM    1  O1  UNK     1      16.043   6.584   9.787  1.00  0.00    -0.274 OA
HETATM    2  O3  UNK     1      14.964   4.591   9.688  1.00  0.00    -0.259 OA
HETATM    3  C1  UNK     1      13.587   6.533   9.754  1.00  0.00     0.029 A 
HETATM    4  C2  UNK     1      13.527   7.879   9.846  1.00  0.00    -0.036 A 
HETATM    5  C3  UNK     1      14.780   8.661   9.877  1.00  0.00     0.005 A 
HETATM    6  C5  UNK     1      15.996   7.985   9.848  1.00  0.00     0.093 A 
HETATM    7  C7  UNK     1      14.893   5.814   9.736  1.00  0.00     0.295 A 
HETATM    8  C8  UNK     1      12.236   8.655   9.938  1.00  0.00     0.050 C 
HETATM    9  C9  UNK     1      14.829  10.063   9.924  1.00  0.00     0.017 A 
HETATM   10  C10 UNK     1      17.226   8.647   9.874  1.00  0.00     0.075 A 
HETATM   11  C11 UNK     1      17.250  10.036   9.926  1.00  0.00     0.081 A 
HETATM   12  C12 UNK     1      16.052  10.744   9.950  1.00  0.00     0.038 A 
ENDROOT
BRANCH   3  13
HETATM   13  C4  UNK     1      12.390   5.623   9.650  1.00  0.00     0.084 C 
BRANCH  13  14
HETATM   14  C6  UNK     1      11.607   5.859   8.392  1.00  0.00    -0.054 A 
HETATM   15  C13 UNK     1      12.275   5.982   7.178  1.00  0.00     0.007 A 
HETATM   16  C15 UNK     1      11.547   6.202   6.009  1.00  0.00     0.001 A 
HETATM   17  C17 UNK     1      10.156   6.299   6.060  1.00  0.00     0.000 A 
HETATM   18  C16 UNK     1       9.494   6.175   7.281  1.00  0.00     0.001 A 
HETATM   19  C14 UNK     1      10.221   5.954   8.451  1.00  0.00     0.007 A 
ENDBRANCH  13  14
ENDBRANCH   3  13
BRANCH  11  20
HETATM   20  O2  UNK     1      18.437  10.700   9.951  1.00  0.00    -0.279 OA
BRANCH  20  21
HETATM   21  C18 UNK     1      18.740  11.383   8.762  1.00  0.00     0.260 C 
HETATM   22  O4  UNK     1      18.994  10.863   7.684  1.00  0.00    -0.265 OA
HETATM   23  C19 UNK     1      18.712  12.865   8.997  1.00  0.00     0.126 C 
ENDBRANCH  20  21
ENDBRANCH  11  20
TORSDOF 4
ENDMDL
MODEL 3
REMARK VINA RESULT:      -7.7     15.448     17.408
REMARK  4 active torsions:
REMARK  status: ('A' for Active; 'I' for Inactive)
REMARK    1  A    between atoms: C11_15  and  O2_2 
REMARK    2  A    between atoms: C18_22  and  O2_2 
REMARK    3  A    between atoms: C1_5  and  C4_8 
REMARK    4  A    between atoms: C4_8  and  C6_10 
ROOT
HETATM    1  O1  UNK     1      28.399  -5.254  39.350  1.00  0.00    -0.274 OA
HETATM    2  O3  UNK     1      29.911  -3.592  39.666  1.00  0.00    -0.259 OA
HETATM    3  C1  UNK     1      30.035  -4.748  37.587  1.00  0.00     0.029 A 
HETATM    4  C2  UNK     1      29.555  -5.744  36.813  1.00  0.00    -0.036 A 
HETATM    5  C3  UNK     1      28.404  -6.542  37.286  1.00  0.00     0.005 A 
HETATM    6  C5  UNK     1      27.867  -6.270  38.541  1.00  0.00     0.093 A 
HETATM    7  C7  UNK     1      29.463  -4.470  38.936  1.00  0.00     0.295 A 
HETATM    8  C8  UNK     1      30.137  -6.117  35.471  1.00  0.00     0.050 C 
HETATM    9  C9  UNK     1      27.800  -7.566  36.541  1.00  0.00     0.017 A 
HETATM   10  C10 UNK     1      26.782  -6.976  39.064  1.00  0.00     0.075 A 
HETATM   11  C11 UNK     1      26.202  -7.990  38.310  1.00  0.00     0.081 A 
HETATM   12  C12 UNK     1      26.710  -8.285  37.048  1.00  0.00     0.038 A 
ENDROOT
BRANCH   3  13
HETATM   13  C4  UNK     1      31.157  -3.820  37.199  1.00  0.00     0.084 C 
BRANCH  13  14
HETATM   14  C6  UNK     1      32.459  -4.547  37.028  1.00  0.00    -0.054 A 
HETATM   15  C13 UNK     1      32.876  -5.449  38.001  1.00  0.00     0.007 A 
HETATM   16  C15 UNK     1      34.087  -6.124  37.843  1.00  0.00     0.001 A 
HETATM   17  C17 UNK     1      34.872  -5.893  36.713  1.00  0.00     0.000 A 
HETATM   18  C16 UNK     1      34.447  -4.988  35.742  1.00  0.00     0.001 A 
HETATM   19  C14 UNK     1      33.237  -4.312  35.899  1.00  0.00     0.007 A 
ENDBRANCH  13  14
ENDBRANCH   3  13
BRANCH  11  20
HETATM   20  O2  UNK     1      25.144  -8.690  38.801  1.00  0.00    -0.279 OA
BRANCH  20  21
HETATM   21  C18 UNK     1      23.893  -8.223  38.364  1.00  0.00     0.260 C 
HETATM   22  O4  UNK     1      23.425  -8.376  37.243  1.00  0.00    -0.265 OA
HETATM   23  C19 UNK     1      23.197  -7.497  39.476  1.00  0.00     0.126 C 
ENDBRANCH  20  21
ENDBRANCH  11  20
TORSDOF 4
ENDMDL
MODEL 4
REMARK VINA RESULT:      -7.7      1.342      2.107
REMARK  4 active torsions:
REMARK  status: ('A' for Active; 'I' for Inactive)
REMARK    1  A    between atoms: C11_15  and  O2_2 
REMARK    2  A    between atoms: C18_22  and  O2_2 
REMARK    3  A    between atoms: C1_5  and  C4_8 
REMARK    4  A    between atoms: C4_8  and  C6_10 
ROOT
HETATM    1  O1  UNK     1      18.826   4.298  30.157  1.00  0.00    -0.274 OA
HETATM    2  O3  UNK     1      18.783   6.517  29.686  1.00  0.00    -0.259 OA
HETATM    3  C1  UNK     1      18.349   5.911  31.949  1.00  0.00     0.029 A 
HETATM    4  C2  UNK     1      18.189   4.915  32.846  1.00  0.00    -0.036 A 
HETATM    5  C3  UNK     1      18.386   3.514  32.418  1.00  0.00     0.005 A 
HETATM    6  C5  UNK     1      18.696   3.254  31.086  1.00  0.00     0.093 A 
HETATM    7  C7  UNK     1      18.669   5.625  30.521  1.00  0.00     0.295 A 
HETATM    8  C8  UNK     1      17.797   5.139  34.286  1.00  0.00     0.050 C 
HETATM    9  C9  UNK     1      18.290   2.410  33.279  1.00  0.00     0.017 A 
HETATM   10  C10 UNK     1      18.898   1.961  30.599  1.00  0.00     0.075 A 
HETATM   11  C11 UNK     1      18.793   0.882  31.470  1.00  0.00     0.081 A 
HETATM   12  C12 UNK     1      18.490   1.106  32.809  1.00  0.00     0.038 A 
ENDROOT
BRANCH   3  13
HETATM   13  C4  UNK     1      18.241   7.381  32.266  1.00  0.00     0.084 C 
BRANCH  13  14
HETATM   14  C6  UNK     1      16.858   7.765  32.702  1.00  0.00    -0.054 A 
HETATM   15  C13 UNK     1      15.756   7.283  32.002  1.00  0.00     0.007 A 
HETATM   16  C15 UNK     1      14.471   7.641  32.407  1.00  0.00     0.001 A 
HETATM   17  C17 UNK     1      14.294   8.479  33.509  1.00  0.00     0.000 A 
HETATM   18  C16 UNK     1      15.402   8.958  34.205  1.00  0.00     0.001 A 
HETATM   19  C14 UNK     1      16.689   8.601  33.801  1.00  0.00     0.007 A 
ENDBRANCH  13  14
ENDBRANCH   3  13
BRANCH  11  20
HETATM   20  O2  UNK     1      18.986  -0.386  31.015  1.00  0.00    -0.279 OA
BRANCH  20  21
HETATM   21  C18 UNK     1      20.327  -0.700  30.739  1.00  0.00     0.260 C 
HETATM   22  O4  UNK     1      21.261  -0.597  31.524  1.00  0.00    -0.265 OA
HETATM   23  C19 UNK     1      20.462  -1.186  29.327  1.00  0.00     0.126 C 
ENDBRANCH  20  21
ENDBRANCH  11  20
TORSDOF 4
ENDMDL
MODEL 5
REMARK VINA RESULT:      -7.7     22.065     23.903
REMARK  4 active torsions:
REMARK  status: ('A' for Active; 'I' for Inactive)
REMARK    1  A    between atoms: C11_15  and  O2_2 
REMARK    2  A    between atoms: C18_22  and  O2_2 
REMARK    3  A    between atoms: C1_5  and  C4_8 
REMARK    4  A    between atoms: C4_8  and  C6_10 
ROOT
HETATM    1  O1  UNK     1      12.232   8.268  10.425  1.00  0.00    -0.274 OA
HETATM    2  O3  UNK     1      13.312   9.720  11.794  1.00  0.00    -0.259 OA
HETATM    3  C1  UNK     1      14.662   8.070  10.732  1.00  0.00     0.029 A 
HETATM    4  C2  UNK     1      14.708   6.991   9.923  1.00  0.00    -0.036 A 
HETATM    5  C3  UNK     1      13.466   6.513   9.278  1.00  0.00     0.005 A 
HETATM    6  C5  UNK     1      12.270   7.169   9.554  1.00  0.00     0.093 A 
HETATM    7  C7  UNK     1      13.375   8.760  11.033  1.00  0.00     0.295 A 
HETATM    8  C8  UNK     1      15.968   6.211   9.637  1.00  0.00     0.050 C 
HETATM    9  C9  UNK     1      13.412   5.432   8.385  1.00  0.00     0.017 A 
HETATM   10  C10 UNK     1      11.053   6.782   8.989  1.00  0.00     0.075 A 
HETATM   11  C11 UNK     1      11.022   5.705   8.111  1.00  0.00     0.081 A 
HETATM   12  C12 UNK     1      12.201   5.030   7.808  1.00  0.00     0.038 A 
ENDROOT
BRANCH   3  13
HETATM   13  C4  UNK     1      15.860   8.698  11.399  1.00  0.00     0.084 C 
BRANCH  13  14
HETATM   14  C6  UNK     1      16.421   9.837  10.599  1.00  0.00    -0.054 A 
HETATM   15  C13 UNK     1      16.160  11.146  10.988  1.00  0.00     0.007 A 
HETATM   16  C15 UNK     1      16.681  12.204  10.244  1.00  0.00     0.001 A 
HETATM   17  C17 UNK     1      17.459  11.947   9.114  1.00  0.00     0.000 A 
HETATM   18  C16 UNK     1      17.715  10.632   8.729  1.00  0.00     0.001 A 
HETATM   19  C14 UNK     1      17.195   9.572   9.473  1.00  0.00     0.007 A 
ENDBRANCH  13  14
ENDBRANCH   3  13
BRANCH  11  20
HETATM   20  O2  UNK     1       9.846   5.313   7.549  1.00  0.00    -0.279 OA
BRANCH  20  21
HETATM   21  C18 UNK     1       9.192   6.321   6.821  1.00  0.00     0.260 C 
HETATM   22  O4  UNK     1       8.172   6.904   7.166  1.00  0.00    -0.265 OA
HETATM   23  C19 UNK     1       9.924   6.589   5.540  1.00  0.00     0.126 C 
ENDBRANCH  20  21
ENDBRANCH  11  20
TORSDOF 4
ENDMDL
MODEL 6
REMARK VINA RESULT:      -7.6     17.236     19.826
REMARK  4 active torsions:
REMARK  status: ('A' for Active; 'I' for Inactive)
REMARK    1  A    between atoms: C11_15  and  O2_2 
REMARK    2  A    between atoms: C18_22  and  O2_2 
REMARK    3  A    between atoms: C1_5  and  C4_8 
REMARK    4  A    between atoms: C4_8  and  C6_10 
ROOT
HETATM    1  O1  UNK     1      33.014  -9.176  34.720  1.00  0.00    -0.274 OA
HETATM    2  O3  UNK     1      31.762  -9.799  36.507  1.00  0.00    -0.259 OA
HETATM    3  C1  UNK     1      33.153  -7.889  36.809  1.00  0.00     0.029 A 
HETATM    4  C2  UNK     1      34.081  -7.066  36.277  1.00  0.00    -0.036 A 
HETATM    5  C3  UNK     1      34.499  -7.255  34.872  1.00  0.00     0.005 A 
HETATM    6  C5  UNK     1      33.952  -8.306  34.143  1.00  0.00     0.093 A 
HETATM    7  C7  UNK     1      32.580  -9.021  36.026  1.00  0.00     0.295 A 
HETATM    8  C8  UNK     1      34.747  -5.948  37.042  1.00  0.00     0.050 C 
HETATM    9  C9  UNK     1      35.419  -6.428  34.209  1.00  0.00     0.017 A 
HETATM   10  C10 UNK     1      34.293  -8.556  32.811  1.00  0.00     0.075 A 
HETATM   11  C11 UNK     1      35.210  -7.727  32.176  1.00  0.00     0.081 A 
HETATM   12  C12 UNK     1      35.773  -6.662  32.875  1.00  0.00     0.038 A 
ENDROOT
BRANCH   3  13
HETATM   13  C4  UNK     1      32.592  -7.768  38.203  1.00  0.00     0.084 C 
BRANCH  13  14
HETATM   14  C6  UNK     1      31.423  -6.829  38.263  1.00  0.00    -0.054 A 
HETATM   15  C13 UNK     1      31.643  -5.464  38.413  1.00  0.00     0.007 A 
HETATM   16  C15 UNK     1      30.556  -4.592  38.469  1.00  0.00     0.001 A 
HETATM   17  C17 UNK     1      29.256  -5.089  38.375  1.00  0.00     0.000 A 
HETATM   18  C16 UNK     1      29.043  -6.459  38.225  1.00  0.00     0.001 A 
HETATM   19  C14 UNK     1      30.130  -7.333  38.168  1.00  0.00     0.007 A 
ENDBRANCH  13  14
ENDBRANCH   3  13
BRANCH  11  20
HETATM   20  O2  UNK     1      35.555  -7.953  30.880  1.00  0.00    -0.279 OA
BRANCH  20  21
HETATM   21  C18 UNK     1      35.039  -7.011  29.975  1.00  0.00     0.260 C 
HETATM   22  O4  UNK     1      35.628  -6.020  29.561  1.00  0.00    -0.265 OA
HETATM   23  C19 UNK     1      33.643  -7.388  29.578  1.00  0.00     0.126 C 
ENDBRANCH  20  21
ENDBRANCH  11  20
TORSDOF 4
ENDMDL
MODEL 7
REMARK VINA RESULT:      -7.6     22.606     24.083
REMARK  4 active torsions:
REMARK  status: ('A' for Active; 'I' for Inactive)
REMARK    1  A    between atoms: C11_15  and  O2_2 
REMARK    2  A    between atoms: C18_22  and  O2_2 
REMARK    3  A    between atoms: C1_5  and  C4_8 
REMARK    4  A    between atoms: C4_8  and  C6_10 
ROOT
HETATM    1  O1  UNK     1      10.304   5.300   7.960  1.00  0.00    -0.274 OA
HETATM    2  O3  UNK     1       8.050   5.077   7.828  1.00  0.00    -0.259 OA
HETATM    3  C1  UNK     1       8.855   7.126   8.737  1.00  0.00     0.029 A 
HETATM    4  C2  UNK     1       9.925   7.858   9.112  1.00  0.00    -0.036 A 
HETATM    5  C3  UNK     1      11.285   7.328   8.880  1.00  0.00     0.005 A 
HETATM    6  C5  UNK     1      11.427   6.065   8.313  1.00  0.00     0.093 A 
HETATM    7  C7  UNK     1       9.014   5.768   8.142  1.00  0.00     0.295 A 
HETATM    8  C8  UNK     1       9.825   9.207   9.782  1.00  0.00     0.050 C 
HETATM    9  C9  UNK     1      12.463   8.026   9.189  1.00  0.00     0.017 A 
HETATM   10  C10 UNK     1      12.675   5.489   8.061  1.00  0.00     0.075 A 
HETATM   11  C11 UNK     1      13.828   6.197   8.380  1.00  0.00     0.081 A 
HETATM   12  C12 UNK     1      13.722   7.465   8.943  1.00  0.00     0.038 A 
ENDROOT
BRANCH   3  13
HETATM   13  C4  UNK     1       7.420   7.574   8.856  1.00  0.00     0.084 C 
BRANCH  13  14
HETATM   14  C6  UNK     1       6.892   7.414  10.251  1.00  0.00    -0.054 A 
HETATM   15  C13 UNK     1       6.493   8.537  10.970  1.00  0.00     0.007 A 
HETATM   16  C15 UNK     1       6.003   8.387  12.267  1.00  0.00     0.001 A 
HETATM   17  C17 UNK     1       5.915   7.118  12.838  1.00  0.00     0.000 A 
HETATM   18  C16 UNK     1       6.317   5.997  12.112  1.00  0.00     0.001 A 
HETATM   19  C14 UNK     1       6.808   6.145  10.815  1.00  0.00     0.007 A 
ENDBRANCH  13  14
ENDBRANCH   3  13
BRANCH  11  20
HETATM   20  O2  UNK     1      15.052   5.654   8.142  1.00  0.00    -0.279 OA
BRANCH  20  21
HETATM   21  C18 UNK     1      15.722   5.217   9.297  1.00  0.00     0.260 C 
HETATM   22  O4  UNK     1      15.571   4.131   9.841  1.00  0.00    -0.265 OA
HETATM   23  C19 UNK     1      16.662   6.280   9.782  1.00  0.00     0.126 C 
ENDBRANCH  20  21
ENDBRANCH  11  20
TORSDOF 4
ENDMDL
MODEL 8
REMARK VINA RESULT:      -7.6     22.746     24.394
REMARK  4 active torsions:
REMARK  status: ('A' for Active; 'I' for Inactive)
REMARK    1  A    between atoms: C11_15  and  O2_2 
REMARK    2  A    between atoms: C18_22  and  O2_2 
REMARK    3  A    between atoms: C1_5  and  C4_8 
REMARK    4  A    between atoms: C4_8  and  C6_10 
ROOT
HETATM    1  O1  UNK     1      13.530   9.256   9.700  1.00  0.00    -0.274 OA
HETATM    2  O3  UNK     1      11.329   8.729   9.538  1.00  0.00    -0.259 OA
HETATM    3  C1  UNK     1      12.853   6.898   9.563  1.00  0.00     0.029 A 
HETATM    4  C2  UNK     1      14.141   6.494   9.594  1.00  0.00    -0.036 A 
HETATM    5  C3  UNK     1      15.215   7.501   9.721  1.00  0.00     0.005 A 
HETATM    6  C5  UNK     1      14.871   8.849   9.768  1.00  0.00     0.093 A 
HETATM    7  C7  UNK     1      12.493   8.344   9.601  1.00  0.00     0.295 A 
HETATM    8  C8  UNK     1      14.569   5.051   9.488  1.00  0.00     0.050 C 
HETATM    9  C9  UNK     1      16.580   7.186   9.810  1.00  0.00     0.017 A 
HETATM   10  C10 UNK     1      15.823   9.865   9.887  1.00  0.00     0.075 A 
HETATM   11  C11 UNK     1      17.170   9.529   9.968  1.00  0.00     0.081 A 
HETATM   12  C12 UNK     1      17.548   8.190   9.930  1.00  0.00     0.038 A 
ENDROOT
BRANCH   3  13
HETATM   13  C4  UNK     1      11.662   5.976   9.500  1.00  0.00     0.084 C 
BRANCH  13  14
HETATM   14  C6  UNK     1      10.968   6.039   8.172  1.00  0.00    -0.054 A 
HETATM   15  C13 UNK     1      11.718   6.019   7.001  1.00  0.00     0.007 A 
HETATM   16  C15 UNK     1      11.071   6.079   5.766  1.00  0.00     0.001 A 
HETATM   17  C17 UNK     1       9.680   6.157   5.710  1.00  0.00     0.000 A 
HETATM   18  C16 UNK     1       8.934   6.177   6.888  1.00  0.00     0.001 A 
HETATM   19  C14 UNK     1       9.580   6.118   8.124  1.00  0.00     0.007 A 
ENDBRANCH  13  14
ENDBRANCH   3  13
BRANCH  11  20
HETATM   20  O2  UNK     1      18.113  10.503  10.085  1.00  0.00    -0.279 OA
BRANCH  20  21
HETATM   21  C18 UNK     1      18.373  11.198   8.892  1.00  0.00     0.260 C 
HETATM   22  O4  UNK     1      18.922  10.735   7.901  1.00  0.00    -0.265 OA
HETATM   23  C19 UNK     1      17.880  12.610   9.000  1.00  0.00     0.126 C 
ENDBRANCH  20  21
ENDBRANCH  11  20
TORSDOF 4
ENDMDL
MODEL 9
REMARK VINA RESULT:      -7.4     15.583     19.267
REMARK  4 active torsions:
REMARK  status: ('A' for Active; 'I' for Inactive)
REMARK    1  A    between atoms: C11_15  and  O2_2 
REMARK    2  A    between atoms: C18_22  and  O2_2 
REMARK    3  A    between atoms: C1_5  and  C4_8 
REMARK    4  A    between atoms: C4_8  and  C6_10 
ROOT
HETATM    1  O1  UNK     1      32.283  -7.068  38.121  1.00  0.00    -0.274 OA
HETATM    2  O3  UNK     1      34.367  -7.689  37.472  1.00  0.00    -0.259 OA
HETATM    3  C1  UNK     1      33.662  -5.512  36.811  1.00  0.00     0.029 A 
HETATM    4  C2  UNK     1      32.671  -4.595  36.798  1.00  0.00    -0.036 A 
HETATM    5  C3  UNK     1      31.408  -4.881  37.511  1.00  0.00     0.005 A 
HETATM    6  C5  UNK     1      31.257  -6.110  38.146  1.00  0.00     0.093 A 
HETATM    7  C7  UNK     1      33.489  -6.832  37.482  1.00  0.00     0.295 A 
HETATM    8  C8  UNK     1      32.762  -3.273  36.077  1.00  0.00     0.050 C 
HETATM    9  C9  UNK     1      30.336  -3.980  37.600  1.00  0.00     0.017 A 
HETATM   10  C10 UNK     1      30.097  -6.461  38.840  1.00  0.00     0.075 A 
HETATM   11  C11 UNK     1      29.046  -5.554  38.911  1.00  0.00     0.081 A 
HETATM   12  C12 UNK     1      29.165  -4.314  38.292  1.00  0.00     0.038 A 
ENDROOT
BRANCH   3  13
HETATM   13  C4  UNK     1      35.018  -5.322  36.181  1.00  0.00     0.084 C 
BRANCH  13  14
HETATM   14  C6  UNK     1      35.181  -6.137  34.932  1.00  0.00    -0.054 A 
HETATM   15  C13 UNK     1      36.359  -6.846  34.720  1.00  0.00     0.007 A 
HETATM   16  C15 UNK     1      36.510  -7.603  33.559  1.00  0.00     0.001 A 
HETATM   17  C17 UNK     1      35.483  -7.646  32.615  1.00  0.00     0.000 A 
HETATM   18  C16 UNK     1      34.305  -6.932  32.834  1.00  0.00     0.001 A 
HETATM   19  C14 UNK     1      34.153  -6.175  33.996  1.00  0.00     0.007 A 
ENDBRANCH  13  14
ENDBRANCH   3  13
BRANCH  11  20
HETATM   20  O2  UNK     1      27.908  -5.876  39.583  1.00  0.00    -0.279 OA
BRANCH  20  21
HETATM   21  C18 UNK     1      26.778  -6.026  38.761  1.00  0.00     0.260 C 
HETATM   22  O4  UNK     1      25.956  -5.154  38.511  1.00  0.00    -0.265 OA
HETATM   23  C19 UNK     1      26.713  -7.425  38.225  1.00  0.00     0.126 C 
ENDBRANCH  20  21
ENDBRANCH  11  20
TORSDOF 4
ENDMDL
MODEL 10
REMARK VINA RESULT:      -7.4     22.746     24.712
REMARK  4 active torsions:
REMARK  status: ('A' for Active; 'I' for Inactive)
REMARK    1  A    between atoms: C11_15  and  O2_2 
REMARK    2  A    between atoms: C18_22  and  O2_2 
REMARK    3  A    between atoms: C1_5  and  C4_8 
REMARK    4  A    between atoms: C4_8  and  C6_10 
ROOT
HETATM    1  O1  UNK     1       9.828   5.457   7.962  1.00  0.00    -0.274 OA
HETATM    2  O3  UNK     1      11.796   5.092   6.895  1.00  0.00    -0.259 OA
HETATM    3  C1  UNK     1      11.585   7.172   8.035  1.00  0.00     0.029 A 
HETATM    4  C2  UNK     1      10.797   7.994   8.760  1.00  0.00    -0.036 A 
HETATM    5  C3  UNK     1       9.449   7.540   9.160  1.00  0.00     0.005 A 
HETATM    6  C5  UNK     1       9.010   6.286   8.745  1.00  0.00     0.093 A 
HETATM    7  C7  UNK     1      11.104   5.835   7.583  1.00  0.00     0.295 A 
HETATM    8  C8  UNK     1      11.203   9.384   9.186  1.00  0.00     0.050 C 
HETATM    9  C9  UNK     1       8.569   8.295   9.951  1.00  0.00     0.017 A 
HETATM   10  C10 UNK     1       7.751   5.781   9.078  1.00  0.00     0.075 A 
HETATM   11  C11 UNK     1       6.895   6.549   9.859  1.00  0.00     0.081 A 
HETATM   12  C12 UNK     1       7.303   7.806  10.296  1.00  0.00     0.038 A 
ENDROOT
BRANCH   3  13
HETATM   13  C4  UNK     1      13.000   7.484   7.616  1.00  0.00     0.084 C 
BRANCH  13  14
HETATM   14  C6  UNK     1      13.992   7.169   8.697  1.00  0.00    -0.054 A 
HETATM   15  C13 UNK     1      14.532   8.200   9.459  1.00  0.00     0.007 A 
HETATM   16  C15 UNK     1      15.454   7.907  10.463  1.00  0.00     0.001 A 
HETATM   17  C17 UNK     1      15.832   6.585  10.699  1.00  0.00     0.000 A 
HETATM   18  C16 UNK     1      15.287   5.556   9.932  1.00  0.00     0.001 A 
HETATM   19  C14 UNK     1      14.364   5.848   8.927  1.00  0.00     0.007 A 
ENDBRANCH  13  14
ENDBRANCH   3  13
BRANCH  11  20
HETATM   20  O2  UNK     1       5.664   6.076  10.195  1.00  0.00    -0.279 OA
BRANCH  20  21
HETATM   21  C18 UNK     1       5.684   4.821  10.827  1.00  0.00     0.260 C 
HETATM   22  O4  UNK     1       5.345   3.760  10.319  1.00  0.00    -0.265 OA
HETATM   23  C19 UNK     1       6.183   4.961  12.234  1.00  0.00     0.126 C 
ENDBRANCH  20  21
ENDBRANCH  11  20
TORSDOF 4
ENDMDL
