MODEL 1
REMARK VINA RESULT:      -7.6      0.000      0.000
REMARK  10 active torsions:
REMARK  status: ('A' for Active; 'I' for Inactive)
REMARK    1  A    between atoms: C1_8  and  O1_1 
REMARK    2  A    between atoms: C5_12  and  O1_1 
REMARK    3  A    between atoms: C10_17  and  O2_2 
REMARK    4  A    between atoms: C6_13  and  O2_2 
REMARK    5  A    between atoms: C14_21  and  O3_3 
REMARK    6  A    between atoms: C3_10  and  O3_3 
REMARK    7  A    between atoms: C22_29  and  N1_6 
REMARK    8  A    between atoms: C2_9  and  C9_16 
REMARK    9  A    between atoms: C5_12  and  C6_13 
REMARK   10  A    between atoms: C12_19  and  C13_20 
ROOT
HETATM    1  N2  UNK     1      30.054  -2.644  30.093  1.00  0.00    -0.191 NA
HETATM    2  C9  UNK     1      30.328  -4.977  32.617  1.00  0.00     0.035 C 
HETATM    3  C12 UNK     1      30.159  -4.961  31.267  1.00  0.00     0.055 C 
HETATM    4  C26 UNK     1      30.102  -3.673  30.626  1.00  0.00     0.100 C 
ENDROOT
BRANCH   3   5
HETATM    5  C13 UNK     1      30.041  -6.160  30.452  1.00  0.00    -0.015 A 
HETATM    6  C17 UNK     1      31.140  -6.618  29.724  1.00  0.00     0.015 A 
HETATM    7  C23 UNK     1      31.028  -7.768  28.944  1.00  0.00     0.037 A 
HETATM    8  C22 UNK     1      29.817  -8.459  28.889  1.00  0.00     0.102 A 
HETATM    9  C24 UNK     1      28.719  -8.001  29.616  1.00  0.00     0.037 A 
HETATM   10  C18 UNK     1      28.832  -6.850  30.398  1.00  0.00     0.015 A 
BRANCH   8  11
HETATM   11  N1  UNK     1      29.702  -9.631  28.094  1.00  0.00    -0.116 N 
HETATM   12  O4  UNK     1      30.672  -9.975  27.376  1.00  0.00    -0.532 OA
HETATM   13  O5  UNK     1      28.635 -10.289  28.131  1.00  0.00    -0.532 OA
ENDBRANCH   8  11
ENDBRANCH   3   5
BRANCH   2  14
HETATM   14  C2  UNK     1      30.389  -6.181  33.458  1.00  0.00    -0.032 A 
HETATM   15  C4  UNK     1      29.242  -6.636  34.108  1.00  0.00     0.051 A 
HETATM   16  C3  UNK     1      29.301  -7.778  34.908  1.00  0.00     0.102 A 
HETATM   17  C1  UNK     1      30.506  -8.465  35.056  1.00  0.00     0.102 A 
HETATM   18  C7  UNK     1      31.653  -8.010  34.405  1.00  0.00     0.040 A 
HETATM   19  C8  UNK     1      31.594  -6.867  33.607  1.00  0.00     0.014 A 
BRANCH  16  20
HETATM   20  O3  UNK     1      28.174  -8.214  35.538  1.00  0.00    -0.349 OA
BRANCH  20  21
HETATM   21  C14 UNK     1      27.642  -7.380  36.565  1.00  0.00     0.171 C 
HETATM   22  C25 UNK     1      27.586  -8.165  37.858  1.00  0.00     0.034 C 
ENDBRANCH  20  21
ENDBRANCH  16  20
BRANCH  17  23
HETATM   23  O1  UNK     1      30.576  -9.582  35.832  1.00  0.00    -0.346 OA
BRANCH  23  24
HETATM   24  C5  UNK     1      31.646  -9.652  36.772  1.00  0.00     0.202 C 
BRANCH  24  25
HETATM   25  C6  UNK     1      31.236  -8.936  38.045  1.00  0.00     0.202 C 
BRANCH  25  26
HETATM   26  O2  UNK     1      32.208  -7.945  38.354  1.00  0.00    -0.348 OA
BRANCH  26  27
HETATM   27  C10 UNK     1      32.028  -6.708  37.794  1.00  0.00     0.074 A 
HETATM   28  C11 UNK     1      33.079  -6.058  37.147  1.00  0.00    -0.029 A 
HETATM   29  C16 UNK     1      32.878  -4.798  36.583  1.00  0.00     0.009 A 
HETATM   30  C19 UNK     1      34.426  -6.695  37.050  1.00  0.00     0.051 C 
HETATM   31  C21 UNK     1      31.625  -4.188  36.664  1.00  0.00     0.001 A 
HETATM   32  C20 UNK     1      30.574  -4.839  37.312  1.00  0.00     0.003 A 
HETATM   33  C15 UNK     1      30.776  -6.098  37.877  1.00  0.00     0.037 A 
ENDBRANCH  26  27
ENDBRANCH  25  26
ENDBRANCH  24  25
ENDBRANCH  23  24
ENDBRANCH  17  23
ENDBRANCH   2  14
TORSDOF 10
ENDMDL
MODEL 2
REMARK VINA RESULT:      -7.6      3.075      7.539
REMARK  10 active torsions:
REMARK  status: ('A' for Active; 'I' for Inactive)
REMARK    1  A    between atoms: C1_8  and  O1_1 
REMARK    2  A    between atoms: C5_12  and  O1_1 
REMARK    3  A    between atoms: C10_17  and  O2_2 
REMARK    4  A    between atoms: C6_13  and  O2_2 
REMARK    5  A    between atoms: C14_21  and  O3_3 
REMARK    6  A    between atoms: C3_10  and  O3_3 
REMARK    7  A    between atoms: C22_29  and  N1_6 
REMARK    8  A    between atoms: C2_9  and  C9_16 
REMARK    9  A    between atoms: C5_12  and  C6_13 
REMARK   10  A    between atoms: C12_19  and  C13_20 
ROOT
HETATM    1  N2  UNK     1      35.477  -5.984  36.099  1.00  0.00    -0.191 NA
HETATM    2  C9  UNK     1      32.648  -6.409  34.173  1.00  0.00     0.035 C 
HETATM    3  C12 UNK     1      32.967  -5.978  35.423  1.00  0.00     0.055 C 
HETATM    4  C26 UNK     1      34.359  -5.985  35.788  1.00  0.00     0.100 C 
ENDROOT
BRANCH   3   5
HETATM    5  C13 UNK     1      31.987  -5.511  36.392  1.00  0.00    -0.015 A 
HETATM    6  C17 UNK     1      31.403  -6.412  37.282  1.00  0.00     0.015 A 
HETATM    7  C23 UNK     1      30.465  -5.965  38.212  1.00  0.00     0.037 A 
HETATM    8  C22 UNK     1      30.110  -4.616  38.251  1.00  0.00     0.102 A 
HETATM    9  C24 UNK     1      30.693  -3.716  37.361  1.00  0.00     0.037 A 
HETATM   10  C18 UNK     1      31.632  -4.163  36.431  1.00  0.00     0.015 A 
BRANCH   8  11
HETATM   11  N1  UNK     1      29.154  -4.160  39.198  1.00  0.00    -0.116 N 
HETATM   12  O4  UNK     1      27.939  -4.405  39.001  1.00  0.00    -0.532 OA
HETATM   13  O5  UNK     1      29.551  -3.525  40.204  1.00  0.00    -0.532 OA
ENDBRANCH   8  11
ENDBRANCH   3   5
BRANCH   2  14
HETATM   14  C2  UNK     1      31.290  -6.500  33.618  1.00  0.00    -0.032 A 
HETATM   15  C4  UNK     1      30.507  -7.626  33.873  1.00  0.00     0.051 A 
HETATM   16  C3  UNK     1      29.218  -7.712  33.345  1.00  0.00     0.102 A 
HETATM   17  C1  UNK     1      28.714  -6.673  32.563  1.00  0.00     0.102 A 
HETATM   18  C7  UNK     1      29.497  -5.548  32.308  1.00  0.00     0.040 A 
HETATM   19  C8  UNK     1      30.786  -5.462  32.835  1.00  0.00     0.014 A 
BRANCH  16  20
HETATM   20  O3  UNK     1      28.462  -8.816  33.601  1.00  0.00    -0.349 OA
BRANCH  20  21
HETATM   21  C14 UNK     1      28.875  -9.648  34.683  1.00  0.00     0.171 C 
HETATM   22  C25 UNK     1      27.876  -9.517  35.814  1.00  0.00     0.034 C 
ENDBRANCH  20  21
ENDBRANCH  16  20
BRANCH  17  23
HETATM   23  O1  UNK     1      27.457  -6.745  32.043  1.00  0.00    -0.346 OA
BRANCH  23  24
HETATM   24  C5  UNK     1      27.345  -6.799  30.622  1.00  0.00     0.202 C 
BRANCH  24  25
HETATM   25  C6  UNK     1      27.581  -8.224  30.160  1.00  0.00     0.202 C 
BRANCH  25  26
HETATM   26  O2  UNK     1      28.757  -8.264  29.361  1.00  0.00    -0.348 OA
BRANCH  26  27
HETATM   27  C10 UNK     1      29.900  -8.713  29.967  1.00  0.00     0.074 A 
HETATM   28  C11 UNK     1      31.073  -7.959  29.925  1.00  0.00    -0.029 A 
HETATM   29  C16 UNK     1      32.229  -8.431  30.548  1.00  0.00     0.009 A 
HETATM   30  C19 UNK     1      31.110  -6.644  29.218  1.00  0.00     0.051 C 
HETATM   31  C21 UNK     1      32.211  -9.657  31.214  1.00  0.00     0.001 A 
HETATM   32  C20 UNK     1      31.038 -10.411  31.255  1.00  0.00     0.003 A 
HETATM   33  C15 UNK     1      29.883  -9.939  30.632  1.00  0.00     0.037 A 
ENDBRANCH  26  27
ENDBRANCH  25  26
ENDBRANCH  24  25
ENDBRANCH  23  24
ENDBRANCH  17  23
ENDBRANCH   2  14
TORSDOF 10
ENDMDL
MODEL 3
REMARK VINA RESULT:      -7.5      0.988      2.654
REMARK  10 active torsions:
REMARK  status: ('A' for Active; 'I' for Inactive)
REMARK    1  A    between atoms: C1_8  and  O1_1 
REMARK    2  A    between atoms: C5_12  and  O1_1 
REMARK    3  A    between atoms: C10_17  and  O2_2 
REMARK    4  A    between atoms: C6_13  and  O2_2 
REMARK    5  A    between atoms: C14_21  and  O3_3 
REMARK    6  A    between atoms: C3_10  and  O3_3 
REMARK    7  A    between atoms: C22_29  and  N1_6 
REMARK    8  A    between atoms: C2_9  and  C9_16 
REMARK    9  A    between atoms: C5_12  and  C6_13 
REMARK   10  A    between atoms: C12_19  and  C13_20 
ROOT
HETATM    1  N2  UNK     1      30.014  -2.587  30.009  1.00  0.00    -0.191 NA
HETATM    2  C9  UNK     1      30.437  -4.886  32.545  1.00  0.00     0.035 C 
HETATM    3  C12 UNK     1      30.208  -4.888  31.204  1.00  0.00     0.055 C 
HETATM    4  C26 UNK     1      30.102  -3.610  30.551  1.00  0.00     0.100 C 
ENDROOT
BRANCH   3   5
HETATM    5  C13 UNK     1      30.073  -6.098  30.408  1.00  0.00    -0.015 A 
HETATM    6  C17 UNK     1      31.155  -6.566  29.662  1.00  0.00     0.015 A 
HETATM    7  C23 UNK     1      31.027  -7.727  28.901  1.00  0.00     0.037 A 
HETATM    8  C22 UNK     1      29.816  -8.420  28.883  1.00  0.00     0.102 A 
HETATM    9  C24 UNK     1      28.734  -7.952  29.628  1.00  0.00     0.037 A 
HETATM   10  C18 UNK     1      28.863  -6.790  30.391  1.00  0.00     0.015 A 
BRANCH   8  11
HETATM   11  N1  UNK     1      29.684  -9.602  28.107  1.00  0.00    -0.116 N 
HETATM   12  O4  UNK     1      28.647 -10.297  28.230  1.00  0.00    -0.532 OA
HETATM   13  O5  UNK     1      30.609  -9.920  27.321  1.00  0.00    -0.532 OA
ENDBRANCH   8  11
ENDBRANCH   3   5
BRANCH   2  14
HETATM   14  C2  UNK     1      30.555  -6.078  33.396  1.00  0.00    -0.032 A 
HETATM   15  C4  UNK     1      31.733  -6.826  33.390  1.00  0.00     0.051 A 
HETATM   16  C3  UNK     1      31.843  -7.958  34.197  1.00  0.00     0.102 A 
HETATM   17  C1  UNK     1      30.777  -8.343  35.011  1.00  0.00     0.102 A 
HETATM   18  C7  UNK     1      29.600  -7.595  35.016  1.00  0.00     0.040 A 
HETATM   19  C8  UNK     1      29.488  -6.464  34.209  1.00  0.00     0.014 A 
BRANCH  16  20
HETATM   20  O3  UNK     1      32.999  -8.680  34.184  1.00  0.00    -0.349 OA
BRANCH  20  21
HETATM   21  C14 UNK     1      34.138  -8.069  33.581  1.00  0.00     0.171 C 
HETATM   22  C25 UNK     1      35.095  -7.630  34.669  1.00  0.00     0.034 C 
ENDBRANCH  20  21
ENDBRANCH  16  20
BRANCH  17  23
HETATM   23  O1  UNK     1      30.874  -9.446  35.804  1.00  0.00    -0.346 OA
BRANCH  23  24
HETATM   24  C5  UNK     1      30.699  -9.253  37.206  1.00  0.00     0.202 C 
BRANCH  24  25
HETATM   25  C6  UNK     1      31.989  -8.716  37.796  1.00  0.00     0.202 C 
BRANCH  25  26
HETATM   26  O2  UNK     1      31.699  -7.560  38.573  1.00  0.00    -0.348 OA
BRANCH  26  27
HETATM   27  C10 UNK     1      31.689  -6.360  37.912  1.00  0.00     0.074 A 
HETATM   28  C11 UNK     1      30.598  -5.497  38.016  1.00  0.00    -0.029 A 
HETATM   29  C16 UNK     1      30.604  -4.279  37.336  1.00  0.00     0.009 A 
HETATM   30  C19 UNK     1      29.414  -5.862  38.849  1.00  0.00     0.051 C 
HETATM   31  C21 UNK     1      31.703  -3.923  36.553  1.00  0.00     0.001 A 
HETATM   32  C20 UNK     1      32.794  -4.786  36.450  1.00  0.00     0.003 A 
HETATM   33  C15 UNK     1      32.787  -6.004  37.129  1.00  0.00     0.037 A 
ENDBRANCH  26  27
ENDBRANCH  25  26
ENDBRANCH  24  25
ENDBRANCH  23  24
ENDBRANCH  17  23
ENDBRANCH   2  14
TORSDOF 10
ENDMDL
MODEL 4
REMARK VINA RESULT:      -7.4      3.261      7.801
REMARK  10 active torsions:
REMARK  status: ('A' for Active; 'I' for Inactive)
REMARK    1  A    between atoms: C1_8  and  O1_1 
REMARK    2  A    between atoms: C5_12  and  O1_1 
REMARK    3  A    between atoms: C10_17  and  O2_2 
REMARK    4  A    between atoms: C6_13  and  O2_2 
REMARK    5  A    between atoms: C14_21  and  O3_3 
REMARK    6  A    between atoms: C3_10  and  O3_3 
REMARK    7  A    between atoms: C22_29  and  N1_6 
REMARK    8  A    between atoms: C2_9  and  C9_16 
REMARK    9  A    between atoms: C5_12  and  C6_13 
REMARK   10  A    between atoms: C12_19  and  C13_20 
ROOT
HETATM    1  N2  UNK     1      35.606  -5.918  36.252  1.00  0.00    -0.191 NA
HETATM    2  C9  UNK     1      32.832  -6.474  34.281  1.00  0.00     0.035 C 
HETATM    3  C12 UNK     1      33.111  -5.997  35.523  1.00  0.00     0.055 C 
HETATM    4  C26 UNK     1      34.495  -5.957  35.918  1.00  0.00     0.100 C 
ENDROOT
BRANCH   3   5
HETATM    5  C13 UNK     1      32.099  -5.527  36.456  1.00  0.00    -0.015 A 
HETATM    6  C17 UNK     1      31.444  -6.433  37.289  1.00  0.00     0.015 A 
HETATM    7  C23 UNK     1      30.475  -5.983  38.185  1.00  0.00     0.037 A 
HETATM    8  C22 UNK     1      30.159  -4.625  38.246  1.00  0.00     0.102 A 
HETATM    9  C24 UNK     1      30.814  -3.719  37.413  1.00  0.00     0.037 A 
HETATM   10  C18 UNK     1      31.785  -4.170  36.518  1.00  0.00     0.015 A 
BRANCH   8  11
HETATM   11  N1  UNK     1      29.172  -4.165  39.158  1.00  0.00    -0.116 N 
HETATM   12  O4  UNK     1      29.538  -3.557  40.194  1.00  0.00    -0.532 OA
HETATM   13  O5  UNK     1      27.962  -4.379  38.904  1.00  0.00    -0.532 OA
ENDBRANCH   8  11
ENDBRANCH   3   5
BRANCH   2  14
HETATM   14  C2  UNK     1      31.489  -6.617  33.700  1.00  0.00    -0.032 A 
HETATM   15  C4  UNK     1      30.923  -5.562  32.985  1.00  0.00     0.051 A 
HETATM   16  C3  UNK     1      29.648  -5.697  32.435  1.00  0.00     0.102 A 
HETATM   17  C1  UNK     1      28.940  -6.888  32.599  1.00  0.00     0.102 A 
HETATM   18  C7  UNK     1      29.506  -7.943  33.314  1.00  0.00     0.040 A 
HETATM   19  C8  UNK     1      30.780  -7.807  33.865  1.00  0.00     0.014 A 
BRANCH  16  20
HETATM   20  O3  UNK     1      29.105  -4.659  31.739  1.00  0.00    -0.349 OA
BRANCH  20  21
HETATM   21  C14 UNK     1      29.948  -4.000  30.796  1.00  0.00     0.171 C 
HETATM   22  C25 UNK     1      30.040  -2.533  31.160  1.00  0.00     0.034 C 
ENDBRANCH  20  21
ENDBRANCH  16  20
BRANCH  17  23
HETATM   23  O1  UNK     1      27.695  -7.033  32.066  1.00  0.00    -0.346 OA
BRANCH  23  24
HETATM   24  C5  UNK     1      27.608  -7.162  30.648  1.00  0.00     0.202 C 
BRANCH  24  25
HETATM   25  C6  UNK     1      27.847  -8.610  30.268  1.00  0.00     0.202 C 
BRANCH  25  26
HETATM   26  O2  UNK     1      28.976  -8.683  29.405  1.00  0.00    -0.348 OA
BRANCH  26  27
HETATM   27  C10 UNK     1      30.181  -8.976  29.988  1.00  0.00     0.074 A 
HETATM   28  C11 UNK     1      31.256  -8.095  29.884  1.00  0.00    -0.029 A 
HETATM   29  C16 UNK     1      32.477  -8.409  30.484  1.00  0.00     0.009 A 
HETATM   30  C19 UNK     1      31.121  -6.810  29.134  1.00  0.00     0.051 C 
HETATM   31  C21 UNK     1      32.620  -9.605  31.188  1.00  0.00     0.001 A 
HETATM   32  C20 UNK     1      31.543 -10.486  31.292  1.00  0.00     0.003 A 
HETATM   33  C15 UNK     1      30.324 -10.172  30.691  1.00  0.00     0.037 A 
ENDBRANCH  26  27
ENDBRANCH  25  26
ENDBRANCH  24  25
ENDBRANCH  23  24
ENDBRANCH  17  23
ENDBRANCH   2  14
TORSDOF 10
ENDMDL
MODEL 5
REMARK VINA RESULT:      -7.2      3.060      7.505
REMARK  10 active torsions:
REMARK  status: ('A' for Active; 'I' for Inactive)
REMARK    1  A    between atoms: C1_8  and  O1_1 
REMARK    2  A    between atoms: C5_12  and  O1_1 
REMARK    3  A    between atoms: C10_17  and  O2_2 
REMARK    4  A    between atoms: C6_13  and  O2_2 
REMARK    5  A    between atoms: C14_21  and  O3_3 
REMARK    6  A    between atoms: C3_10  and  O3_3 
REMARK    7  A    between atoms: C22_29  and  N1_6 
REMARK    8  A    between atoms: C2_9  and  C9_16 
REMARK    9  A    between atoms: C5_12  and  C6_13 
REMARK   10  A    between atoms: C12_19  and  C13_20 
ROOT
HETATM    1  N2  UNK     1      35.592  -5.593  35.993  1.00  0.00    -0.191 NA
HETATM    2  C9  UNK     1      32.791  -6.323  34.119  1.00  0.00     0.035 C 
HETATM    3  C12 UNK     1      33.083  -5.847  35.359  1.00  0.00     0.055 C 
HETATM    4  C26 UNK     1      34.475  -5.710  35.701  1.00  0.00     0.100 C 
ENDROOT
BRANCH   3   5
HETATM    5  C13 UNK     1      32.077  -5.470  36.339  1.00  0.00    -0.015 A 
HETATM    6  C17 UNK     1      31.708  -4.132  36.481  1.00  0.00     0.015 A 
HETATM    7  C23 UNK     1      30.742  -3.771  37.420  1.00  0.00     0.037 A 
HETATM    8  C22 UNK     1      30.146  -4.747  38.218  1.00  0.00     0.102 A 
HETATM    9  C24 UNK     1      30.514  -6.085  38.077  1.00  0.00     0.037 A 
HETATM   10  C18 UNK     1      31.480  -6.446  37.137  1.00  0.00     0.015 A 
BRANCH   8  11
HETATM   11  N1  UNK     1      29.162  -4.380  39.175  1.00  0.00    -0.116 N 
HETATM   12  O4  UNK     1      28.007  -4.861  39.074  1.00  0.00    -0.532 OA
HETATM   13  O5  UNK     1      29.474  -3.585  40.093  1.00  0.00    -0.532 OA
ENDBRANCH   8  11
ENDBRANCH   3   5
BRANCH   2  14
HETATM   14  C2  UNK     1      31.441  -6.556  33.587  1.00  0.00    -0.032 A 
HETATM   15  C4  UNK     1      30.844  -7.809  33.725  1.00  0.00     0.051 A 
HETATM   16  C3  UNK     1      29.563  -8.031  33.219  1.00  0.00     0.102 A 
HETATM   17  C1  UNK     1      28.878  -6.999  32.577  1.00  0.00     0.102 A 
HETATM   18  C7  UNK     1      29.475  -5.746  32.439  1.00  0.00     0.040 A 
HETATM   19  C8  UNK     1      30.756  -5.525  32.944  1.00  0.00     0.014 A 
BRANCH  16  20
HETATM   20  O3  UNK     1      28.990  -9.259  33.360  1.00  0.00    -0.349 OA
BRANCH  20  21
HETATM   21  C14 UNK     1      28.999  -9.833  34.665  1.00  0.00     0.171 C 
HETATM   22  C25 UNK     1      27.915  -9.183  35.498  1.00  0.00     0.034 C 
ENDBRANCH  20  21
ENDBRANCH  16  20
BRANCH  17  23
HETATM   23  O1  UNK     1      27.626  -7.203  32.080  1.00  0.00    -0.346 OA
BRANCH  23  24
HETATM   24  C5  UNK     1      27.514  -8.031  30.925  1.00  0.00     0.202 C 
BRANCH  24  25
HETATM   25  C6  UNK     1      28.180  -7.338  29.752  1.00  0.00     0.202 C 
BRANCH  25  26
HETATM   26  O2  UNK     1      29.103  -8.235  29.145  1.00  0.00    -0.348 OA
BRANCH  26  27
HETATM   27  C10 UNK     1      30.409  -8.144  29.551  1.00  0.00     0.074 A 
HETATM   28  C11 UNK     1      31.043  -9.227  30.161  1.00  0.00    -0.029 A 
HETATM   29  C16 UNK     1      32.373  -9.117  30.569  1.00  0.00     0.009 A 
HETATM   30  C19 UNK     1      30.314 -10.511  30.386  1.00  0.00     0.051 C 
HETATM   31  C21 UNK     1      33.068  -7.924  30.366  1.00  0.00     0.001 A 
HETATM   32  C20 UNK     1      32.433  -6.842  29.756  1.00  0.00     0.003 A 
HETATM   33  C15 UNK     1      31.103  -6.952  29.349  1.00  0.00     0.037 A 
ENDBRANCH  26  27
ENDBRANCH  25  26
ENDBRANCH  24  25
ENDBRANCH  23  24
ENDBRANCH  17  23
ENDBRANCH   2  14
TORSDOF 10
ENDMDL
MODEL 6
REMARK VINA RESULT:      -7.1      1.988      3.341
REMARK  10 active torsions:
REMARK  status: ('A' for Active; 'I' for Inactive)
REMARK    1  A    between atoms: C1_8  and  O1_1 
REMARK    2  A    between atoms: C5_12  and  O1_1 
REMARK    3  A    between atoms: C10_17  and  O2_2 
REMARK    4  A    between atoms: C6_13  and  O2_2 
REMARK    5  A    between atoms: C14_21  and  O3_3 
REMARK    6  A    between atoms: C3_10  and  O3_3 
REMARK    7  A    between atoms: C22_29  and  N1_6 
REMARK    8  A    between atoms: C2_9  and  C9_16 
REMARK    9  A    between atoms: C5_12  and  C6_13 
REMARK   10  A    between atoms: C12_19  and  C13_20 
ROOT
HETATM    1  N2  UNK     1      25.019  -6.277  30.252  1.00  0.00    -0.191 NA
HETATM    2  C9  UNK     1      27.570  -6.528  32.559  1.00  0.00     0.035 C 
HETATM    3  C12 UNK     1      27.343  -6.861  31.260  1.00  0.00     0.055 C 
HETATM    4  C26 UNK     1      26.054  -6.534  30.711  1.00  0.00     0.100 C 
ENDROOT
BRANCH   3   5
HETATM    5  C13 UNK     1      28.325  -7.516  30.410  1.00  0.00    -0.015 A 
HETATM    6  C17 UNK     1      29.410  -6.793  29.913  1.00  0.00     0.015 A 
HETATM    7  C23 UNK     1      30.352  -7.421  29.099  1.00  0.00     0.037 A 
HETATM    8  C22 UNK     1      30.209  -8.772  28.780  1.00  0.00     0.102 A 
HETATM    9  C24 UNK     1      29.125  -9.494  29.277  1.00  0.00     0.037 A 
HETATM   10  C18 UNK     1      28.183  -8.866  30.092  1.00  0.00     0.015 A 
BRANCH   8  11
HETATM   11  N1  UNK     1      31.168  -9.412  27.951  1.00  0.00    -0.116 N 
HETATM   12  O4  UNK     1      32.371  -9.064  28.033  1.00  0.00    -0.532 OA
HETATM   13  O5  UNK     1      30.787 -10.308  27.159  1.00  0.00    -0.532 OA
ENDBRANCH   8  11
ENDBRANCH   3   5
BRANCH   2  14
HETATM   14  C2  UNK     1      28.806  -6.794  33.309  1.00  0.00    -0.032 A 
HETATM   15  C4  UNK     1      29.863  -5.886  33.256  1.00  0.00     0.051 A 
HETATM   16  C3  UNK     1      31.036  -6.139  33.967  1.00  0.00     0.102 A 
HETATM   17  C1  UNK     1      31.151  -7.301  34.732  1.00  0.00     0.102 A 
HETATM   18  C7  UNK     1      30.094  -8.209  34.784  1.00  0.00     0.040 A 
HETATM   19  C8  UNK     1      28.922  -7.956  34.073  1.00  0.00     0.014 A 
BRANCH  16  20
HETATM   20  O3  UNK     1      32.062  -5.245  33.908  1.00  0.00    -0.349 OA
BRANCH  20  21
HETATM   21  C14 UNK     1      32.170  -4.311  34.980  1.00  0.00     0.171 C 
HETATM   22  C25 UNK     1      33.634  -4.077  35.285  1.00  0.00     0.034 C 
ENDBRANCH  20  21
ENDBRANCH  16  20
BRANCH  17  23
HETATM   23  O1  UNK     1      32.291  -7.559  35.431  1.00  0.00    -0.346 OA
BRANCH  23  24
HETATM   24  C5  UNK     1      32.271  -8.680  36.313  1.00  0.00     0.202 C 
BRANCH  24  25
HETATM   25  C6  UNK     1      32.336  -8.185  37.745  1.00  0.00     0.202 C 
BRANCH  25  26
HETATM   26  O2  UNK     1      31.019  -8.139  38.281  1.00  0.00    -0.348 OA
BRANCH  26  27
HETATM   27  C10 UNK     1      30.451  -6.900  38.416  1.00  0.00     0.074 A 
HETATM   28  C11 UNK     1      29.089  -6.766  38.687  1.00  0.00    -0.029 A 
HETATM   29  C16 UNK     1      28.526  -5.496  38.822  1.00  0.00     0.009 A 
HETATM   30  C19 UNK     1      28.218  -7.970  38.836  1.00  0.00     0.051 C 
HETATM   31  C21 UNK     1      29.326  -4.361  38.686  1.00  0.00     0.001 A 
HETATM   32  C20 UNK     1      30.688  -4.496  38.414  1.00  0.00     0.003 A 
HETATM   33  C15 UNK     1      31.250  -5.765  38.279  1.00  0.00     0.037 A 
ENDBRANCH  26  27
ENDBRANCH  25  26
ENDBRANCH  24  25
ENDBRANCH  23  24
ENDBRANCH  17  23
ENDBRANCH   2  14
TORSDOF 10
ENDMDL
MODEL 7
REMARK VINA RESULT:      -7.1      2.030      2.893
REMARK  10 active torsions:
REMARK  status: ('A' for Active; 'I' for Inactive)
REMARK    1  A    between atoms: C1_8  and  O1_1 
REMARK    2  A    between atoms: C5_12  and  O1_1 
REMARK    3  A    between atoms: C10_17  and  O2_2 
REMARK    4  A    between atoms: C6_13  and  O2_2 
REMARK    5  A    between atoms: C14_21  and  O3_3 
REMARK    6  A    between atoms: C3_10  and  O3_3 
REMARK    7  A    between atoms: C22_29  and  N1_6 
REMARK    8  A    between atoms: C2_9  and  C9_16 
REMARK    9  A    between atoms: C5_12  and  C6_13 
REMARK   10  A    between atoms: C12_19  and  C13_20 
ROOT
HETATM    1  N2  UNK     1      35.503  -6.773  29.393  1.00  0.00    -0.191 NA
HETATM    2  C9  UNK     1      33.846  -7.186  32.389  1.00  0.00     0.035 C 
HETATM    3  C12 UNK     1      33.604  -7.375  31.064  1.00  0.00     0.055 C 
HETATM    4  C26 UNK     1      34.661  -7.039  30.146  1.00  0.00     0.100 C 
ENDROOT
BRANCH   3   5
HETATM    5  C13 UNK     1      32.354  -7.898  30.537  1.00  0.00    -0.015 A 
HETATM    6  C17 UNK     1      31.367  -7.021  30.085  1.00  0.00     0.015 A 
HETATM    7  C23 UNK     1      30.169  -7.521  29.577  1.00  0.00     0.037 A 
HETATM    8  C22 UNK     1      29.955  -8.900  29.524  1.00  0.00     0.102 A 
HETATM    9  C24 UNK     1      30.941  -9.776  29.976  1.00  0.00     0.037 A 
HETATM   10  C18 UNK     1      32.140  -9.275  30.483  1.00  0.00     0.015 A 
BRANCH   8  11
HETATM   11  N1  UNK     1      28.734  -9.410  29.007  1.00  0.00    -0.116 N 
HETATM   12  O4  UNK     1      28.773 -10.339  28.164  1.00  0.00    -0.532 OA
HETATM   13  O5  UNK     1      27.652  -8.918  29.408  1.00  0.00    -0.532 OA
ENDBRANCH   8  11
ENDBRANCH   3   5
BRANCH   2  14
HETATM   14  C2  UNK     1      32.895  -7.445  33.480  1.00  0.00    -0.032 A 
HETATM   15  C4  UNK     1      31.751  -6.658  33.609  1.00  0.00     0.051 A 
HETATM   16  C3  UNK     1      30.850  -6.903  34.645  1.00  0.00     0.102 A 
HETATM   17  C1  UNK     1      31.091  -7.937  35.550  1.00  0.00     0.102 A 
HETATM   18  C7  UNK     1      32.235  -8.724  35.421  1.00  0.00     0.040 A 
HETATM   19  C8  UNK     1      33.137  -8.478  34.386  1.00  0.00     0.014 A 
BRANCH  16  20
HETATM   20  O3  UNK     1      29.736  -6.128  34.761  1.00  0.00    -0.349 OA
BRANCH  20  21
HETATM   21  C14 UNK     1      28.536  -6.623  34.169  1.00  0.00     0.171 C 
HETATM   22  C25 UNK     1      28.340  -5.959  32.823  1.00  0.00     0.034 C 
ENDBRANCH  20  21
ENDBRANCH  16  20
BRANCH  17  23
HETATM   23  O1  UNK     1      30.218  -8.187  36.565  1.00  0.00    -0.346 OA
BRANCH  23  24
HETATM   24  C5  UNK     1      30.688  -7.972  37.893  1.00  0.00     0.202 C 
BRANCH  24  25
HETATM   25  C6  UNK     1      30.602  -6.492  38.215  1.00  0.00     0.202 C 
BRANCH  25  26
HETATM   26  O2  UNK     1      31.910  -5.998  38.481  1.00  0.00    -0.348 OA
BRANCH  26  27
HETATM   27  C10 UNK     1      32.545  -5.351  37.454  1.00  0.00     0.074 A 
HETATM   28  C11 UNK     1      33.805  -5.766  37.020  1.00  0.00    -0.029 A 
HETATM   29  C16 UNK     1      34.438  -5.095  35.973  1.00  0.00     0.009 A 
HETATM   30  C19 UNK     1      34.490  -6.925  37.665  1.00  0.00     0.051 C 
HETATM   31  C21 UNK     1      33.811  -4.009  35.360  1.00  0.00     0.001 A 
HETATM   32  C20 UNK     1      32.552  -3.594  35.795  1.00  0.00     0.003 A 
HETATM   33  C15 UNK     1      31.919  -4.265  36.842  1.00  0.00     0.037 A 
ENDBRANCH  26  27
ENDBRANCH  25  26
ENDBRANCH  24  25
ENDBRANCH  23  24
ENDBRANCH  17  23
ENDBRANCH   2  14
TORSDOF 10
ENDMDL
MODEL 8
REMARK VINA RESULT:      -7.1      2.970      6.619
REMARK  10 active torsions:
REMARK  status: ('A' for Active; 'I' for Inactive)
REMARK    1  A    between atoms: C1_8  and  O1_1 
REMARK    2  A    between atoms: C5_12  and  O1_1 
REMARK    3  A    between atoms: C10_17  and  O2_2 
REMARK    4  A    between atoms: C6_13  and  O2_2 
REMARK    5  A    between atoms: C14_21  and  O3_3 
REMARK    6  A    between atoms: C3_10  and  O3_3 
REMARK    7  A    between atoms: C22_29  and  N1_6 
REMARK    8  A    between atoms: C2_9  and  C9_16 
REMARK    9  A    between atoms: C5_12  and  C6_13 
REMARK   10  A    between atoms: C12_19  and  C13_20 
ROOT
HETATM    1  N2  UNK     1      29.429  -3.760  39.872  1.00  0.00    -0.191 NA
HETATM    2  C9  UNK     1      28.825  -6.186  37.497  1.00  0.00     0.035 C 
HETATM    3  C12 UNK     1      29.853  -5.386  37.887  1.00  0.00     0.055 C 
HETATM    4  C26 UNK     1      29.609  -4.489  38.987  1.00  0.00     0.100 C 
ENDROOT
BRANCH   3   5
HETATM    5  C13 UNK     1      31.167  -5.394  37.264  1.00  0.00    -0.015 A 
HETATM    6  C17 UNK     1      31.412  -4.600  36.143  1.00  0.00     0.015 A 
HETATM    7  C23 UNK     1      32.672  -4.607  35.546  1.00  0.00     0.037 A 
HETATM    8  C22 UNK     1      33.687  -5.409  36.069  1.00  0.00     0.102 A 
HETATM    9  C24 UNK     1      33.442  -6.203  37.188  1.00  0.00     0.037 A 
HETATM   10  C18 UNK     1      32.181  -6.195  37.786  1.00  0.00     0.015 A 
BRANCH   8  11
HETATM   11  N1  UNK     1      34.971  -5.417  35.461  1.00  0.00    -0.116 N 
HETATM   12  O4  UNK     1      35.105  -4.915  34.318  1.00  0.00    -0.532 OA
HETATM   13  O5  UNK     1      35.935  -5.925  36.083  1.00  0.00    -0.532 OA
ENDBRANCH   8  11
ENDBRANCH   3   5
BRANCH   2  14
HETATM   14  C2  UNK     1      28.863  -7.149  36.387  1.00  0.00    -0.032 A 
HETATM   15  C4  UNK     1      29.583  -8.337  36.519  1.00  0.00     0.051 A 
HETATM   16  C3  UNK     1      29.619  -9.250  35.465  1.00  0.00     0.102 A 
HETATM   17  C1  UNK     1      28.935  -8.977  34.280  1.00  0.00     0.102 A 
HETATM   18  C7  UNK     1      28.215  -7.790  34.149  1.00  0.00     0.040 A 
HETATM   19  C8  UNK     1      28.179  -6.876  35.202  1.00  0.00     0.014 A 
BRANCH  16  20
HETATM   20  O3  UNK     1      30.326 -10.406  35.605  1.00  0.00    -0.349 OA
BRANCH  20  21
HETATM   21  C14 UNK     1      31.585 -10.320  36.269  1.00  0.00     0.171 C 
HETATM   22  C25 UNK     1      32.562  -9.583  35.379  1.00  0.00     0.034 C 
ENDBRANCH  20  21
ENDBRANCH  16  20
BRANCH  17  23
HETATM   23  O1  UNK     1      28.962  -9.861  33.245  1.00  0.00    -0.346 OA
BRANCH  23  24
HETATM   24  C5  UNK     1      30.222 -10.080  32.612  1.00  0.00     0.202 C 
BRANCH  24  25
HETATM   25  C6  UNK     1      30.118  -9.684  31.152  1.00  0.00     0.202 C 
BRANCH  25  26
HETATM   26  O2  UNK     1      30.950  -8.554  30.918  1.00  0.00    -0.348 OA
BRANCH  26  27
HETATM   27  C10 UNK     1      30.434  -7.328  31.246  1.00  0.00     0.074 A 
HETATM   28  C11 UNK     1      31.062  -6.520  32.194  1.00  0.00    -0.029 A 
HETATM   29  C16 UNK     1      30.522  -5.275  32.517  1.00  0.00     0.009 A 
HETATM   30  C19 UNK     1      32.313  -6.972  32.873  1.00  0.00     0.051 C 
HETATM   31  C21 UNK     1      29.354  -4.837  31.892  1.00  0.00     0.001 A 
HETATM   32  C20 UNK     1      28.726  -5.646  30.944  1.00  0.00     0.003 A 
HETATM   33  C15 UNK     1      29.266  -6.891  30.622  1.00  0.00     0.037 A 
ENDBRANCH  26  27
ENDBRANCH  25  26
ENDBRANCH  24  25
ENDBRANCH  23  24
ENDBRANCH  17  23
ENDBRANCH   2  14
TORSDOF 10
ENDMDL
MODEL 9
REMARK VINA RESULT:      -7.0      3.232      7.622
REMARK  10 active torsions:
REMARK  status: ('A' for Active; 'I' for Inactive)
REMARK    1  A    between atoms: C1_8  and  O1_1 
REMARK    2  A    between atoms: C5_12  and  O1_1 
REMARK    3  A    between atoms: C10_17  and  O2_2 
REMARK    4  A    between atoms: C6_13  and  O2_2 
REMARK    5  A    between atoms: C14_21  and  O3_3 
REMARK    6  A    between atoms: C3_10  and  O3_3 
REMARK    7  A    between atoms: C22_29  and  N1_6 
REMARK    8  A    between atoms: C2_9  and  C9_16 
REMARK    9  A    between atoms: C5_12  and  C6_13 
REMARK   10  A    between atoms: C12_19  and  C13_20 
ROOT
HETATM    1  N2  UNK     1      29.515  -3.644  39.923  1.00  0.00    -0.191 NA
HETATM    2  C9  UNK     1      30.697  -4.961  36.963  1.00  0.00     0.035 C 
HETATM    3  C12 UNK     1      29.844  -5.318  37.961  1.00  0.00     0.055 C 
HETATM    4  C26 UNK     1      29.668  -4.385  39.043  1.00  0.00     0.100 C 
ENDROOT
BRANCH   3   5
HETATM    5  C13 UNK     1      29.108  -6.572  37.986  1.00  0.00    -0.015 A 
HETATM    6  C17 UNK     1      29.750  -7.749  38.373  1.00  0.00     0.015 A 
HETATM    7  C23 UNK     1      29.044  -8.952  38.399  1.00  0.00     0.037 A 
HETATM    8  C22 UNK     1      27.697  -8.978  38.035  1.00  0.00     0.102 A 
HETATM    9  C24 UNK     1      27.057  -7.802  37.648  1.00  0.00     0.037 A 
HETATM   10  C18 UNK     1      27.762  -6.598  37.624  1.00  0.00     0.015 A 
BRANCH   8  11
HETATM   11  N1  UNK     1      26.978 -10.203  38.061  1.00  0.00    -0.116 N 
HETATM   12  O4  UNK     1      27.042 -10.923  39.087  1.00  0.00    -0.532 OA
HETATM   13  O5  UNK     1      26.298 -10.530  37.059  1.00  0.00    -0.532 OA
ENDBRANCH   8  11
ENDBRANCH   3   5
BRANCH   2  14
HETATM   14  C2  UNK     1      31.029  -5.777  35.787  1.00  0.00    -0.032 A 
HETATM   15  C4  UNK     1      32.331  -6.245  35.608  1.00  0.00     0.051 A 
HETATM   16  C3  UNK     1      32.646  -7.019  34.491  1.00  0.00     0.102 A 
HETATM   17  C1  UNK     1      31.659  -7.325  33.553  1.00  0.00     0.102 A 
HETATM   18  C7  UNK     1      30.358  -6.857  33.732  1.00  0.00     0.040 A 
HETATM   19  C8  UNK     1      30.043  -6.083  34.848  1.00  0.00     0.014 A 
BRANCH  16  20
HETATM   20  O3  UNK     1      33.921  -7.471  34.327  1.00  0.00    -0.349 OA
BRANCH  20  21
HETATM   21  C14 UNK     1      34.932  -6.490  34.104  1.00  0.00     0.171 C 
HETATM   22  C25 UNK     1      36.035  -6.679  35.125  1.00  0.00     0.034 C 
ENDBRANCH  20  21
ENDBRANCH  16  20
BRANCH  17  23
HETATM   23  O1  UNK     1      31.954  -8.081  32.459  1.00  0.00    -0.346 OA
BRANCH  23  24
HETATM   24  C5  UNK     1      32.479  -7.398  31.322  1.00  0.00     0.202 C 
BRANCH  24  25
HETATM   25  C6  UNK     1      31.891  -8.007  30.064  1.00  0.00     0.202 C 
BRANCH  25  26
HETATM   26  O2  UNK     1      30.965  -7.090  29.493  1.00  0.00    -0.348 OA
BRANCH  26  27
HETATM   27  C10 UNK     1      29.651  -7.236  29.854  1.00  0.00     0.074 A 
HETATM   28  C11 UNK     1      28.950  -6.179  30.436  1.00  0.00    -0.029 A 
HETATM   29  C16 UNK     1      27.613  -6.345  30.798  1.00  0.00     0.009 A 
HETATM   30  C19 UNK     1      29.615  -4.864  30.678  1.00  0.00     0.051 C 
HETATM   31  C21 UNK     1      26.977  -7.567  30.578  1.00  0.00     0.001 A 
HETATM   32  C20 UNK     1      27.679  -8.624  29.997  1.00  0.00     0.003 A 
HETATM   33  C15 UNK     1      29.016  -8.458  29.636  1.00  0.00     0.037 A 
ENDBRANCH  26  27
ENDBRANCH  25  26
ENDBRANCH  24  25
ENDBRANCH  23  24
ENDBRANCH  17  23
ENDBRANCH   2  14
TORSDOF 10
ENDMDL
MODEL 10
REMARK VINA RESULT:      -7.0      3.279      7.380
REMARK  10 active torsions:
REMARK  status: ('A' for Active; 'I' for Inactive)
REMARK    1  A    between atoms: C1_8  and  O1_1 
REMARK    2  A    between atoms: C5_12  and  O1_1 
REMARK    3  A    between atoms: C10_17  and  O2_2 
REMARK    4  A    between atoms: C6_13  and  O2_2 
REMARK    5  A    between atoms: C14_21  and  O3_3 
REMARK    6  A    between atoms: C3_10  and  O3_3 
REMARK    7  A    between atoms: C22_29  and  N1_6 
REMARK    8  A    between atoms: C2_9  and  C9_16 
REMARK    9  A    between atoms: C5_12  and  C6_13 
REMARK   10  A    between atoms: C12_19  and  C13_20 
ROOT
HETATM    1  N2  UNK     1      29.516  -3.565  39.932  1.00  0.00    -0.191 NA
HETATM    2  C9  UNK     1      30.642  -4.887  36.952  1.00  0.00     0.035 C 
HETATM    3  C12 UNK     1      29.818  -5.247  37.972  1.00  0.00     0.055 C 
HETATM    4  C26 UNK     1      29.657  -4.310  39.053  1.00  0.00     0.100 C 
ENDROOT
BRANCH   3   5
HETATM    5  C13 UNK     1      29.098  -6.510  38.023  1.00  0.00    -0.015 A 
HETATM    6  C17 UNK     1      27.724  -6.540  37.779  1.00  0.00     0.015 A 
HETATM    7  C23 UNK     1      27.033  -7.750  37.825  1.00  0.00     0.037 A 
HETATM    8  C22 UNK     1      27.716  -8.932  38.118  1.00  0.00     0.102 A 
HETATM    9  C24 UNK     1      29.088  -8.902  38.363  1.00  0.00     0.037 A 
HETATM   10  C18 UNK     1      29.779  -7.691  38.315  1.00  0.00     0.015 A 
BRANCH   8  11
HETATM   11  N1  UNK     1      27.013 -10.165  38.166  1.00  0.00    -0.116 N 
HETATM   12  O4  UNK     1      26.289 -10.490  37.194  1.00  0.00    -0.532 OA
HETATM   13  O5  UNK     1      27.135 -10.895  39.179  1.00  0.00    -0.532 OA
ENDBRANCH   8  11
ENDBRANCH   3   5
BRANCH   2  14
HETATM   14  C2  UNK     1      30.955  -5.706  35.773  1.00  0.00    -0.032 A 
HETATM   15  C4  UNK     1      29.932  -6.356  35.083  1.00  0.00     0.051 A 
HETATM   16  C3  UNK     1      30.231  -7.135  33.965  1.00  0.00     0.102 A 
HETATM   17  C1  UNK     1      31.552  -7.264  33.537  1.00  0.00     0.102 A 
HETATM   18  C7  UNK     1      32.575  -6.614  34.227  1.00  0.00     0.040 A 
HETATM   19  C8  UNK     1      32.277  -5.836  35.345  1.00  0.00     0.014 A 
BRANCH  16  20
HETATM   20  O3  UNK     1      29.223  -7.764  33.299  1.00  0.00    -0.349 OA
BRANCH  20  21
HETATM   21  C14 UNK     1      28.694  -8.949  33.892  1.00  0.00     0.171 C 
HETATM   22  C25 UNK     1      29.047 -10.136  33.022  1.00  0.00     0.034 C 
ENDBRANCH  20  21
ENDBRANCH  16  20
BRANCH  17  23
HETATM   23  O1  UNK     1      31.856  -8.020  32.446  1.00  0.00    -0.346 OA
BRANCH  23  24
HETATM   24  C5  UNK     1      32.514  -7.364  31.364  1.00  0.00     0.202 C 
BRANCH  24  25
HETATM   25  C6  UNK     1      31.975  -7.906  30.054  1.00  0.00     0.202 C 
BRANCH  25  26
HETATM   26  O2  UNK     1      31.043  -6.975  29.516  1.00  0.00    -0.348 OA
BRANCH  26  27
HETATM   27  C10 UNK     1      29.724  -7.174  29.827  1.00  0.00     0.074 A 
HETATM   28  C11 UNK     1      28.976  -6.168  30.439  1.00  0.00    -0.029 A 
HETATM   29  C16 UNK     1      27.633  -6.387  30.749  1.00  0.00     0.009 A 
HETATM   30  C19 UNK     1      29.595  -4.850  30.769  1.00  0.00     0.051 C 
HETATM   31  C21 UNK     1      27.039  -7.613  30.447  1.00  0.00     0.001 A 
HETATM   32  C20 UNK     1      27.787  -8.619  29.836  1.00  0.00     0.003 A 
HETATM   33  C15 UNK     1      29.130  -8.400  29.526  1.00  0.00     0.037 A 
ENDBRANCH  26  27
ENDBRANCH  25  26
ENDBRANCH  24  25
ENDBRANCH  23  24
ENDBRANCH  17  23
ENDBRANCH   2  14
TORSDOF 10
ENDMDL
