MODEL 1
REMARK VINA RESULT:      -7.5      0.000      0.000
REMARK  8 active torsions:
REMARK  status: ('A' for Active; 'I' for Inactive)
REMARK    1  A    between atoms: C12_19  and  O2_2 
REMARK    2  A    between atoms: C6_13  and  O2_2 
REMARK    3  A    between atoms: C17_24  and  O5_5 
REMARK    4  A    between atoms: C10_17  and  N1_6 
REMARK    5  A    between atoms: C1_8  and  C3_10 
REMARK    6  A    between atoms: C11_18  and  C14_21 
REMARK    7  A    between atoms: C11_18  and  C12_19 
REMARK    8  A    between atoms: C14_21  and  C18_25 
ROOT
HETATM    1  O1  UNK     1      30.337 -10.467  34.166  1.00  0.00    -0.269 OA
HETATM    2  O3  UNK     1      29.179  -9.697  32.279  1.00  0.00    -0.286 OA
HETATM    3  O4  UNK     1      28.118  -6.261  34.184  1.00  0.00    -0.287 OA
HETATM    4  N2  UNK     1      31.846  -8.865  38.451  1.00  0.00    -0.191 NA
HETATM    5  C1  UNK     1      29.628  -8.176  35.736  1.00  0.00     0.111 C 
HETATM    6  C2  UNK     1      29.209  -8.373  34.295  1.00  0.00     0.066 A 
HETATM    7  C4  UNK     1      30.649  -9.215  36.179  1.00  0.00     0.086 C 
HETATM    8  C5  UNK     1      29.557  -9.469  33.593  1.00  0.00     0.204 A 
HETATM    9  C7  UNK     1      28.417  -7.308  33.623  1.00  0.00     0.197 A 
HETATM   10  C9  UNK     1      28.007  -7.576  32.238  1.00  0.00     0.049 A 
HETATM   11  C10 UNK     1      30.945 -10.283  35.406  1.00  0.00     0.162 C 
HETATM   12  C13 UNK     1      28.411  -8.764  31.637  1.00  0.00     0.092 A 
HETATM   13  C19 UNK     1      27.228  -6.656  31.531  1.00  0.00     0.018 A 
HETATM   14  C20 UNK     1      28.037  -9.043  30.321  1.00  0.00     0.038 A 
HETATM   15  C21 UNK     1      31.310  -9.021  37.434  1.00  0.00     0.100 C 
HETATM   16  C22 UNK     1      26.854  -6.937  30.216  1.00  0.00     0.001 A 
HETATM   17  C23 UNK     1      27.257  -8.129  29.612  1.00  0.00     0.003 A 
ENDROOT
BRANCH   5  18
HETATM   18  C3  UNK     1      28.430  -8.206  36.640  1.00  0.00    -0.011 A 
HETATM   19  C6  UNK     1      28.154  -7.134  37.480  1.00  0.00     0.078 A 
HETATM   20  C15 UNK     1      27.037  -7.179  38.316  1.00  0.00     0.074 A 
HETATM   21  C17 UNK     1      26.203  -8.298  38.305  1.00  0.00     0.070 A 
HETATM   22  C16 UNK     1      26.486  -9.370  37.459  1.00  0.00     0.037 A 
HETATM   23  C8  UNK     1      27.602  -9.325  36.623  1.00  0.00     0.014 A 
BRANCH  19  24
HETATM   24  O2  UNK     1      28.959  -6.035  37.504  1.00  0.00    -0.350 OA
BRANCH  24  25
HETATM   25  C12 UNK     1      29.743  -5.830  38.678  1.00  0.00     0.175 C 
BRANCH  25  26
HETATM   26  C11 UNK     1      31.109  -5.297  38.271  1.00  0.00     0.027 C 
BRANCH  26  27
HETATM   27  C14 UNK     1      31.092  -4.723  36.857  1.00  0.00     0.002 C 
BRANCH  27  28
HETATM   28  C18 UNK     1      32.111  -5.425  35.959  1.00  0.00    -0.004 C 
HETATM   29  C24 UNK     1      31.704  -5.358  34.496  1.00  0.00     0.005 C 
ENDBRANCH  27  28
ENDBRANCH  26  27
ENDBRANCH  25  26
ENDBRANCH  24  25
ENDBRANCH  19  24
BRANCH  21  30
HETATM   30  O5  UNK     1      25.114  -8.342  39.120  1.00  0.00    -0.356 OA
HETATM   31  C25 UNK     1      23.858  -7.986  38.544  1.00  0.00     0.210 C 
ENDBRANCH  21  30
ENDBRANCH   5  18
BRANCH  11  32
HETATM   32  N1  UNK     1      31.836 -11.268  35.734  1.00  0.00    -0.379 N 
HETATM   33  H15 UNK     1      31.739 -12.204  35.362  1.00  0.00     0.158 HD
HETATM   34  H16 UNK     1      32.602 -11.045  36.357  1.00  0.00     0.158 HD
ENDBRANCH  11  32
TORSDOF 8
ENDMDL
MODEL 2
REMARK VINA RESULT:      -7.2      3.252      7.039
REMARK  8 active torsions:
REMARK  status: ('A' for Active; 'I' for Inactive)
REMARK    1  A    between atoms: C12_19  and  O2_2 
REMARK    2  A    between atoms: C6_13  and  O2_2 
REMARK    3  A    between atoms: C17_24  and  O5_5 
REMARK    4  A    between atoms: C10_17  and  N1_6 
REMARK    5  A    between atoms: C1_8  and  C3_10 
REMARK    6  A    between atoms: C11_18  and  C14_21 
REMARK    7  A    between atoms: C11_18  and  C12_19 
REMARK    8  A    between atoms: C14_21  and  C18_25 
ROOT
HETATM    1  O1  UNK     1      30.488  -4.332  37.236  1.00  0.00    -0.269 OA
HETATM    2  O3  UNK     1      29.209  -5.949  38.349  1.00  0.00    -0.286 OA
HETATM    3  O4  UNK     1      31.421  -8.970  36.754  1.00  0.00    -0.287 OA
HETATM    4  N2  UNK     1      34.551  -3.996  34.669  1.00  0.00    -0.191 NA
HETATM    5  C1  UNK     1      32.114  -6.291  35.919  1.00  0.00     0.111 C 
HETATM    6  C2  UNK     1      30.999  -6.632  36.883  1.00  0.00     0.066 A 
HETATM    7  C4  UNK     1      32.420  -4.799  35.905  1.00  0.00     0.086 C 
HETATM    8  C5  UNK     1      30.252  -5.681  37.476  1.00  0.00     0.204 A 
HETATM    9  C7  UNK     1      30.742  -8.060  37.211  1.00  0.00     0.197 A 
HETATM   10  C9  UNK     1      29.620  -8.328  38.121  1.00  0.00     0.049 A 
HETATM   11  C10 UNK     1      31.618  -3.912  36.536  1.00  0.00     0.162 C 
HETATM   12  C13 UNK     1      28.908  -7.252  38.643  1.00  0.00     0.092 A 
HETATM   13  C19 UNK     1      29.270  -9.637  38.462  1.00  0.00     0.018 A 
HETATM   14  C20 UNK     1      27.839  -7.479  39.511  1.00  0.00     0.038 A 
HETATM   15  C21 UNK     1      33.597  -4.356  35.222  1.00  0.00     0.100 C 
HETATM   16  C22 UNK     1      28.200  -9.862  39.329  1.00  0.00     0.001 A 
HETATM   17  C23 UNK     1      27.485  -8.784  39.853  1.00  0.00     0.003 A 
ENDROOT
BRANCH   5  18
HETATM   18  C3  UNK     1      31.776  -6.764  34.536  1.00  0.00    -0.011 A 
HETATM   19  C6  UNK     1      32.584  -7.694  33.892  1.00  0.00     0.078 A 
HETATM   20  C15 UNK     1      32.256  -8.122  32.604  1.00  0.00     0.074 A 
HETATM   21  C17 UNK     1      31.122  -7.617  31.970  1.00  0.00     0.070 A 
HETATM   22  C16 UNK     1      30.315  -6.684  32.622  1.00  0.00     0.037 A 
HETATM   23  C8  UNK     1      30.643  -6.256  33.908  1.00  0.00     0.014 A 
BRANCH  19  24
HETATM   24  O2  UNK     1      33.696  -8.197  34.497  1.00  0.00    -0.350 OA
BRANCH  24  25
HETATM   25  C12 UNK     1      34.818  -8.480  33.662  1.00  0.00     0.175 C 
BRANCH  25  26
HETATM   26  C11 UNK     1      35.717  -7.252  33.613  1.00  0.00     0.027 C 
BRANCH  26  27
HETATM   27  C14 UNK     1      35.694  -6.592  32.237  1.00  0.00     0.002 C 
BRANCH  27  28
HETATM   28  C18 UNK     1      35.465  -7.620  31.129  1.00  0.00    -0.004 C 
HETATM   29  C24 UNK     1      34.695  -7.021  29.963  1.00  0.00     0.005 C 
ENDBRANCH  27  28
ENDBRANCH  26  27
ENDBRANCH  25  26
ENDBRANCH  24  25
ENDBRANCH  19  24
BRANCH  21  30
HETATM   30  O5  UNK     1      30.801  -8.034  30.714  1.00  0.00    -0.356 OA
HETATM   31  C25 UNK     1      30.793  -7.046  29.685  1.00  0.00     0.210 C 
ENDBRANCH  21  30
ENDBRANCH   5  18
BRANCH  11  32
HETATM   32  N1  UNK     1      31.810  -2.558  36.562  1.00  0.00    -0.379 N 
HETATM   33  H15 UNK     1      32.713  -2.164  36.789  1.00  0.00     0.158 HD
HETATM   34  H16 UNK     1      31.029  -1.951  36.345  1.00  0.00     0.158 HD
ENDBRANCH  11  32
TORSDOF 8
ENDMDL
MODEL 3
REMARK VINA RESULT:      -7.1      3.896      5.221
REMARK  8 active torsions:
REMARK  status: ('A' for Active; 'I' for Inactive)
REMARK    1  A    between atoms: C12_19  and  O2_2 
REMARK    2  A    between atoms: C6_13  and  O2_2 
REMARK    3  A    between atoms: C17_24  and  O5_5 
REMARK    4  A    between atoms: C10_17  and  N1_6 
REMARK    5  A    between atoms: C1_8  and  C3_10 
REMARK    6  A    between atoms: C11_18  and  C14_21 
REMARK    7  A    between atoms: C11_18  and  C12_19 
REMARK    8  A    between atoms: C14_21  and  C18_25 
ROOT
HETATM    1  O1  UNK     1      34.077  -9.460  29.940  1.00  0.00    -0.269 OA
HETATM    2  O3  UNK     1      31.924  -9.871  29.110  1.00  0.00    -0.286 OA
HETATM    3  O4  UNK     1      30.283  -7.197  31.702  1.00  0.00    -0.287 OA
HETATM    4  N2  UNK     1      36.355  -6.383  32.864  1.00  0.00    -0.191 NA
HETATM    5  C1  UNK     1      33.136  -7.610  31.918  1.00  0.00     0.111 C 
HETATM    6  C2  UNK     1      32.234  -8.318  30.930  1.00  0.00     0.066 A 
HETATM    7  C4  UNK     1      34.609  -7.817  31.595  1.00  0.00     0.086 C 
HETATM    8  C5  UNK     1      32.715  -9.187  30.020  1.00  0.00     0.204 A 
HETATM    9  C7  UNK     1      30.777  -8.020  30.941  1.00  0.00     0.197 A 
HETATM   10  C9  UNK     1      29.950  -8.769  29.986  1.00  0.00     0.049 A 
HETATM   11  C10 UNK     1      35.004  -8.707  30.657  1.00  0.00     0.162 C 
HETATM   12  C13 UNK     1      30.571  -9.661  29.117  1.00  0.00     0.092 A 
HETATM   13  C19 UNK     1      28.565  -8.591  29.944  1.00  0.00     0.018 A 
HETATM   14  C20 UNK     1      29.809 -10.385  28.198  1.00  0.00     0.038 A 
HETATM   15  C21 UNK     1      35.573  -7.025  32.296  1.00  0.00     0.100 C 
HETATM   16  C22 UNK     1      27.805  -9.316  29.024  1.00  0.00     0.001 A 
HETATM   17  C23 UNK     1      28.426 -10.212  28.153  1.00  0.00     0.003 A 
ENDROOT
BRANCH   5  18
HETATM   18  C3  UNK     1      32.842  -8.067  33.317  1.00  0.00    -0.011 A 
HETATM   19  C6  UNK     1      32.540  -7.143  34.311  1.00  0.00     0.078 A 
HETATM   20  C15 UNK     1      32.271  -7.584  35.607  1.00  0.00     0.074 A 
HETATM   21  C17 UNK     1      32.306  -8.947  35.901  1.00  0.00     0.070 A 
HETATM   22  C16 UNK     1      32.609  -9.869  34.898  1.00  0.00     0.037 A 
HETATM   23  C8  UNK     1      32.877  -9.428  33.603  1.00  0.00     0.014 A 
BRANCH  19  24
HETATM   24  O2  UNK     1      32.503  -5.808  34.041  1.00  0.00    -0.350 OA
BRANCH  24  25
HETATM   25  C12 UNK     1      33.393  -4.972  34.779  1.00  0.00     0.175 C 
BRANCH  25  26
HETATM   26  C11 UNK     1      32.582  -3.904  35.499  1.00  0.00     0.027 C 
BRANCH  26  27
HETATM   27  C14 UNK     1      32.287  -4.299  36.944  1.00  0.00     0.002 C 
BRANCH  27  28
HETATM   28  C18 UNK     1      30.836  -3.993  37.319  1.00  0.00    -0.004 C 
HETATM   29  C24 UNK     1      30.433  -4.696  38.605  1.00  0.00     0.005 C 
ENDBRANCH  27  28
ENDBRANCH  26  27
ENDBRANCH  25  26
ENDBRANCH  24  25
ENDBRANCH  19  24
BRANCH  21  30
HETATM   30  O5  UNK     1      32.043  -9.378  37.165  1.00  0.00    -0.356 OA
HETATM   31  C25 UNK     1      31.962  -8.384  38.185  1.00  0.00     0.210 C 
ENDBRANCH  21  30
ENDBRANCH   5  18
BRANCH  11  32
HETATM   32  N1  UNK     1      36.304  -8.965  30.317  1.00  0.00    -0.379 N 
HETATM   33  H15 UNK     1      36.943  -9.383  30.979  1.00  0.00     0.158 HD
HETATM   34  H16 UNK     1      36.618  -8.732  29.383  1.00  0.00     0.158 HD
ENDBRANCH  11  32
TORSDOF 8
ENDMDL
MODEL 4
REMARK VINA RESULT:      -7.1      2.763      7.000
REMARK  8 active torsions:
REMARK  status: ('A' for Active; 'I' for Inactive)
REMARK    1  A    between atoms: C12_19  and  O2_2 
REMARK    2  A    between atoms: C6_13  and  O2_2 
REMARK    3  A    between atoms: C17_24  and  O5_5 
REMARK    4  A    between atoms: C10_17  and  N1_6 
REMARK    5  A    between atoms: C1_8  and  C3_10 
REMARK    6  A    between atoms: C11_18  and  C14_21 
REMARK    7  A    between atoms: C11_18  and  C12_19 
REMARK    8  A    between atoms: C14_21  and  C18_25 
ROOT
HETATM    1  O1  UNK     1      31.791 -11.138  35.598  1.00  0.00    -0.269 OA
HETATM    2  O3  UNK     1      31.271  -9.254  36.892  1.00  0.00    -0.286 OA
HETATM    3  O4  UNK     1      28.934  -7.718  33.936  1.00  0.00    -0.287 OA
HETATM    4  N2  UNK     1      30.427 -13.259  31.494  1.00  0.00    -0.191 NA
HETATM    5  C1  UNK     1      30.282 -10.207  33.346  1.00  0.00     0.111 C 
HETATM    6  C2  UNK     1      30.397  -9.453  34.653  1.00  0.00     0.066 A 
HETATM    7  C4  UNK     1      30.865 -11.610  33.444  1.00  0.00     0.086 C 
HETATM    8  C5  UNK     1      31.124  -9.921  35.686  1.00  0.00     0.204 A 
HETATM    9  C7  UNK     1      29.659  -8.171  34.813  1.00  0.00     0.197 A 
HETATM   10  C9  UNK     1      29.844  -7.467  36.089  1.00  0.00     0.049 A 
HETATM   11  C10 UNK     1      31.577 -12.000  34.525  1.00  0.00     0.162 C 
HETATM   12  C13 UNK     1      30.646  -8.048  37.066  1.00  0.00     0.092 A 
HETATM   13  C19 UNK     1      29.226  -6.236  36.324  1.00  0.00     0.018 A 
HETATM   14  C20 UNK     1      30.837  -7.401  38.287  1.00  0.00     0.038 A 
HETATM   15  C21 UNK     1      30.623 -12.521  32.367  1.00  0.00     0.100 C 
HETATM   16  C22 UNK     1      29.419  -5.590  37.546  1.00  0.00     0.001 A 
HETATM   17  C23 UNK     1      30.224  -6.171  38.526  1.00  0.00     0.003 A 
ENDROOT
BRANCH   5  18
HETATM   18  C3  UNK     1      30.948  -9.444  32.239  1.00  0.00    -0.011 A 
HETATM   19  C6  UNK     1      30.249  -9.131  31.078  1.00  0.00     0.078 A 
HETATM   20  C15 UNK     1      30.884  -8.422  30.058  1.00  0.00     0.074 A 
HETATM   21  C17 UNK     1      32.215  -8.031  30.204  1.00  0.00     0.070 A 
HETATM   22  C16 UNK     1      32.911  -8.349  31.371  1.00  0.00     0.037 A 
HETATM   23  C8  UNK     1      32.276  -9.056  32.391  1.00  0.00     0.014 A 
BRANCH  19  24
HETATM   24  O2  UNK     1      28.949  -9.506  30.919  1.00  0.00    -0.350 OA
BRANCH  24  25
HETATM   25  C12 UNK     1      28.201  -8.837  29.905  1.00  0.00     0.175 C 
BRANCH  25  26
HETATM   26  C11 UNK     1      27.233  -7.866  30.567  1.00  0.00     0.027 C 
BRANCH  26  27
HETATM   27  C14 UNK     1      27.588  -6.415  30.255  1.00  0.00     0.002 C 
BRANCH  27  28
HETATM   28  C18 UNK     1      28.492  -5.818  31.334  1.00  0.00    -0.004 C 
HETATM   29  C24 UNK     1      29.650  -5.043  30.726  1.00  0.00     0.005 C 
ENDBRANCH  27  28
ENDBRANCH  26  27
ENDBRANCH  25  26
ENDBRANCH  24  25
ENDBRANCH  19  24
BRANCH  21  30
HETATM   30  O5  UNK     1      32.835  -7.340  29.208  1.00  0.00    -0.356 OA
HETATM   31  C25 UNK     1      34.253  -7.208  29.296  1.00  0.00     0.210 C 
ENDBRANCH  21  30
ENDBRANCH   5  18
BRANCH  11  32
HETATM   32  N1  UNK     1      32.147 -13.233  34.688  1.00  0.00    -0.379 N 
HETATM   33  H15 UNK     1      32.941 -13.363  35.299  1.00  0.00     0.158 HD
HETATM   34  H16 UNK     1      31.757 -14.020  34.185  1.00  0.00     0.158 HD
ENDBRANCH  11  32
TORSDOF 8
ENDMDL
MODEL 5
REMARK VINA RESULT:      -7.0      2.866      4.137
REMARK  8 active torsions:
REMARK  status: ('A' for Active; 'I' for Inactive)
REMARK    1  A    between atoms: C12_19  and  O2_2 
REMARK    2  A    between atoms: C6_13  and  O2_2 
REMARK    3  A    between atoms: C17_24  and  O5_5 
REMARK    4  A    between atoms: C10_17  and  N1_6 
REMARK    5  A    between atoms: C1_8  and  C3_10 
REMARK    6  A    between atoms: C11_18  and  C14_21 
REMARK    7  A    between atoms: C11_18  and  C12_19 
REMARK    8  A    between atoms: C14_21  and  C18_25 
ROOT
HETATM    1  O1  UNK     1      33.594  -7.894  31.506  1.00  0.00    -0.269 OA
HETATM    2  O3  UNK     1      31.631  -8.528  30.393  1.00  0.00    -0.286 OA
HETATM    3  O4  UNK     1      29.307  -6.867  33.291  1.00  0.00    -0.287 OA
HETATM    4  N2  UNK     1      34.986  -5.150  35.213  1.00  0.00    -0.191 NA
HETATM    5  C1  UNK     1      32.165  -6.748  33.711  1.00  0.00     0.111 C 
HETATM    6  C2  UNK     1      31.495  -7.384  32.512  1.00  0.00     0.066 A 
HETATM    7  C4  UNK     1      33.665  -6.584  33.506  1.00  0.00     0.086 C 
HETATM    8  C5  UNK     1      32.203  -7.919  31.499  1.00  0.00     0.204 A 
HETATM    9  C7  UNK     1      30.010  -7.388  32.435  1.00  0.00     0.197 A 
HETATM   10  C9  UNK     1      29.420  -8.056  31.267  1.00  0.00     0.049 A 
HETATM   11  C10 UNK     1      34.295  -7.151  32.453  1.00  0.00     0.162 C 
HETATM   12  C13 UNK     1      30.267  -8.595  30.303  1.00  0.00     0.092 A 
HETATM   13  C19 UNK     1      28.033  -8.149  31.119  1.00  0.00     0.018 A 
HETATM   14  C20 UNK     1      29.732  -9.233  29.183  1.00  0.00     0.038 A 
HETATM   15  C21 UNK     1      34.394  -5.792  34.449  1.00  0.00     0.100 C 
HETATM   16  C22 UNK     1      27.500  -8.789  29.999  1.00  0.00     0.001 A 
HETATM   17  C23 UNK     1      28.349  -9.330  29.032  1.00  0.00     0.003 A 
ENDROOT
BRANCH   5  18
HETATM   18  C3  UNK     1      31.895  -7.550  34.950  1.00  0.00    -0.011 A 
HETATM   19  C6  UNK     1      31.301  -6.956  36.059  1.00  0.00     0.078 A 
HETATM   20  C15 UNK     1      31.059  -7.716  37.204  1.00  0.00     0.074 A 
HETATM   21  C17 UNK     1      31.411  -9.065  37.233  1.00  0.00     0.070 A 
HETATM   22  C16 UNK     1      32.006  -9.654  36.117  1.00  0.00     0.037 A 
HETATM   23  C8  UNK     1      32.248  -8.895  34.972  1.00  0.00     0.014 A 
BRANCH  19  24
HETATM   24  O2  UNK     1      30.952  -5.640  36.047  1.00  0.00    -0.350 OA
BRANCH  24  25
HETATM   25  C12 UNK     1      31.507  -4.812  37.068  1.00  0.00     0.175 C 
BRANCH  25  26
HETATM   26  C11 UNK     1      30.423  -3.879  37.589  1.00  0.00     0.027 C 
BRANCH  26  27
HETATM   27  C14 UNK     1      29.872  -4.348  38.933  1.00  0.00     0.002 C 
BRANCH  27  28
HETATM   28  C18 UNK     1      28.435  -4.853  38.800  1.00  0.00    -0.004 C 
HETATM   29  C24 UNK     1      28.327  -6.328  39.153  1.00  0.00     0.005 C 
ENDBRANCH  27  28
ENDBRANCH  26  27
ENDBRANCH  25  26
ENDBRANCH  24  25
ENDBRANCH  19  24
BRANCH  21  30
HETATM   30  O5  UNK     1      31.175  -9.807  38.350  1.00  0.00    -0.356 OA
HETATM   31  C25 UNK     1      29.832  -9.846  38.830  1.00  0.00     0.210 C 
ENDBRANCH  21  30
ENDBRANCH   5  18
BRANCH  11  32
HETATM   32  N1  UNK     1      35.637  -7.067  32.202  1.00  0.00    -0.379 N 
HETATM   33  H15 UNK     1      36.013  -7.294  31.292  1.00  0.00     0.158 HD
HETATM   34  H16 UNK     1      36.254  -6.769  32.948  1.00  0.00     0.158 HD
ENDBRANCH  11  32
TORSDOF 8
ENDMDL
MODEL 6
REMARK VINA RESULT:      -6.9      2.854      6.962
REMARK  8 active torsions:
REMARK  status: ('A' for Active; 'I' for Inactive)
REMARK    1  A    between atoms: C12_19  and  O2_2 
REMARK    2  A    between atoms: C6_13  and  O2_2 
REMARK    3  A    between atoms: C17_24  and  O5_5 
REMARK    4  A    between atoms: C10_17  and  N1_6 
REMARK    5  A    between atoms: C1_8  and  C3_10 
REMARK    6  A    between atoms: C11_18  and  C14_21 
REMARK    7  A    between atoms: C11_18  and  C12_19 
REMARK    8  A    between atoms: C14_21  and  C18_25 
ROOT
HETATM    1  O1  UNK     1      30.788  -4.133  37.241  1.00  0.00    -0.269 OA
HETATM    2  O3  UNK     1      29.434  -5.722  38.306  1.00  0.00    -0.286 OA
HETATM    3  O4  UNK     1      31.134  -8.760  36.200  1.00  0.00    -0.287 OA
HETATM    4  N2  UNK     1      34.622  -3.940  34.330  1.00  0.00    -0.191 NA
HETATM    5  C1  UNK     1      32.056  -6.092  35.576  1.00  0.00     0.111 C 
HETATM    6  C2  UNK     1      30.997  -6.420  36.607  1.00  0.00     0.066 A 
HETATM    7  C4  UNK     1      32.529  -4.649  35.684  1.00  0.00     0.086 C 
HETATM    8  C5  UNK     1      30.419  -5.468  37.365  1.00  0.00     0.204 A 
HETATM    9  C7  UNK     1      30.607  -7.840  36.813  1.00  0.00     0.197 A 
HETATM   10  C9  UNK     1      29.546  -8.089  37.798  1.00  0.00     0.049 A 
HETATM   11  C10 UNK     1      31.892  -3.759  36.479  1.00  0.00     0.162 C 
HETATM   12  C13 UNK     1      29.011  -7.010  38.495  1.00  0.00     0.092 A 
HETATM   13  C19 UNK     1      29.079  -9.385  38.036  1.00  0.00     0.018 A 
HETATM   14  C20 UNK     1      28.003  -7.219  39.437  1.00  0.00     0.038 A 
HETATM   15  C21 UNK     1      33.685  -4.258  34.936  1.00  0.00     0.100 C 
HETATM   16  C22 UNK     1      28.071  -9.591  38.979  1.00  0.00     0.001 A 
HETATM   17  C23 UNK     1      27.533  -8.510  39.678  1.00  0.00     0.003 A 
ENDROOT
BRANCH   5  18
HETATM   18  C3  UNK     1      31.545  -6.369  34.193  1.00  0.00    -0.011 A 
HETATM   19  C6  UNK     1      32.265  -7.184  33.326  1.00  0.00     0.078 A 
HETATM   20  C15 UNK     1      31.777  -7.430  32.042  1.00  0.00     0.074 A 
HETATM   21  C17 UNK     1      30.571  -6.859  31.633  1.00  0.00     0.070 A 
HETATM   22  C16 UNK     1      29.854  -6.043  32.508  1.00  0.00     0.037 A 
HETATM   23  C8  UNK     1      30.342  -5.798  33.792  1.00  0.00     0.014 A 
BRANCH  19  24
HETATM   24  O2  UNK     1      33.444  -7.748  33.709  1.00  0.00    -0.350 OA
BRANCH  24  25
HETATM   25  C12 UNK     1      33.806  -8.980  33.086  1.00  0.00     0.175 C 
BRANCH  25  26
HETATM   26  C11 UNK     1      33.225 -10.130  33.895  1.00  0.00     0.027 C 
BRANCH  26  27
HETATM   27  C14 UNK     1      32.291 -10.996  33.054  1.00  0.00     0.002 C 
BRANCH  27  28
HETATM   28  C18 UNK     1      30.977 -11.270  33.786  1.00  0.00    -0.004 C 
HETATM   29  C24 UNK     1      29.886 -10.303  33.355  1.00  0.00     0.005 C 
ENDBRANCH  27  28
ENDBRANCH  26  27
ENDBRANCH  25  26
ENDBRANCH  24  25
ENDBRANCH  19  24
BRANCH  21  30
HETATM   30  O5  UNK     1      30.095  -7.099  30.381  1.00  0.00    -0.356 OA
HETATM   31  C25 UNK     1      28.681  -7.033  30.201  1.00  0.00     0.210 C 
ENDBRANCH  21  30
ENDBRANCH   5  18
BRANCH  11  32
HETATM   32  N1  UNK     1      32.241  -2.444  36.622  1.00  0.00    -0.379 N 
HETATM   33  H15 UNK     1      32.652  -1.927  35.857  1.00  0.00     0.158 HD
HETATM   34  H16 UNK     1      32.077  -1.991  37.513  1.00  0.00     0.158 HD
ENDBRANCH  11  32
TORSDOF 8
ENDMDL
MODEL 7
REMARK VINA RESULT:      -6.9      2.442      6.779
REMARK  8 active torsions:
REMARK  status: ('A' for Active; 'I' for Inactive)
REMARK    1  A    between atoms: C12_19  and  O2_2 
REMARK    2  A    between atoms: C6_13  and  O2_2 
REMARK    3  A    between atoms: C17_24  and  O5_5 
REMARK    4  A    between atoms: C10_17  and  N1_6 
REMARK    5  A    between atoms: C1_8  and  C3_10 
REMARK    6  A    between atoms: C11_18  and  C14_21 
REMARK    7  A    between atoms: C11_18  and  C12_19 
REMARK    8  A    between atoms: C14_21  and  C18_25 
ROOT
HETATM    1  O1  UNK     1      30.655  -8.759  38.203  1.00  0.00    -0.269 OA
HETATM    2  O3  UNK     1      32.547  -7.477  37.686  1.00  0.00    -0.286 OA
HETATM    3  O4  UNK     1      31.339  -7.031  33.826  1.00  0.00    -0.287 OA
HETATM    4  N2  UNK     1      26.437 -10.028  36.250  1.00  0.00    -0.191 NA
HETATM    5  C1  UNK     1      29.658  -8.665  35.517  1.00  0.00     0.111 C 
HETATM    6  C2  UNK     1      30.935  -7.989  35.966  1.00  0.00     0.066 A 
HETATM    7  C4  UNK     1      28.853  -9.202  36.693  1.00  0.00     0.086 C 
HETATM    8  C5  UNK     1      31.374  -8.064  37.237  1.00  0.00     0.204 A 
HETATM    9  C7  UNK     1      31.712  -7.190  34.981  1.00  0.00     0.197 A 
HETATM   10  C9  UNK     1      32.963  -6.593  35.468  1.00  0.00     0.049 A 
HETATM   11  C10 UNK     1      29.371  -9.233  37.942  1.00  0.00     0.162 C 
HETATM   12  C13 UNK     1      33.317  -6.771  36.802  1.00  0.00     0.092 A 
HETATM   13  C19 UNK     1      33.786  -5.856  34.611  1.00  0.00     0.018 A 
HETATM   14  C20 UNK     1      34.499  -6.213  37.290  1.00  0.00     0.038 A 
HETATM   15  C21 UNK     1      27.519  -9.658  36.448  1.00  0.00     0.100 C 
HETATM   16  C22 UNK     1      34.969  -5.300  35.102  1.00  0.00     0.001 A 
HETATM   17  C23 UNK     1      35.325  -5.478  36.439  1.00  0.00     0.003 A 
ENDROOT
BRANCH   5  18
HETATM   18  C3  UNK     1      29.960  -9.768  34.547  1.00  0.00    -0.011 A 
HETATM   19  C6  UNK     1      29.340  -9.803  33.303  1.00  0.00     0.078 A 
HETATM   20  C15 UNK     1      29.632 -10.838  32.413  1.00  0.00     0.074 A 
HETATM   21  C17 UNK     1      30.542 -11.832  32.774  1.00  0.00     0.070 A 
HETATM   22  C16 UNK     1      31.161 -11.790  34.023  1.00  0.00     0.037 A 
HETATM   23  C8  UNK     1      30.870 -10.756  34.912  1.00  0.00     0.014 A 
BRANCH  19  24
HETATM   24  O2  UNK     1      28.448  -8.841  32.935  1.00  0.00    -0.350 OA
BRANCH  24  25
HETATM   25  C12 UNK     1      28.766  -8.071  31.777  1.00  0.00     0.175 C 
BRANCH  25  26
HETATM   26  C11 UNK     1      27.542  -8.015  30.873  1.00  0.00     0.027 C 
BRANCH  26  27
HETATM   27  C14 UNK     1      27.683  -8.952  29.676  1.00  0.00     0.002 C 
BRANCH  27  28
HETATM   28  C18 UNK     1      29.078  -8.860  29.058  1.00  0.00    -0.004 C 
HETATM   29  C24 UNK     1      29.332  -9.998  28.083  1.00  0.00     0.005 C 
ENDBRANCH  27  28
ENDBRANCH  26  27
ENDBRANCH  25  26
ENDBRANCH  24  25
ENDBRANCH  19  24
BRANCH  21  30
HETATM   30  O5  UNK     1      30.827 -12.842  31.906  1.00  0.00    -0.356 OA
HETATM   31  C25 UNK     1      30.382 -12.684  30.560  1.00  0.00     0.210 C 
ENDBRANCH  21  30
ENDBRANCH   5  18
BRANCH  11  32
HETATM   32  N1  UNK     1      28.725  -9.712  39.048  1.00  0.00    -0.379 N 
HETATM   33  H15 UNK     1      27.871  -9.284  39.379  1.00  0.00     0.158 HD
HETATM   34  H16 UNK     1      29.116 -10.509  39.534  1.00  0.00     0.158 HD
ENDBRANCH  11  32
TORSDOF 8
ENDMDL
MODEL 8
REMARK VINA RESULT:      -6.8     19.509     23.137
REMARK  8 active torsions:
REMARK  status: ('A' for Active; 'I' for Inactive)
REMARK    1  A    between atoms: C12_19  and  O2_2 
REMARK    2  A    between atoms: C6_13  and  O2_2 
REMARK    3  A    between atoms: C17_24  and  O5_5 
REMARK    4  A    between atoms: C10_17  and  N1_6 
REMARK    5  A    between atoms: C1_8  and  C3_10 
REMARK    6  A    between atoms: C11_18  and  C14_21 
REMARK    7  A    between atoms: C11_18  and  C12_19 
REMARK    8  A    between atoms: C14_21  and  C18_25 
ROOT
HETATM    1  O1  UNK     1      19.094  -3.265  11.893  1.00  0.00    -0.269 OA
HETATM    2  O3  UNK     1      18.245  -5.448  11.969  1.00  0.00    -0.286 OA
HETATM    3  O4  UNK     1      17.753  -5.246  16.003  1.00  0.00    -0.287 OA
HETATM    4  N2  UNK     1      19.582   0.583  14.751  1.00  0.00    -0.191 NA
HETATM    5  C1  UNK     1      18.931  -2.931  14.735  1.00  0.00     0.111 C 
HETATM    6  C2  UNK     1      18.505  -4.188  14.009  1.00  0.00     0.066 A 
HETATM    7  C4  UNK     1      19.238  -1.793  13.772  1.00  0.00     0.086 C 
HETATM    8  C5  UNK     1      18.605  -4.309  12.671  1.00  0.00     0.204 A 
HETATM    9  C7  UNK     1      17.926  -5.312  14.793  1.00  0.00     0.197 A 
HETATM   10  C9  UNK     1      17.570  -6.520  14.035  1.00  0.00     0.049 A 
HETATM   11  C10 UNK     1      19.312  -2.002  12.438  1.00  0.00     0.162 C 
HETATM   12  C13 UNK     1      17.751  -6.524  12.656  1.00  0.00     0.092 A 
HETATM   13  C19 UNK     1      17.056  -7.646  14.684  1.00  0.00     0.018 A 
HETATM   14  C20 UNK     1      17.419  -7.658  11.912  1.00  0.00     0.038 A 
HETATM   15  C21 UNK     1      19.428  -0.481  14.313  1.00  0.00     0.100 C 
HETATM   16  C22 UNK     1      16.726  -8.779  13.938  1.00  0.00     0.001 A 
HETATM   17  C23 UNK     1      16.907  -8.785  12.555  1.00  0.00     0.003 A 
ENDROOT
BRANCH   5  18
HETATM   18  C3  UNK     1      20.119  -3.207  15.610  1.00  0.00    -0.011 A 
HETATM   19  C6  UNK     1      20.244  -2.584  16.846  1.00  0.00     0.078 A 
HETATM   20  C15 UNK     1      21.356  -2.850  17.646  1.00  0.00     0.074 A 
HETATM   21  C17 UNK     1      22.336  -3.738  17.204  1.00  0.00     0.070 A 
HETATM   22  C16 UNK     1      22.204  -4.360  15.962  1.00  0.00     0.037 A 
HETATM   23  C8  UNK     1      21.093  -4.094  15.163  1.00  0.00     0.014 A 
BRANCH  19  24
HETATM   24  O2  UNK     1      19.296  -1.713  17.293  1.00  0.00    -0.350 OA
BRANCH  24  25
HETATM   25  C12 UNK     1      19.686  -0.798  18.315  1.00  0.00     0.175 C 
BRANCH  25  26
HETATM   26  C11 UNK     1      18.634   0.297  18.423  1.00  0.00     0.027 C 
BRANCH  26  27
HETATM   27  C14 UNK     1      18.243   0.562  19.874  1.00  0.00     0.002 C 
BRANCH  27  28
HETATM   28  C18 UNK     1      18.628   1.978  20.305  1.00  0.00    -0.004 C 
HETATM   29  C24 UNK     1      19.700   1.961  21.382  1.00  0.00     0.005 C 
ENDBRANCH  27  28
ENDBRANCH  26  27
ENDBRANCH  25  26
ENDBRANCH  24  25
ENDBRANCH  19  24
BRANCH  21  30
HETATM   30  O5  UNK     1      23.421  -3.998  17.984  1.00  0.00    -0.356 OA
HETATM   31  C25 UNK     1      24.669  -3.452  17.561  1.00  0.00     0.210 C 
ENDBRANCH  21  30
ENDBRANCH   5  18
BRANCH  11  32
HETATM   32  N1  UNK     1      19.597  -1.042  11.507  1.00  0.00    -0.379 N 
HETATM   33  H15 UNK     1      19.490  -1.226  10.518  1.00  0.00     0.158 HD
HETATM   34  H16 UNK     1      19.917  -0.135  11.824  1.00  0.00     0.158 HD
ENDBRANCH  11  32
TORSDOF 8
ENDMDL
MODEL 9
REMARK VINA RESULT:      -6.8      3.586      7.212
REMARK  8 active torsions:
REMARK  status: ('A' for Active; 'I' for Inactive)
REMARK    1  A    between atoms: C12_19  and  O2_2 
REMARK    2  A    between atoms: C6_13  and  O2_2 
REMARK    3  A    between atoms: C17_24  and  O5_5 
REMARK    4  A    between atoms: C10_17  and  N1_6 
REMARK    5  A    between atoms: C1_8  and  C3_10 
REMARK    6  A    between atoms: C11_18  and  C14_21 
REMARK    7  A    between atoms: C11_18  and  C12_19 
REMARK    8  A    between atoms: C14_21  and  C18_25 
ROOT
HETATM    1  O1  UNK     1      34.396  -6.609  32.846  1.00  0.00    -0.269 OA
HETATM    2  O3  UNK     1      33.767  -6.068  35.038  1.00  0.00    -0.286 OA
HETATM    3  O4  UNK     1      30.468  -8.438  34.804  1.00  0.00    -0.287 OA
HETATM    4  N2  UNK     1      33.202  -9.690  29.341  1.00  0.00    -0.191 NA
HETATM    5  C1  UNK     1      32.088  -8.254  32.418  1.00  0.00     0.111 C 
HETATM    6  C2  UNK     1      32.379  -7.532  33.715  1.00  0.00     0.066 A 
HETATM    7  C4  UNK     1      33.266  -8.191  31.454  1.00  0.00     0.086 C 
HETATM    8  C5  UNK     1      33.472  -6.761  33.874  1.00  0.00     0.204 A 
HETATM    9  C7  UNK     1      31.447  -7.706  34.862  1.00  0.00     0.197 A 
HETATM   10  C9  UNK     1      31.762  -6.947  36.079  1.00  0.00     0.049 A 
HETATM   11  C10 UNK     1      34.330  -7.394  31.697  1.00  0.00     0.162 C 
HETATM   12  C13 UNK     1      32.911  -6.163  36.102  1.00  0.00     0.092 A 
HETATM   13  C19 UNK     1      30.928  -7.010  37.199  1.00  0.00     0.018 A 
HETATM   14  C20 UNK     1      33.235  -5.433  37.247  1.00  0.00     0.038 A 
HETATM   15  C21 UNK     1      33.230  -9.019  30.287  1.00  0.00     0.100 C 
HETATM   16  C22 UNK     1      31.253  -6.279  38.343  1.00  0.00     0.001 A 
HETATM   17  C23 UNK     1      32.404  -5.492  38.366  1.00  0.00     0.003 A 
ENDROOT
BRANCH   5  18
HETATM   18  C3  UNK     1      30.856  -7.694  31.770  1.00  0.00    -0.011 A 
HETATM   19  C6  UNK     1      29.746  -8.501  31.551  1.00  0.00     0.078 A 
HETATM   20  C15 UNK     1      28.609  -7.964  30.946  1.00  0.00     0.074 A 
HETATM   21  C17 UNK     1      28.590  -6.623  30.562  1.00  0.00     0.070 A 
HETATM   22  C16 UNK     1      29.708  -5.819  30.785  1.00  0.00     0.037 A 
HETATM   23  C8  UNK     1      30.845  -6.355  31.390  1.00  0.00     0.014 A 
BRANCH  19  24
HETATM   24  O2  UNK     1      29.747  -9.813  31.919  1.00  0.00    -0.350 OA
BRANCH  24  25
HETATM   25  C12 UNK     1      30.086 -10.767  30.914  1.00  0.00     0.175 C 
BRANCH  25  26
HETATM   26  C11 UNK     1      31.040 -11.792  31.510  1.00  0.00     0.027 C 
BRANCH  26  27
HETATM   27  C14 UNK     1      30.841 -11.939  33.017  1.00  0.00     0.002 C 
BRANCH  27  28
HETATM   28  C18 UNK     1      32.124 -11.614  33.782  1.00  0.00    -0.004 C 
HETATM   29  C24 UNK     1      33.351 -11.747  32.895  1.00  0.00     0.005 C 
ENDBRANCH  27  28
ENDBRANCH  26  27
ENDBRANCH  25  26
ENDBRANCH  24  25
ENDBRANCH  19  24
BRANCH  21  30
HETATM   30  O5  UNK     1      27.481  -6.099  29.971  1.00  0.00    -0.356 OA
HETATM   31  C25 UNK     1      26.237  -6.741  30.244  1.00  0.00     0.210 C 
ENDBRANCH  21  30
ENDBRANCH   5  18
BRANCH  11  32
HETATM   32  N1  UNK     1      35.419  -7.266  30.879  1.00  0.00    -0.379 N 
HETATM   33  H15 UNK     1      35.537  -7.862  30.072  1.00  0.00     0.158 HD
HETATM   34  H16 UNK     1      36.110  -6.558  31.095  1.00  0.00     0.158 HD
ENDBRANCH  11  32
TORSDOF 8
ENDMDL
MODEL 10
REMARK VINA RESULT:      -6.8      3.274      7.476
REMARK  8 active torsions:
REMARK  status: ('A' for Active; 'I' for Inactive)
REMARK    1  A    between atoms: C12_19  and  O2_2 
REMARK    2  A    between atoms: C6_13  and  O2_2 
REMARK    3  A    between atoms: C17_24  and  O5_5 
REMARK    4  A    between atoms: C10_17  and  N1_6 
REMARK    5  A    between atoms: C1_8  and  C3_10 
REMARK    6  A    between atoms: C11_18  and  C14_21 
REMARK    7  A    between atoms: C11_18  and  C12_19 
REMARK    8  A    between atoms: C14_21  and  C18_25 
ROOT
HETATM    1  O1  UNK     1      32.009 -10.954  35.891  1.00  0.00    -0.269 OA
HETATM    2  O3  UNK     1      31.978  -8.889  36.999  1.00  0.00    -0.286 OA
HETATM    3  O4  UNK     1      30.397  -7.029  33.743  1.00  0.00    -0.287 OA
HETATM    4  N2  UNK     1      30.363 -12.966  31.835  1.00  0.00    -0.191 NA
HETATM    5  C1  UNK     1      30.994  -9.843  33.452  1.00  0.00     0.111 C 
HETATM    6  C2  UNK     1      31.237  -9.036  34.708  1.00  0.00     0.066 A 
HETATM    7  C4  UNK     1      31.133 -11.338  33.699  1.00  0.00     0.086 C 
HETATM    8  C5  UNK     1      31.723  -9.594  35.833  1.00  0.00     0.204 A 
HETATM    9  C7  UNK     1      30.897  -7.587  34.712  1.00  0.00     0.197 A 
HETATM   10  C9  UNK     1      31.194  -6.851  35.948  1.00  0.00     0.049 A 
HETATM   11  C10 UNK     1      31.625 -11.815  34.865  1.00  0.00     0.162 C 
HETATM   12  C13 UNK     1      31.724  -7.544  37.032  1.00  0.00     0.092 A 
HETATM   13  C19 UNK     1      30.949  -5.478  36.040  1.00  0.00     0.018 A 
HETATM   14  C20 UNK     1      32.013  -6.869  38.218  1.00  0.00     0.038 A 
HETATM   15  C21 UNK     1      30.708 -12.237  32.670  1.00  0.00     0.100 C 
HETATM   16  C22 UNK     1      31.240  -4.804  37.227  1.00  0.00     0.001 A 
HETATM   17  C23 UNK     1      31.772  -5.499  38.314  1.00  0.00     0.003 A 
ENDROOT
BRANCH   5  18
HETATM   18  C3  UNK     1      31.927  -9.408  32.360  1.00  0.00    -0.011 A 
HETATM   19  C6  UNK     1      31.427  -8.947  31.147  1.00  0.00     0.078 A 
HETATM   20  C15 UNK     1      32.309  -8.548  30.142  1.00  0.00     0.074 A 
HETATM   21  C17 UNK     1      33.686  -8.614  30.356  1.00  0.00     0.070 A 
HETATM   22  C16 UNK     1      34.181  -9.078  31.575  1.00  0.00     0.037 A 
HETATM   23  C8  UNK     1      33.300  -9.475  32.580  1.00  0.00     0.014 A 
BRANCH  19  24
HETATM   24  O2  UNK     1      30.086  -8.877  30.922  1.00  0.00    -0.350 OA
BRANCH  24  25
HETATM   25  C12 UNK     1      29.557  -9.710  29.891  1.00  0.00     0.175 C 
BRANCH  25  26
HETATM   26  C11 UNK     1      28.257  -9.103  29.386  1.00  0.00     0.027 C 
BRANCH  26  27
HETATM   27  C14 UNK     1      27.407  -8.557  30.530  1.00  0.00     0.002 C 
BRANCH  27  28
HETATM   28  C18 UNK     1      27.018  -7.098  30.288  1.00  0.00    -0.004 C 
HETATM   29  C24 UNK     1      27.971  -6.143  30.988  1.00  0.00     0.005 C 
ENDBRANCH  27  28
ENDBRANCH  26  27
ENDBRANCH  25  26
ENDBRANCH  24  25
ENDBRANCH  19  24
BRANCH  21  30
HETATM   30  O5  UNK     1      34.547  -8.225  29.375  1.00  0.00    -0.356 OA
HETATM   31  C25 UNK     1      34.944  -6.855  29.366  1.00  0.00     0.210 C 
ENDBRANCH  21  30
ENDBRANCH   5  18
BRANCH  11  32
HETATM   32  N1  UNK     1      31.797 -13.138  35.164  1.00  0.00    -0.379 N 
HETATM   33  H15 UNK     1      31.178 -13.612  35.807  1.00  0.00     0.158 HD
HETATM   34  H16 UNK     1      32.558 -13.642  34.725  1.00  0.00     0.158 HD
ENDBRANCH  11  32
TORSDOF 8
ENDMDL
