MODEL 1
REMARK VINA RESULT:      -9.4      0.000      0.000
REMARK  5 active torsions:
REMARK  status: ('A' for Active; 'I' for Inactive)
REMARK    1  A    between atoms: C1_6  and  N1_4 
REMARK    2  A    between atoms: C8_13  and  N1_4 
REMARK    3  A    between atoms: C12_17  and  N2_5 
REMARK    4  A    between atoms: C2_7  and  C9_14 
REMARK    5  A    between atoms: C13_18  and  C14_19 
ROOT
HETATM    1  C1  UNK     1      18.398  -0.626  34.700  1.00  0.00     0.031 A 
HETATM    2  C2  UNK     1      19.663  -2.542  36.356  1.00  0.00    -0.036 A 
HETATM    3  C4  UNK     1      19.410  -1.480  34.200  1.00  0.00     0.030 A 
HETATM    4  C5  UNK     1      18.045  -0.771  36.063  1.00  0.00     0.030 A 
HETATM    5  C6  UNK     1      20.034  -2.424  35.017  1.00  0.00     0.013 A 
HETATM    6  C7  UNK     1      18.669  -1.715  36.879  1.00  0.00     0.013 A 
ENDROOT
BRANCH   1   7
HETATM    7  N1  UNK     1      17.786   0.301  33.899  1.00  0.00    -0.365 N 
HETATM    8  H3  UNK     1      17.097  -0.089  33.266  1.00  0.00     0.165 HD
BRANCH   7   9
HETATM    9  C8  UNK     1      17.961   1.641  33.829  1.00  0.00     0.103 C 
HETATM   10  C3  UNK     1      18.207   2.380  32.738  1.00  0.00     0.032 A 
HETATM   11  C10 UNK     1      18.324   1.801  31.412  1.00  0.00     0.053 A 
HETATM   12  C11 UNK     1      18.367   3.866  32.903  1.00  0.00     0.183 A 
HETATM   13  C12 UNK     1      18.569   2.604  30.371  1.00  0.00     0.103 A 
HETATM   14  C16 UNK     1      18.727   4.025  30.474  1.00  0.00     0.040 A 
HETATM   15  C15 UNK     1      18.636   4.645  31.659  1.00  0.00     0.058 A 
HETATM   16  O1  UNK     1      18.286   4.437  33.984  1.00  0.00    -0.288 OA
BRANCH  13  17
HETATM   17  N2  UNK     1      18.670   1.967  29.105  1.00  0.00    -0.116 N 
HETATM   18  O2  UNK     1      19.450   1.008  29.012  1.00  0.00    -0.532 OA
HETATM   19  O3  UNK     1      17.973   2.416  28.185  1.00  0.00    -0.532 OA
ENDBRANCH  13  17
ENDBRANCH   7   9
ENDBRANCH   1   7
BRANCH   2  20
HETATM   20  C9  UNK     1      20.312  -3.526  37.207  1.00  0.00     0.012 C 
HETATM   21  C14 UNK     1      19.989  -4.840  37.266  1.00  0.00     0.012 C 
BRANCH  21  22
HETATM   22  C13 UNK     1      20.659  -5.843  38.114  1.00  0.00    -0.036 A 
HETATM   23  C17 UNK     1      22.023  -5.738  38.337  1.00  0.00     0.011 A 
HETATM   24  C19 UNK     1      22.658  -6.687  39.139  1.00  0.00     0.001 A 
HETATM   25  C21 UNK     1      21.921  -7.726  39.707  1.00  0.00     0.000 A 
HETATM   26  C20 UNK     1      20.549  -7.817  39.473  1.00  0.00     0.001 A 
HETATM   27  C18 UNK     1      19.914  -6.868  38.670  1.00  0.00     0.011 A 
ENDBRANCH  21  22
ENDBRANCH   2  20
TORSDOF 5
ENDMDL
MODEL 2
REMARK VINA RESULT:      -9.2      5.470     11.232
REMARK  5 active torsions:
REMARK  status: ('A' for Active; 'I' for Inactive)
REMARK    1  A    between atoms: C1_6  and  N1_4 
REMARK    2  A    between atoms: C8_13  and  N1_4 
REMARK    3  A    between atoms: C12_17  and  N2_5 
REMARK    4  A    between atoms: C2_7  and  C9_14 
REMARK    5  A    between atoms: C13_18  and  C14_19 
ROOT
HETATM    1  C1  UNK     1      18.224   3.702  32.126  1.00  0.00     0.031 A 
HETATM    2  C2  UNK     1      18.327   6.445  32.817  1.00  0.00    -0.036 A 
HETATM    3  C4  UNK     1      18.144   4.127  33.474  1.00  0.00     0.030 A 
HETATM    4  C5  UNK     1      18.358   4.707  31.138  1.00  0.00     0.030 A 
HETATM    5  C6  UNK     1      18.195   5.479  33.814  1.00  0.00     0.013 A 
HETATM    6  C7  UNK     1      18.409   6.059  31.478  1.00  0.00     0.013 A 
ENDROOT
BRANCH   1   7
HETATM    7  N1  UNK     1      18.174   2.374  31.791  1.00  0.00    -0.365 N 
HETATM    8  H3  UNK     1      17.762   1.783  32.505  1.00  0.00     0.165 HD
BRANCH   7   9
HETATM    9  C8  UNK     1      18.584   1.745  30.666  1.00  0.00     0.103 C 
HETATM   10  C3  UNK     1      19.192   0.555  30.568  1.00  0.00     0.032 A 
HETATM   11  C10 UNK     1      19.506  -0.261  31.728  1.00  0.00     0.053 A 
HETATM   12  C11 UNK     1      19.560   0.051  29.200  1.00  0.00     0.183 A 
HETATM   13  C12 UNK     1      20.113  -1.439  31.549  1.00  0.00     0.103 A 
HETATM   14  C16 UNK     1      20.482  -1.965  30.267  1.00  0.00     0.040 A 
HETATM   15  C15 UNK     1      20.231  -1.281  29.143  1.00  0.00     0.058 A 
HETATM   16  O1  UNK     1      19.335   0.674  28.168  1.00  0.00    -0.288 OA
BRANCH  13  17
HETATM   17  N2  UNK     1      20.388  -2.181  32.729  1.00  0.00    -0.116 N 
HETATM   18  O2  UNK     1      21.155  -3.149  32.625  1.00  0.00    -0.532 OA
HETATM   19  O3  UNK     1      19.841  -1.809  33.776  1.00  0.00    -0.532 OA
ENDBRANCH  13  17
ENDBRANCH   7   9
ENDBRANCH   1   7
BRANCH   2  20
HETATM   20  C9  UNK     1      18.380   7.854  33.171  1.00  0.00     0.012 C 
HETATM   21  C14 UNK     1      17.321   8.599  33.567  1.00  0.00     0.012 C 
BRANCH  21  22
HETATM   22  C13 UNK     1      17.377  10.023  33.946  1.00  0.00    -0.036 A 
HETATM   23  C17 UNK     1      16.216  10.662  34.351  1.00  0.00     0.011 A 
HETATM   24  C19 UNK     1      16.268  12.010  34.709  1.00  0.00     0.001 A 
HETATM   25  C21 UNK     1      17.480  12.698  34.658  1.00  0.00     0.000 A 
HETATM   26  C20 UNK     1      18.640  12.039  34.249  1.00  0.00     0.001 A 
HETATM   27  C18 UNK     1      18.587  10.692  33.890  1.00  0.00     0.011 A 
ENDBRANCH  21  22
ENDBRANCH   2  20
TORSDOF 5
ENDMDL
MODEL 3
REMARK VINA RESULT:      -9.1      6.406     11.688
REMARK  5 active torsions:
REMARK  status: ('A' for Active; 'I' for Inactive)
REMARK    1  A    between atoms: C1_6  and  N1_4 
REMARK    2  A    between atoms: C8_13  and  N1_4 
REMARK    3  A    between atoms: C12_17  and  N2_5 
REMARK    4  A    between atoms: C2_7  and  C9_14 
REMARK    5  A    between atoms: C13_18  and  C14_19 
ROOT
HETATM    1  C1  UNK     1      18.067   4.978  32.512  1.00  0.00     0.031 A 
HETATM    2  C2  UNK     1      18.078   7.649  33.447  1.00  0.00    -0.036 A 
HETATM    3  C4  UNK     1      17.286   5.980  31.889  1.00  0.00     0.030 A 
HETATM    4  C5  UNK     1      18.855   5.367  33.622  1.00  0.00     0.030 A 
HETATM    5  C6  UNK     1      17.291   7.297  32.351  1.00  0.00     0.013 A 
HETATM    6  C7  UNK     1      18.860   6.684  34.083  1.00  0.00     0.013 A 
ENDROOT
BRANCH   1   7
HETATM    7  N1  UNK     1      18.062   3.685  32.059  1.00  0.00    -0.365 N 
HETATM    8  H3  UNK     1      18.066   2.989  32.796  1.00  0.00     0.165 HD
BRANCH   7   9
HETATM    9  C8  UNK     1      18.052   3.207  30.793  1.00  0.00     0.103 C 
HETATM   10  C3  UNK     1      18.538   2.038  30.355  1.00  0.00     0.032 A 
HETATM   11  C10 UNK     1      19.176   1.076  31.236  1.00  0.00     0.053 A 
HETATM   12  C11 UNK     1      18.413   1.716  28.891  1.00  0.00     0.183 A 
HETATM   13  C12 UNK     1      19.635  -0.070  30.724  1.00  0.00     0.103 A 
HETATM   14  C16 UNK     1      19.539  -0.426  29.338  1.00  0.00     0.040 A 
HETATM   15  C15 UNK     1      18.966   0.401  28.453  1.00  0.00     0.058 A 
HETATM   16  O1  UNK     1      17.892   2.469  28.077  1.00  0.00    -0.288 OA
BRANCH  13  17
HETATM   17  N2  UNK     1      20.247  -0.962  31.646  1.00  0.00    -0.116 N 
HETATM   18  O2  UNK     1      21.485  -0.951  31.711  1.00  0.00    -0.532 OA
HETATM   19  O3  UNK     1      19.500  -1.686  32.319  1.00  0.00    -0.532 OA
ENDBRANCH  13  17
ENDBRANCH   7   9
ENDBRANCH   1   7
BRANCH   2  20
HETATM   20  C9  UNK     1      18.085   9.022  33.928  1.00  0.00     0.012 C 
HETATM   21  C14 UNK     1      17.046   9.885  33.835  1.00  0.00     0.012 C 
BRANCH  21  22
HETATM   22  C13 UNK     1      17.045  11.270  34.340  1.00  0.00    -0.036 A 
HETATM   23  C17 UNK     1      18.146  12.078  34.107  1.00  0.00     0.011 A 
HETATM   24  C19 UNK     1      18.146  13.389  34.585  1.00  0.00     0.001 A 
HETATM   25  C21 UNK     1      17.044  13.874  35.288  1.00  0.00     0.000 A 
HETATM   26  C20 UNK     1      15.942  13.048  35.515  1.00  0.00     0.001 A 
HETATM   27  C18 UNK     1      15.943  11.737  35.037  1.00  0.00     0.011 A 
ENDBRANCH  21  22
ENDBRANCH   2  20
TORSDOF 5
ENDMDL
MODEL 4
REMARK VINA RESULT:      -8.9      7.497     10.258
REMARK  5 active torsions:
REMARK  status: ('A' for Active; 'I' for Inactive)
REMARK    1  A    between atoms: C1_6  and  N1_4 
REMARK    2  A    between atoms: C8_13  and  N1_4 
REMARK    3  A    between atoms: C12_17  and  N2_5 
REMARK    4  A    between atoms: C2_7  and  C9_14 
REMARK    5  A    between atoms: C13_18  and  C14_19 
ROOT
HETATM    1  C1  UNK     1      17.586   7.091  32.902  1.00  0.00     0.031 A 
HETATM    2  C2  UNK     1      18.448   4.848  31.407  1.00  0.00    -0.036 A 
HETATM    3  C4  UNK     1      17.643   5.799  33.477  1.00  0.00     0.030 A 
HETATM    4  C5  UNK     1      17.980   7.215  31.547  1.00  0.00     0.030 A 
HETATM    5  C6  UNK     1      18.068   4.693  32.739  1.00  0.00     0.013 A 
HETATM    6  C7  UNK     1      18.404   6.109  30.811  1.00  0.00     0.013 A 
ENDROOT
BRANCH   1   7
HETATM    7  N1  UNK     1      17.169   8.177  33.626  1.00  0.00    -0.365 N 
HETATM    8  H3  UNK     1      16.412   7.979  34.270  1.00  0.00     0.165 HD
BRANCH   7   9
HETATM    9  C8  UNK     1      17.613   9.456  33.609  1.00  0.00     0.103 C 
HETATM   10  C3  UNK     1      17.035  10.531  34.162  1.00  0.00     0.032 A 
HETATM   11  C10 UNK     1      15.784  10.456  34.895  1.00  0.00     0.053 A 
HETATM   12  C11 UNK     1      17.716  11.863  34.015  1.00  0.00     0.183 A 
HETATM   13  C12 UNK     1      15.271  11.573  35.421  1.00  0.00     0.103 A 
HETATM   14  C16 UNK     1      15.881  12.866  35.310  1.00  0.00     0.040 A 
HETATM   15  C15 UNK     1      17.036  13.029  34.652  1.00  0.00     0.058 A 
HETATM   16  O1  UNK     1      18.772  12.018  33.412  1.00  0.00    -0.288 OA
BRANCH  13  17
HETATM   17  N2  UNK     1      14.045  11.423  36.124  1.00  0.00    -0.116 N 
HETATM   18  O2  UNK     1      13.014  11.819  35.560  1.00  0.00    -0.532 OA
HETATM   19  O3  UNK     1      14.094  10.906  37.249  1.00  0.00    -0.532 OA
ENDBRANCH  13  17
ENDBRANCH   7   9
ENDBRANCH   1   7
BRANCH   2  20
HETATM   20  C9  UNK     1      18.892   3.696  30.638  1.00  0.00     0.012 C 
HETATM   21  C14 UNK     1      18.738   2.403  31.012  1.00  0.00     0.012 C 
BRANCH  21  22
HETATM   22  C13 UNK     1      19.169   1.234  30.224  1.00  0.00    -0.036 A 
HETATM   23  C17 UNK     1      20.053   0.327  30.786  1.00  0.00     0.011 A 
HETATM   24  C19 UNK     1      20.462  -0.779  30.041  1.00  0.00     0.001 A 
HETATM   25  C21 UNK     1      19.980  -0.964  28.745  1.00  0.00     0.000 A 
HETATM   26  C20 UNK     1      19.090  -0.042  28.194  1.00  0.00     0.001 A 
HETATM   27  C18 UNK     1      18.682   1.065  28.939  1.00  0.00     0.011 A 
ENDBRANCH  21  22
ENDBRANCH   2  20
TORSDOF 5
ENDMDL
MODEL 5
REMARK VINA RESULT:      -8.9      9.310     13.146
REMARK  5 active torsions:
REMARK  status: ('A' for Active; 'I' for Inactive)
REMARK    1  A    between atoms: C1_6  and  N1_4 
REMARK    2  A    between atoms: C8_13  and  N1_4 
REMARK    3  A    between atoms: C12_17  and  N2_5 
REMARK    4  A    between atoms: C2_7  and  C9_14 
REMARK    5  A    between atoms: C13_18  and  C14_19 
ROOT
HETATM    1  C1  UNK     1      28.764  -9.367  38.282  1.00  0.00     0.031 A 
HETATM    2  C2  UNK     1      26.001  -8.761  38.197  1.00  0.00    -0.036 A 
HETATM    3  C4  UNK     1      27.990  -9.286  39.465  1.00  0.00     0.030 A 
HETATM    4  C5  UNK     1      28.098  -9.133  37.055  1.00  0.00     0.030 A 
HETATM    5  C6  UNK     1      26.628  -8.987  39.422  1.00  0.00     0.013 A 
HETATM    6  C7  UNK     1      26.736  -8.834  37.014  1.00  0.00     0.013 A 
ENDROOT
BRANCH   1   7
HETATM    7  N1  UNK     1      30.102  -9.660  38.323  1.00  0.00    -0.365 N 
HETATM    8  H3  UNK     1      30.310 -10.601  38.638  1.00  0.00     0.165 HD
BRANCH   7   9
HETATM    9  C8  UNK     1      31.170  -8.892  38.010  1.00  0.00     0.103 C 
HETATM   10  C3  UNK     1      31.287  -7.562  38.128  1.00  0.00     0.032 A 
HETATM   11  C10 UNK     1      30.216  -6.726  38.639  1.00  0.00     0.053 A 
HETATM   12  C11 UNK     1      32.581  -6.919  37.713  1.00  0.00     0.183 A 
HETATM   13  C12 UNK     1      30.409  -5.406  38.729  1.00  0.00     0.103 A 
HETATM   14  C16 UNK     1      31.623  -4.744  38.349  1.00  0.00     0.040 A 
HETATM   15  C15 UNK     1      32.663  -5.437  37.867  1.00  0.00     0.058 A 
HETATM   16  O1  UNK     1      33.535  -7.547  37.269  1.00  0.00    -0.288 OA
BRANCH  13  17
HETATM   17  N2  UNK     1      29.317  -4.652  39.239  1.00  0.00    -0.116 N 
HETATM   18  O2  UNK     1      28.176  -5.023  38.927  1.00  0.00    -0.532 OA
HETATM   19  O3  UNK     1      29.584  -3.678  39.956  1.00  0.00    -0.532 OA
ENDBRANCH  13  17
ENDBRANCH   7   9
ENDBRANCH   1   7
BRANCH   2  20
HETATM   20  C9  UNK     1      24.581  -8.451  38.153  1.00  0.00     0.012 C 
HETATM   21  C14 UNK     1      23.907  -7.743  39.091  1.00  0.00     0.012 C 
BRANCH  21  22
HETATM   22  C13 UNK     1      22.472  -7.410  39.037  1.00  0.00    -0.036 A 
HETATM   23  C17 UNK     1      22.079  -6.185  38.522  1.00  0.00     0.011 A 
HETATM   24  C19 UNK     1      20.721  -5.870  38.471  1.00  0.00     0.001 A 
HETATM   25  C21 UNK     1      19.775  -6.784  38.934  1.00  0.00     0.000 A 
HETATM   26  C20 UNK     1      20.187  -8.014  39.449  1.00  0.00     0.001 A 
HETATM   27  C18 UNK     1      21.546  -8.329  39.501  1.00  0.00     0.011 A 
ENDBRANCH  21  22
ENDBRANCH   2  20
TORSDOF 5
ENDMDL
MODEL 6
REMARK VINA RESULT:      -8.9      7.386      9.194
REMARK  5 active torsions:
REMARK  status: ('A' for Active; 'I' for Inactive)
REMARK    1  A    between atoms: C1_6  and  N1_4 
REMARK    2  A    between atoms: C8_13  and  N1_4 
REMARK    3  A    between atoms: C12_17  and  N2_5 
REMARK    4  A    between atoms: C2_7  and  C9_14 
REMARK    5  A    between atoms: C13_18  and  C14_19 
ROOT
HETATM    1  C1  UNK     1      18.528   6.678  33.609  1.00  0.00     0.031 A 
HETATM    2  C2  UNK     1      18.847   4.636  31.675  1.00  0.00    -0.036 A 
HETATM    3  C4  UNK     1      18.068   5.360  33.844  1.00  0.00     0.030 A 
HETATM    4  C5  UNK     1      19.156   6.931  32.365  1.00  0.00     0.030 A 
HETATM    5  C6  UNK     1      18.225   4.354  32.891  1.00  0.00     0.013 A 
HETATM    6  C7  UNK     1      19.313   5.924  31.412  1.00  0.00     0.013 A 
ENDROOT
BRANCH   1   7
HETATM    7  N1  UNK     1      18.374   7.666  34.545  1.00  0.00    -0.365 N 
HETATM    8  H3  UNK     1      18.801   7.458  35.440  1.00  0.00     0.165 HD
BRANCH   7   9
HETATM    9  C8  UNK     1      17.747   8.862  34.452  1.00  0.00     0.103 C 
HETATM   10  C3  UNK     1      16.522   9.110  33.969  1.00  0.00     0.032 A 
HETATM   11  C10 UNK     1      15.658   8.063  33.454  1.00  0.00     0.053 A 
HETATM   12  C11 UNK     1      16.030  10.530  33.965  1.00  0.00     0.183 A 
HETATM   13  C12 UNK     1      14.447   8.389  32.991  1.00  0.00     0.103 A 
HETATM   14  C16 UNK     1      13.930   9.726  32.967  1.00  0.00     0.040 A 
HETATM   15  C15 UNK     1      14.658  10.755  33.422  1.00  0.00     0.058 A 
HETATM   16  O1  UNK     1      16.692  11.475  34.378  1.00  0.00    -0.288 OA
BRANCH  13  17
HETATM   17  N2  UNK     1      13.657   7.312  32.504  1.00  0.00    -0.116 N 
HETATM   18  O2  UNK     1      12.901   6.752  33.310  1.00  0.00    -0.532 OA
HETATM   19  O3  UNK     1      13.783   7.010  31.309  1.00  0.00    -0.532 OA
ENDBRANCH  13  17
ENDBRANCH   7   9
ENDBRANCH   1   7
BRANCH   2  20
HETATM   20  C9  UNK     1      19.012   3.587  30.681  1.00  0.00     0.012 C 
HETATM   21  C14 UNK     1      19.000   2.258  30.941  1.00  0.00     0.012 C 
BRANCH  21  22
HETATM   22  C13 UNK     1      19.146   1.193  29.931  1.00  0.00    -0.036 A 
HETATM   23  C17 UNK     1      20.130   0.232  30.098  1.00  0.00     0.011 A 
HETATM   24  C19 UNK     1      20.270  -0.775  29.143  1.00  0.00     0.001 A 
HETATM   25  C21 UNK     1      19.423  -0.808  28.036  1.00  0.00     0.000 A 
HETATM   26  C20 UNK     1      18.437   0.167  27.882  1.00  0.00     0.001 A 
HETATM   27  C18 UNK     1      18.298   1.175  28.837  1.00  0.00     0.011 A 
ENDBRANCH  21  22
ENDBRANCH   2  20
TORSDOF 5
ENDMDL
MODEL 7
REMARK VINA RESULT:      -8.8      6.486      9.407
REMARK  5 active torsions:
REMARK  status: ('A' for Active; 'I' for Inactive)
REMARK    1  A    between atoms: C1_6  and  N1_4 
REMARK    2  A    between atoms: C8_13  and  N1_4 
REMARK    3  A    between atoms: C12_17  and  N2_5 
REMARK    4  A    between atoms: C2_7  and  C9_14 
REMARK    5  A    between atoms: C13_18  and  C14_19 
ROOT
HETATM    1  C1  UNK     1      17.902   6.663  31.649  1.00  0.00     0.031 A 
HETATM    2  C2  UNK     1      18.750   4.105  30.785  1.00  0.00    -0.036 A 
HETATM    3  C4  UNK     1      18.673   6.500  30.473  1.00  0.00     0.030 A 
HETATM    4  C5  UNK     1      17.573   5.492  32.375  1.00  0.00     0.030 A 
HETATM    5  C6  UNK     1      19.091   5.238  30.047  1.00  0.00     0.013 A 
HETATM    6  C7  UNK     1      17.992   4.232  31.948  1.00  0.00     0.013 A 
ENDROOT
BRANCH   1   7
HETATM    7  N1  UNK     1      17.492   7.901  32.068  1.00  0.00    -0.365 N 
HETATM    8  H3  UNK     1      18.081   8.662  31.750  1.00  0.00     0.165 HD
BRANCH   7   9
HETATM    9  C8  UNK     1      16.431   8.253  32.831  1.00  0.00     0.103 C 
HETATM   10  C3  UNK     1      16.272   9.375  33.546  1.00  0.00     0.032 A 
HETATM   11  C10 UNK     1      17.279  10.420  33.595  1.00  0.00     0.053 A 
HETATM   12  C11 UNK     1      14.998   9.553  34.324  1.00  0.00     0.183 A 
HETATM   13  C12 UNK     1      17.047  11.513  34.329  1.00  0.00     0.103 A 
HETATM   14  C16 UNK     1      15.850  11.731  35.087  1.00  0.00     0.040 A 
HETATM   15  C15 UNK     1      14.867  10.821  35.101  1.00  0.00     0.058 A 
HETATM   16  O1  UNK     1      14.097   8.722  34.342  1.00  0.00    -0.288 OA
BRANCH  13  17
HETATM   17  N2  UNK     1      18.078  12.492  34.329  1.00  0.00    -0.116 N 
HETATM   18  O2  UNK     1      18.536  12.834  33.230  1.00  0.00    -0.532 OA
HETATM   19  O3  UNK     1      18.443  12.933  35.428  1.00  0.00    -0.532 OA
ENDBRANCH  13  17
ENDBRANCH   7   9
ENDBRANCH   1   7
BRANCH   2  20
HETATM   20  C9  UNK     1      19.185   2.790  30.340  1.00  0.00     0.012 C 
HETATM   21  C14 UNK     1      19.130   1.658  31.082  1.00  0.00     0.012 C 
BRANCH  21  22
HETATM   22  C13 UNK     1      19.552   0.321  30.626  1.00  0.00    -0.036 A 
HETATM   23  C17 UNK     1      19.918   0.142  29.302  1.00  0.00     0.011 A 
HETATM   24  C19 UNK     1      20.317  -1.123  28.869  1.00  0.00     0.001 A 
HETATM   25  C21 UNK     1      20.346  -2.190  29.767  1.00  0.00     0.000 A 
HETATM   26  C20 UNK     1      19.975  -1.993  31.097  1.00  0.00     0.001 A 
HETATM   27  C18 UNK     1      19.575  -0.727  31.529  1.00  0.00     0.011 A 
ENDBRANCH  21  22
ENDBRANCH   2  20
TORSDOF 5
ENDMDL
MODEL 8
REMARK VINA RESULT:      -8.8      2.021      3.478
REMARK  5 active torsions:
REMARK  status: ('A' for Active; 'I' for Inactive)
REMARK    1  A    between atoms: C1_6  and  N1_4 
REMARK    2  A    between atoms: C8_13  and  N1_4 
REMARK    3  A    between atoms: C12_17  and  N2_5 
REMARK    4  A    between atoms: C2_7  and  C9_14 
REMARK    5  A    between atoms: C13_18  and  C14_19 
ROOT
HETATM    1  C1  UNK     1      18.110   1.180  34.346  1.00  0.00     0.031 A 
HETATM    2  C2  UNK     1      18.648  -1.183  35.809  1.00  0.00    -0.036 A 
HETATM    3  C4  UNK     1      18.046   1.157  35.759  1.00  0.00     0.030 A 
HETATM    4  C5  UNK     1      18.455  -0.029  33.694  1.00  0.00     0.030 A 
HETATM    5  C6  UNK     1      18.311  -0.008  36.480  1.00  0.00     0.013 A 
HETATM    6  C7  UNK     1      18.720  -1.193  34.415  1.00  0.00     0.013 A 
ENDROOT
BRANCH   1   7
HETATM    7  N1  UNK     1      17.850   2.323  33.637  1.00  0.00    -0.365 N 
HETATM    8  H3  UNK     1      17.307   3.011  34.146  1.00  0.00     0.165 HD
BRANCH   7   9
HETATM    9  C8  UNK     1      18.208   2.667  32.378  1.00  0.00     0.103 C 
HETATM   10  C3  UNK     1      18.384   3.900  31.884  1.00  0.00     0.032 A 
HETATM   11  C10 UNK     1      18.203   5.097  32.685  1.00  0.00     0.053 A 
HETATM   12  C11 UNK     1      18.786   4.040  30.442  1.00  0.00     0.183 A 
HETATM   13  C12 UNK     1      18.399   6.293  32.120  1.00  0.00     0.103 A 
HETATM   14  C16 UNK     1      18.785   6.481  30.752  1.00  0.00     0.040 A 
HETATM   15  C15 UNK     1      18.974   5.433  29.939  1.00  0.00     0.058 A 
HETATM   16  O1  UNK     1      18.958   3.085  29.693  1.00  0.00    -0.288 OA
BRANCH  13  17
HETATM   17  N2  UNK     1      18.204   7.419  32.966  1.00  0.00    -0.116 N 
HETATM   18  O2  UNK     1      18.666   7.354  34.114  1.00  0.00    -0.532 OA
HETATM   19  O3  UNK     1      17.586   8.383  32.494  1.00  0.00    -0.532 OA
ENDBRANCH  13  17
ENDBRANCH   7   9
ENDBRANCH   1   7
BRANCH   2  20
HETATM   20  C9  UNK     1      18.925  -2.397  36.560  1.00  0.00     0.012 C 
HETATM   21  C14 UNK     1      19.732  -3.403  36.147  1.00  0.00     0.012 C 
BRANCH  21  22
HETATM   22  C13 UNK     1      20.029  -4.624  36.916  1.00  0.00    -0.036 A 
HETATM   23  C17 UNK     1      21.189  -4.684  37.672  1.00  0.00     0.011 A 
HETATM   24  C19 UNK     1      21.471  -5.840  38.401  1.00  0.00     0.001 A 
HETATM   25  C21 UNK     1      20.589  -6.920  38.363  1.00  0.00     0.000 A 
HETATM   26  C20 UNK     1      19.425  -6.844  37.597  1.00  0.00     0.001 A 
HETATM   27  C18 UNK     1      19.144  -5.688  36.868  1.00  0.00     0.011 A 
ENDBRANCH  21  22
ENDBRANCH   2  20
TORSDOF 5
ENDMDL
MODEL 9
REMARK VINA RESULT:      -8.8      4.350     10.603
REMARK  5 active torsions:
REMARK  status: ('A' for Active; 'I' for Inactive)
REMARK    1  A    between atoms: C1_6  and  N1_4 
REMARK    2  A    between atoms: C8_13  and  N1_4 
REMARK    3  A    between atoms: C12_17  and  N2_5 
REMARK    4  A    between atoms: C2_7  and  C9_14 
REMARK    5  A    between atoms: C13_18  and  C14_19 
ROOT
HETATM    1  C1  UNK     1      18.406   2.500  30.608  1.00  0.00     0.031 A 
HETATM    2  C2  UNK     1      18.790   5.149  31.527  1.00  0.00    -0.036 A 
HETATM    3  C4  UNK     1      18.094   2.871  31.938  1.00  0.00     0.030 A 
HETATM    4  C5  UNK     1      18.917   3.509  29.757  1.00  0.00     0.030 A 
HETATM    5  C6  UNK     1      18.284   4.177  32.391  1.00  0.00     0.013 A 
HETATM    6  C7  UNK     1      19.106   4.815  30.210  1.00  0.00     0.013 A 
ENDROOT
BRANCH   1   7
HETATM    7  N1  UNK     1      18.220   1.218  30.162  1.00  0.00    -0.365 N 
HETATM    8  H3  UNK     1      17.280   1.025  29.837  1.00  0.00     0.165 HD
BRANCH   7   9
HETATM    9  C8  UNK     1      19.094   0.186  30.092  1.00  0.00     0.103 C 
HETATM   10  C3  UNK     1      19.471  -0.637  31.080  1.00  0.00     0.032 A 
HETATM   11  C10 UNK     1      18.959  -0.520  32.434  1.00  0.00     0.053 A 
HETATM   12  C11 UNK     1      20.463  -1.722  30.766  1.00  0.00     0.183 A 
HETATM   13  C12 UNK     1      19.382  -1.380  33.365  1.00  0.00     0.103 A 
HETATM   14  C16 UNK     1      20.324  -2.433  33.117  1.00  0.00     0.040 A 
HETATM   15  C15 UNK     1      20.849  -2.615  31.898  1.00  0.00     0.058 A 
HETATM   16  O1  UNK     1      20.948  -1.891  29.653  1.00  0.00    -0.288 OA
BRANCH  13  17
HETATM   17  N2  UNK     1      18.837  -1.205  34.666  1.00  0.00    -0.116 N 
HETATM   18  O2  UNK     1      17.962  -0.338  34.804  1.00  0.00    -0.532 OA
HETATM   19  O3  UNK     1      19.276  -1.930  35.569  1.00  0.00    -0.532 OA
ENDBRANCH  13  17
ENDBRANCH   7   9
ENDBRANCH   1   7
BRANCH   2  20
HETATM   20  C9  UNK     1      18.986   6.511  31.999  1.00  0.00     0.012 C 
HETATM   21  C14 UNK     1      18.372   7.060  33.074  1.00  0.00     0.012 C 
BRANCH  21  22
HETATM   22  C13 UNK     1      18.586   8.433  33.565  1.00  0.00    -0.036 A 
HETATM   23  C17 UNK     1      17.533   9.333  33.541  1.00  0.00     0.011 A 
HETATM   24  C19 UNK     1      17.735  10.633  34.005  1.00  0.00     0.001 A 
HETATM   25  C21 UNK     1      18.986  11.014  34.488  1.00  0.00     0.000 A 
HETATM   26  C20 UNK     1      20.036  10.096  34.507  1.00  0.00     0.001 A 
HETATM   27  C18 UNK     1      19.834   8.796  34.041  1.00  0.00     0.011 A 
ENDBRANCH  21  22
ENDBRANCH   2  20
TORSDOF 5
ENDMDL
MODEL 10
REMARK VINA RESULT:      -8.7      8.192     11.269
REMARK  5 active torsions:
REMARK  status: ('A' for Active; 'I' for Inactive)
REMARK    1  A    between atoms: C1_6  and  N1_4 
REMARK    2  A    between atoms: C8_13  and  N1_4 
REMARK    3  A    between atoms: C12_17  and  N2_5 
REMARK    4  A    between atoms: C2_7  and  C9_14 
REMARK    5  A    between atoms: C13_18  and  C14_19 
ROOT
HETATM    1  C1  UNK     1      24.160 -10.381  36.487  1.00  0.00     0.031 A 
HETATM    2  C2  UNK     1      26.652  -9.230  37.175  1.00  0.00    -0.036 A 
HETATM    3  C4  UNK     1      24.237  -9.163  37.204  1.00  0.00     0.030 A 
HETATM    4  C5  UNK     1      25.382 -10.999  36.128  1.00  0.00     0.030 A 
HETATM    5  C6  UNK     1      25.466  -8.596  37.543  1.00  0.00     0.013 A 
HETATM    6  C7  UNK     1      26.610 -10.431  36.467  1.00  0.00     0.013 A 
ENDROOT
BRANCH   1   7
HETATM    7  N1  UNK     1      22.953 -10.938  36.154  1.00  0.00    -0.365 N 
HETATM    8  H3  UNK     1      23.000 -11.595  35.384  1.00  0.00     0.165 HD
BRANCH   7   9
HETATM    9  C8  UNK     1      21.728 -10.745  36.693  1.00  0.00     0.103 C 
HETATM   10  C3  UNK     1      20.839  -9.790  36.387  1.00  0.00     0.032 A 
HETATM   11  C10 UNK     1      21.093  -8.780  35.375  1.00  0.00     0.053 A 
HETATM   12  C11 UNK     1      19.528  -9.771  37.124  1.00  0.00     0.183 A 
HETATM   13  C12 UNK     1      20.155  -7.861  35.125  1.00  0.00     0.103 A 
HETATM   14  C16 UNK     1      18.890  -7.800  35.797  1.00  0.00     0.040 A 
HETATM   15  C15 UNK     1      18.570  -8.691  36.745  1.00  0.00     0.058 A 
HETATM   16  O1  UNK     1      19.232 -10.582  37.994  1.00  0.00    -0.288 OA
BRANCH  13  17
HETATM   17  N2  UNK     1      20.474  -6.905  34.122  1.00  0.00    -0.116 N 
HETATM   18  O2  UNK     1      20.803  -7.339  33.009  1.00  0.00    -0.532 OA
HETATM   19  O3  UNK     1      20.401  -5.708  34.433  1.00  0.00    -0.532 OA
ENDBRANCH  13  17
ENDBRANCH   7   9
ENDBRANCH   1   7
BRANCH   2  20
HETATM   20  C9  UNK     1      27.933  -8.638  37.527  1.00  0.00     0.012 C 
HETATM   21  C14 UNK     1      28.210  -7.313  37.514  1.00  0.00     0.012 C 
BRANCH  21  22
HETATM   22  C13 UNK     1      29.502  -6.711  37.891  1.00  0.00    -0.036 A 
HETATM   23  C17 UNK     1      29.566  -5.352  38.153  1.00  0.00     0.011 A 
HETATM   24  C19 UNK     1      30.789  -4.782  38.509  1.00  0.00     0.001 A 
HETATM   25  C21 UNK     1      31.930  -5.579  38.599  1.00  0.00     0.000 A 
HETATM   26  C20 UNK     1      31.849  -6.946  38.333  1.00  0.00     0.001 A 
HETATM   27  C18 UNK     1      30.626  -7.516  37.976  1.00  0.00     0.011 A 
ENDBRANCH  21  22
ENDBRANCH   2  20
TORSDOF 5
ENDMDL
