MODEL 1
REMARK VINA RESULT:      -8.5      0.000      0.000
REMARK  4 active torsions:
REMARK  status: ('A' for Active; 'I' for Inactive)
REMARK    1  A    between atoms: N1_4  and  N2_5 
REMARK       I    between atoms: C6_11  and  N2_5 
REMARK    2  A    between atoms: C6_11  and  C7_12 
REMARK    3  A    between atoms: C11_16  and  C14_19 
REMARK    4  A    between atoms: C14_19  and  C17_22 
ROOT
HETATM    1  O1  UNK     1      19.080  -7.216  37.639  1.00  0.00    -0.273 OA
HETATM    2  O3  UNK     1      17.779  -5.792  36.416  1.00  0.00    -0.259 OA
HETATM    3  C7  UNK     1      19.833  -4.927  37.220  1.00  0.00     0.109 A 
HETATM    4  C8  UNK     1      21.210  -6.440  38.519  1.00  0.00    -0.000 A 
HETATM    5  C9  UNK     1      20.263  -7.448  38.368  1.00  0.00     0.096 A 
HETATM    6  C10 UNK     1      20.959  -5.143  37.911  1.00  0.00     0.037 A 
HETATM    7  C11 UNK     1      20.444  -8.714  38.924  1.00  0.00    -0.020 A 
HETATM    8  C12 UNK     1      18.811  -5.984  37.048  1.00  0.00     0.304 A 
HETATM    9  C13 UNK     1      22.370  -6.709  39.248  1.00  0.00     0.014 A 
HETATM   10  C15 UNK     1      21.604  -8.973  39.650  1.00  0.00     0.010 A 
HETATM   11  C16 UNK     1      22.565  -7.974  39.812  1.00  0.00     0.002 A 
ENDROOT
BRANCH   3  12
HETATM   12  C6  UNK     1      19.670  -3.586  36.647  1.00  0.00     0.272 C 
HETATM   13  O2  UNK     1      20.422  -3.183  35.761  1.00  0.00    -0.266 OA
HETATM   14  N2  UNK     1      18.618  -2.892  37.210  1.00  0.00    -0.285 N 
HETATM   15  H11 UNK     1      18.014  -3.286  37.925  1.00  0.00     0.184 HD
BRANCH  14  16
HETATM   16  N1  UNK     1      18.343  -1.611  36.767  1.00  0.00    -0.229 NA
HETATM   17  C4  UNK     1      17.249  -1.640  35.791  1.00  0.00     0.113 C 
HETATM   18  C2  UNK     1      16.951  -0.238  35.259  1.00  0.00     0.016 C 
HETATM   19  C1  UNK     1      16.649   0.735  36.395  1.00  0.00     0.002 C 
HETATM   20  C3  UNK     1      17.754   0.690  37.444  1.00  0.00     0.016 C 
HETATM   21  C5  UNK     1      18.026  -0.742  37.906  1.00  0.00     0.113 C 
ENDBRANCH  14  16
ENDBRANCH   3  12
BRANCH   7  22
HETATM   22  C14 UNK     1      19.422  -9.788  38.758  1.00  0.00     0.067 C 
BRANCH  22  23
HETATM   23  C17 UNK     1      19.886 -10.909  37.864  1.00  0.00    -0.032 C 
HETATM   24  C18 UNK     1      20.548 -10.730  36.716  1.00  0.00     0.007 C 
ENDBRANCH  22  23
ENDBRANCH   7  22
TORSDOF 4
ENDMDL
MODEL 2
REMARK VINA RESULT:      -8.4      2.393      8.490
REMARK  4 active torsions:
REMARK  status: ('A' for Active; 'I' for Inactive)
REMARK    1  A    between atoms: N1_4  and  N2_5 
REMARK       I    between atoms: C6_11  and  N2_5 
REMARK    2  A    between atoms: C6_11  and  C7_12 
REMARK    3  A    between atoms: C11_16  and  C14_19 
REMARK    4  A    between atoms: C14_19  and  C17_22 
ROOT
HETATM    1  O1  UNK     1      19.307  -0.897  34.724  1.00  0.00    -0.273 OA
HETATM    2  O3  UNK     1      20.473  -2.751  34.074  1.00  0.00    -0.259 OA
HETATM    3  C7  UNK     1      19.644  -2.743  36.293  1.00  0.00     0.109 A 
HETATM    4  C8  UNK     1      18.408  -0.775  36.980  1.00  0.00    -0.000 A 
HETATM    5  C9  UNK     1      18.593  -0.208  35.723  1.00  0.00     0.096 A 
HETATM    6  C10 UNK     1      18.965  -2.092  37.246  1.00  0.00     0.037 A 
HETATM    7  C11 UNK     1      18.084   1.051  35.404  1.00  0.00    -0.020 A 
HETATM    8  C12 UNK     1      19.853  -2.159  34.949  1.00  0.00     0.304 A 
HETATM    9  C13 UNK     1      17.695  -0.059  37.944  1.00  0.00     0.014 A 
HETATM   10  C15 UNK     1      17.374   1.757  36.371  1.00  0.00     0.010 A 
HETATM   11  C16 UNK     1      17.179   1.204  37.638  1.00  0.00     0.002 A 
ENDROOT
BRANCH   3  12
HETATM   12  C6  UNK     1      20.167  -4.065  36.657  1.00  0.00     0.272 C 
HETATM   13  O2  UNK     1      21.312  -4.195  37.084  1.00  0.00    -0.266 OA
HETATM   14  N2  UNK     1      19.243  -5.073  36.463  1.00  0.00    -0.285 N 
HETATM   15  H11 UNK     1      18.300  -4.904  36.129  1.00  0.00     0.184 HD
BRANCH  14  16
HETATM   16  N1  UNK     1      19.596  -6.376  36.766  1.00  0.00    -0.229 NA
HETATM   17  C4  UNK     1      18.628  -6.955  37.703  1.00  0.00     0.113 C 
HETATM   18  C2  UNK     1      19.017  -8.385  38.080  1.00  0.00     0.016 C 
HETATM   19  C1  UNK     1      19.178  -9.262  36.842  1.00  0.00     0.002 C 
HETATM   20  C3  UNK     1      20.121  -8.605  35.841  1.00  0.00     0.016 C 
HETATM   21  C5  UNK     1      19.696  -7.168  35.535  1.00  0.00     0.113 C 
ENDBRANCH  14  16
ENDBRANCH   3  12
BRANCH   7  22
HETATM   22  C14 UNK     1      18.288   1.651  34.053  1.00  0.00     0.067 C 
BRANCH  22  23
HETATM   23  C17 UNK     1      18.274   3.158  34.070  1.00  0.00    -0.032 C 
HETATM   24  C18 UNK     1      18.214   3.921  32.973  1.00  0.00     0.007 C 
ENDBRANCH  22  23
ENDBRANCH   7  22
TORSDOF 4
ENDMDL
MODEL 3
REMARK VINA RESULT:      -8.2      1.337      1.738
REMARK  4 active torsions:
REMARK  status: ('A' for Active; 'I' for Inactive)
REMARK    1  A    between atoms: N1_4  and  N2_5 
REMARK       I    between atoms: C6_11  and  N2_5 
REMARK    2  A    between atoms: C6_11  and  C7_12 
REMARK    3  A    between atoms: C11_16  and  C14_19 
REMARK    4  A    between atoms: C14_19  and  C17_22 
ROOT
HETATM    1  O1  UNK     1      20.445  -7.222  35.798  1.00  0.00    -0.273 OA
HETATM    2  O3  UNK     1      20.359  -5.468  34.337  1.00  0.00    -0.259 OA
HETATM    3  C7  UNK     1      20.051  -4.955  36.629  1.00  0.00     0.109 A 
HETATM    4  C8  UNK     1      20.142  -6.818  38.177  1.00  0.00    -0.000 A 
HETATM    5  C9  UNK     1      20.371  -7.696  37.122  1.00  0.00     0.096 A 
HETATM    6  C10 UNK     1      19.980  -5.401  37.890  1.00  0.00     0.037 A 
HETATM    7  C11 UNK     1      20.535  -9.065  37.330  1.00  0.00    -0.020 A 
HETATM    8  C12 UNK     1      20.293  -5.872  35.492  1.00  0.00     0.304 A 
HETATM    9  C13 UNK     1      20.075  -7.327  39.475  1.00  0.00     0.014 A 
HETATM   10  C15 UNK     1      20.467  -9.564  38.629  1.00  0.00     0.010 A 
HETATM   11  C16 UNK     1      20.237  -8.698  39.699  1.00  0.00     0.002 A 
ENDROOT
BRANCH   3  12
HETATM   12  C6  UNK     1      19.874  -3.511  36.441  1.00  0.00     0.272 C 
HETATM   13  O2  UNK     1      20.812  -2.801  36.081  1.00  0.00    -0.266 OA
HETATM   14  N2  UNK     1      18.585  -3.094  36.709  1.00  0.00    -0.285 N 
HETATM   15  H11 UNK     1      17.842  -3.731  36.981  1.00  0.00     0.184 HD
BRANCH  14  16
HETATM   16  N1  UNK     1      18.269  -1.755  36.574  1.00  0.00    -0.229 NA
HETATM   17  C4  UNK     1      17.116  -1.598  35.681  1.00  0.00     0.113 C 
HETATM   18  C2  UNK     1      16.769  -0.121  35.487  1.00  0.00     0.016 C 
HETATM   19  C1  UNK     1      16.529   0.574  36.824  1.00  0.00     0.002 C 
HETATM   20  C3  UNK     1      17.698   0.329  37.771  1.00  0.00     0.016 C 
HETATM   21  C5  UNK     1      18.015  -1.162  37.892  1.00  0.00     0.113 C 
ENDBRANCH  14  16
ENDBRANCH   3  12
BRANCH   7  22
HETATM   22  C14 UNK     1      20.780  -9.999  36.193  1.00  0.00     0.067 C 
BRANCH  22  23
HETATM   23  C17 UNK     1      22.241 -10.142  35.851  1.00  0.00    -0.032 C 
HETATM   24  C18 UNK     1      22.857 -11.313  35.660  1.00  0.00     0.007 C 
ENDBRANCH  22  23
ENDBRANCH   7  22
TORSDOF 4
ENDMDL
MODEL 4
REMARK VINA RESULT:      -8.2      2.097      8.433
REMARK  4 active torsions:
REMARK  status: ('A' for Active; 'I' for Inactive)
REMARK    1  A    between atoms: N1_4  and  N2_5 
REMARK       I    between atoms: C6_11  and  N2_5 
REMARK    2  A    between atoms: C6_11  and  C7_12 
REMARK    3  A    between atoms: C11_16  and  C14_19 
REMARK    4  A    between atoms: C14_19  and  C17_22 
ROOT
HETATM    1  O1  UNK     1      19.393  -1.044  34.699  1.00  0.00    -0.273 OA
HETATM    2  O3  UNK     1      20.504  -2.868  33.891  1.00  0.00    -0.259 OA
HETATM    3  C7  UNK     1      19.685  -3.021  36.108  1.00  0.00     0.109 A 
HETATM    4  C8  UNK     1      18.508  -1.083  36.963  1.00  0.00    -0.000 A 
HETATM    5  C9  UNK     1      18.703  -0.420  35.756  1.00  0.00     0.096 A 
HETATM    6  C10 UNK     1      19.029  -2.432  37.116  1.00  0.00     0.037 A 
HETATM    7  C11 UNK     1      18.228   0.874  35.545  1.00  0.00    -0.020 A 
HETATM    8  C12 UNK     1      19.904  -2.333  34.816  1.00  0.00     0.304 A 
HETATM    9  C13 UNK     1      17.819  -0.430  37.987  1.00  0.00     0.014 A 
HETATM   10  C15 UNK     1      17.541   1.517  36.572  1.00  0.00     0.010 A 
HETATM   11  C16 UNK     1      17.337   0.868  37.791  1.00  0.00     0.002 A 
ENDROOT
BRANCH   3  12
HETATM   12  C6  UNK     1      20.174  -4.382  36.359  1.00  0.00     0.272 C 
HETATM   13  O2  UNK     1      20.108  -5.247  35.488  1.00  0.00    -0.266 OA
HETATM   14  N2  UNK     1      20.685  -4.536  37.633  1.00  0.00    -0.285 N 
HETATM   15  H11 UNK     1      20.735  -3.777  38.305  1.00  0.00     0.184 HD
BRANCH  14  16
HETATM   16  N1  UNK     1      21.184  -5.768  38.013  1.00  0.00    -0.229 NA
HETATM   17  C4  UNK     1      22.521  -5.612  38.595  1.00  0.00     0.113 C 
HETATM   18  C2  UNK     1      23.109  -6.967  38.990  1.00  0.00     0.016 C 
HETATM   19  C1  UNK     1      22.181  -7.720  39.938  1.00  0.00     0.002 C 
HETATM   20  C3  UNK     1      20.774  -7.799  39.357  1.00  0.00     0.016 C 
HETATM   21  C5  UNK     1      20.260  -6.417  38.951  1.00  0.00     0.113 C 
ENDBRANCH  14  16
ENDBRANCH   3  12
BRANCH   7  22
HETATM   22  C14 UNK     1      18.442   1.578  34.247  1.00  0.00     0.067 C 
BRANCH  22  23
HETATM   23  C17 UNK     1      18.343   3.077  34.366  1.00  0.00    -0.032 C 
HETATM   24  C18 UNK     1      18.220   3.907  33.325  1.00  0.00     0.007 C 
ENDBRANCH  22  23
ENDBRANCH   7  22
TORSDOF 4
ENDMDL
MODEL 5
REMARK VINA RESULT:      -8.0      3.979      8.736
REMARK  4 active torsions:
REMARK  status: ('A' for Active; 'I' for Inactive)
REMARK    1  A    between atoms: N1_4  and  N2_5 
REMARK       I    between atoms: C6_11  and  N2_5 
REMARK    2  A    between atoms: C6_11  and  C7_12 
REMARK    3  A    between atoms: C11_16  and  C14_19 
REMARK    4  A    between atoms: C14_19  and  C17_22 
ROOT
HETATM    1  O1  UNK     1      19.017  -0.187  33.291  1.00  0.00    -0.273 OA
HETATM    2  O3  UNK     1      18.458  -0.204  35.506  1.00  0.00    -0.259 OA
HETATM    3  C7  UNK     1      19.627  -2.097  34.692  1.00  0.00     0.109 A 
HETATM    4  C8  UNK     1      20.218  -2.075  32.341  1.00  0.00    -0.000 A 
HETATM    5  C9  UNK     1      19.622  -0.827  32.193  1.00  0.00     0.096 A 
HETATM    6  C10 UNK     1      20.205  -2.709  33.651  1.00  0.00     0.037 A 
HETATM    7  C11 UNK     1      19.601  -0.166  30.965  1.00  0.00    -0.020 A 
HETATM    8  C12 UNK     1      18.987  -0.769  34.556  1.00  0.00     0.304 A 
HETATM    9  C13 UNK     1      20.808  -2.677  31.228  1.00  0.00     0.014 A 
HETATM   10  C15 UNK     1      20.192  -0.774  29.861  1.00  0.00     0.010 A 
HETATM   11  C16 UNK     1      20.794  -2.027  29.991  1.00  0.00     0.002 A 
ENDROOT
BRANCH   3  12
HETATM   12  C6  UNK     1      19.665  -2.816  35.970  1.00  0.00     0.272 C 
HETATM   13  O2  UNK     1      19.799  -2.211  37.032  1.00  0.00    -0.266 OA
HETATM   14  N2  UNK     1      19.535  -4.182  35.814  1.00  0.00    -0.285 N 
HETATM   15  H11 UNK     1      19.403  -4.627  34.911  1.00  0.00     0.184 HD
BRANCH  14  16
HETATM   16  N1  UNK     1      19.551  -4.992  36.936  1.00  0.00    -0.229 NA
HETATM   17  C4  UNK     1      18.826  -6.238  36.668  1.00  0.00     0.113 C 
HETATM   18  C2  UNK     1      18.799  -7.135  37.906  1.00  0.00     0.016 C 
HETATM   19  C1  UNK     1      20.209  -7.418  38.416  1.00  0.00     0.002 C 
HETATM   20  C3  UNK     1      20.979  -6.116  38.608  1.00  0.00     0.016 C 
HETATM   21  C5  UNK     1      20.935  -5.252  37.347  1.00  0.00     0.113 C 
ENDBRANCH  14  16
ENDBRANCH   3  12
BRANCH   7  22
HETATM   22  C14 UNK     1      18.959   1.173  30.815  1.00  0.00     0.067 C 
BRANCH  22  23
HETATM   23  C17 UNK     1      18.947   1.664  29.391  1.00  0.00    -0.032 C 
HETATM   24  C18 UNK     1      17.838   1.984  28.716  1.00  0.00     0.007 C 
ENDBRANCH  22  23
ENDBRANCH   7  22
TORSDOF 4
ENDMDL
MODEL 6
REMARK VINA RESULT:      -7.9     21.165     23.391
REMARK  4 active torsions:
REMARK  status: ('A' for Active; 'I' for Inactive)
REMARK    1  A    between atoms: N1_4  and  N2_5 
REMARK       I    between atoms: C6_11  and  N2_5 
REMARK    2  A    between atoms: C6_11  and  C7_12 
REMARK    3  A    between atoms: C11_16  and  C14_19 
REMARK    4  A    between atoms: C14_19  and  C17_22 
ROOT
HETATM    1  O1  UNK     1      19.606  -2.260  13.019  1.00  0.00    -0.273 OA
HETATM    2  O3  UNK     1      19.470  -0.274  14.140  1.00  0.00    -0.259 OA
HETATM    3  C7  UNK     1      18.608  -2.180  15.250  1.00  0.00     0.109 A 
HETATM    4  C8  UNK     1      18.752  -4.286  14.058  1.00  0.00    -0.000 A 
HETATM    5  C9  UNK     1      19.361  -3.646  12.983  1.00  0.00     0.096 A 
HETATM    6  C10 UNK     1      18.373  -3.498  15.221  1.00  0.00     0.037 A 
HETATM    7  C11 UNK     1      19.749  -4.343  11.839  1.00  0.00    -0.020 A 
HETATM    8  C12 UNK     1      19.253  -1.480  14.117  1.00  0.00     0.304 A 
HETATM    9  C13 UNK     1      18.526  -5.661  13.984  1.00  0.00     0.014 A 
HETATM   10  C15 UNK     1      19.520  -5.716  11.775  1.00  0.00     0.010 A 
HETATM   11  C16 UNK     1      18.910  -6.374  12.844  1.00  0.00     0.002 A 
ENDROOT
BRANCH   3  12
HETATM   12  C6  UNK     1      18.188  -1.474  16.466  1.00  0.00     0.272 C 
HETATM   13  O2  UNK     1      17.131  -1.755  17.027  1.00  0.00    -0.266 OA
HETATM   14  N2  UNK     1      19.097  -0.512  16.861  1.00  0.00    -0.285 N 
HETATM   15  H11 UNK     1      19.969  -0.339  16.371  1.00  0.00     0.184 HD
BRANCH  14  16
HETATM   16  N1  UNK     1      18.835   0.236  17.995  1.00  0.00    -0.229 NA
HETATM   17  C4  UNK     1      19.619  -0.273  19.126  1.00  0.00     0.113 C 
HETATM   18  C2  UNK     1      19.319   0.516  20.401  1.00  0.00     0.016 C 
HETATM   19  C1  UNK     1      19.552   2.010  20.197  1.00  0.00     0.002 C 
HETATM   20  C3  UNK     1      18.799   2.506  18.968  1.00  0.00     0.016 C 
HETATM   21  C5  UNK     1      19.117   1.653  17.738  1.00  0.00     0.113 C 
ENDBRANCH  14  16
ENDBRANCH   3  12
BRANCH   7  22
HETATM   22  C14 UNK     1      20.400  -3.649  10.691  1.00  0.00     0.067 C 
BRANCH  22  23
HETATM   23  C17 UNK     1      19.525  -3.588   9.466  1.00  0.00    -0.032 C 
HETATM   24  C18 UNK     1      19.988  -3.478   8.216  1.00  0.00     0.007 C 
ENDBRANCH  22  23
ENDBRANCH   7  22
TORSDOF 4
ENDMDL
MODEL 7
REMARK VINA RESULT:      -7.9      6.662     10.109
REMARK  4 active torsions:
REMARK  status: ('A' for Active; 'I' for Inactive)
REMARK    1  A    between atoms: N1_4  and  N2_5 
REMARK       I    between atoms: C6_11  and  N2_5 
REMARK    2  A    between atoms: C6_11  and  C7_12 
REMARK    3  A    between atoms: C11_16  and  C14_19 
REMARK    4  A    between atoms: C14_19  and  C17_22 
ROOT
HETATM    1  O1  UNK     1      18.650   1.068  32.614  1.00  0.00    -0.273 OA
HETATM    2  O3  UNK     1      17.902   3.014  33.548  1.00  0.00    -0.259 OA
HETATM    3  C7  UNK     1      18.629   3.129  31.297  1.00  0.00     0.109 A 
HETATM    4  C8  UNK     1      19.422   1.063  30.308  1.00  0.00    -0.000 A 
HETATM    5  C9  UNK     1      19.175   0.387  31.499  1.00  0.00     0.096 A 
HETATM    6  C10 UNK     1      19.128   2.486  30.233  1.00  0.00     0.037 A 
HETATM    7  C11 UNK     1      19.434  -0.976  31.635  1.00  0.00    -0.020 A 
HETATM    8  C12 UNK     1      18.360   2.429  32.573  1.00  0.00     0.304 A 
HETATM    9  C13 UNK     1      19.944   0.352  29.225  1.00  0.00     0.014 A 
HETATM   10  C15 UNK     1      19.954  -1.677  30.550  1.00  0.00     0.010 A 
HETATM   11  C16 UNK     1      20.209  -1.015  29.347  1.00  0.00     0.002 A 
ENDROOT
BRANCH   3  12
HETATM   12  C6  UNK     1      18.367   4.562  31.123  1.00  0.00     0.272 C 
HETATM   13  O2  UNK     1      18.853   5.184  30.181  1.00  0.00    -0.266 OA
HETATM   14  N2  UNK     1      17.546   5.074  32.109  1.00  0.00    -0.285 N 
HETATM   15  H11 UNK     1      17.152   4.506  32.853  1.00  0.00     0.184 HD
BRANCH  14  16
HETATM   16  N1  UNK     1      17.210   6.416  32.074  1.00  0.00    -0.229 NA
HETATM   17  C4  UNK     1      15.759   6.575  32.216  1.00  0.00     0.113 C 
HETATM   18  C2  UNK     1      15.359   8.049  32.144  1.00  0.00     0.016 C 
HETATM   19  C1  UNK     1      16.108   8.878  33.184  1.00  0.00     0.002 C 
HETATM   20  C3  UNK     1      17.609   8.636  33.080  1.00  0.00     0.016 C 
HETATM   21  C5  UNK     1      17.936   7.142  33.121  1.00  0.00     0.113 C 
ENDBRANCH  14  16
ENDBRANCH   3  12
BRANCH   7  22
HETATM   22  C14 UNK     1      19.167  -1.693  32.916  1.00  0.00     0.067 C 
BRANCH  22  23
HETATM   23  C17 UNK     1      20.392  -2.364  33.483  1.00  0.00    -0.032 C 
HETATM   24  C18 UNK     1      20.528  -2.722  34.764  1.00  0.00     0.007 C 
ENDBRANCH  22  23
ENDBRANCH   7  22
TORSDOF 4
ENDMDL
MODEL 8
REMARK VINA RESULT:      -7.7      7.515     10.108
REMARK  4 active torsions:
REMARK  status: ('A' for Active; 'I' for Inactive)
REMARK    1  A    between atoms: N1_4  and  N2_5 
REMARK       I    between atoms: C6_11  and  N2_5 
REMARK    2  A    between atoms: C6_11  and  C7_12 
REMARK    3  A    between atoms: C11_16  and  C14_19 
REMARK    4  A    between atoms: C14_19  and  C17_22 
ROOT
HETATM    1  O1  UNK     1      18.294   1.601  32.155  1.00  0.00    -0.273 OA
HETATM    2  O3  UNK     1      18.192   3.261  30.589  1.00  0.00    -0.259 OA
HETATM    3  C7  UNK     1      18.265   3.944  32.856  1.00  0.00     0.109 A 
HETATM    4  C8  UNK     1      18.372   2.180  34.515  1.00  0.00    -0.000 A 
HETATM    5  C9  UNK     1      18.356   1.219  33.509  1.00  0.00     0.096 A 
HETATM    6  C10 UNK     1      18.324   3.586  34.145  1.00  0.00     0.037 A 
HETATM    7  C11 UNK     1      18.400  -0.144  33.797  1.00  0.00    -0.020 A 
HETATM    8  C12 UNK     1      18.245   2.938  31.771  1.00  0.00     0.304 A 
HETATM    9  C13 UNK     1      18.433   1.762  35.846  1.00  0.00     0.014 A 
HETATM   10  C15 UNK     1      18.462  -0.552  35.127  1.00  0.00     0.010 A 
HETATM   11  C16 UNK     1      18.478   0.398  36.150  1.00  0.00     0.002 A 
ENDROOT
BRANCH   3  12
HETATM   12  C6  UNK     1      18.219   5.385  32.584  1.00  0.00     0.272 C 
HETATM   13  O2  UNK     1      19.091   5.929  31.909  1.00  0.00    -0.266 OA
HETATM   14  N2  UNK     1      17.124   5.999  33.159  1.00  0.00    -0.285 N 
HETATM   15  H11 UNK     1      16.420   5.494  33.689  1.00  0.00     0.184 HD
BRANCH  14  16
HETATM   16  N1  UNK     1      16.948   7.360  32.986  1.00  0.00    -0.229 NA
HETATM   17  C4  UNK     1      15.524   7.665  32.809  1.00  0.00     0.113 C 
HETATM   18  C2  UNK     1      15.308   9.162  32.579  1.00  0.00     0.016 C 
HETATM   19  C1  UNK     1      15.912   9.989  33.710  1.00  0.00     0.002 C 
HETATM   20  C3  UNK     1      17.368   9.600  33.939  1.00  0.00     0.016 C 
HETATM   21  C5  UNK     1      17.517   8.089  34.125  1.00  0.00     0.113 C 
ENDBRANCH  14  16
ENDBRANCH   3  12
BRANCH   7  22
HETATM   22  C14 UNK     1      18.382  -1.168  32.712  1.00  0.00     0.067 C 
BRANCH  22  23
HETATM   23  C17 UNK     1      19.760  -1.626  32.310  1.00  0.00    -0.032 C 
HETATM   24  C18 UNK     1      20.316  -1.381  31.119  1.00  0.00     0.007 C 
ENDBRANCH  22  23
ENDBRANCH   7  22
TORSDOF 4
ENDMDL
MODEL 9
REMARK VINA RESULT:      -7.7     12.263     14.976
REMARK  4 active torsions:
REMARK  status: ('A' for Active; 'I' for Inactive)
REMARK    1  A    between atoms: N1_4  and  N2_5 
REMARK       I    between atoms: C6_11  and  N2_5 
REMARK    2  A    between atoms: C6_11  and  C7_12 
REMARK    3  A    between atoms: C11_16  and  C14_19 
REMARK    4  A    between atoms: C14_19  and  C17_22 
ROOT
HETATM    1  O1  UNK     1      17.301   6.972  31.332  1.00  0.00    -0.273 OA
HETATM    2  O3  UNK     1      15.239   7.941  31.510  1.00  0.00    -0.259 OA
HETATM    3  C7  UNK     1      16.821   8.495  33.185  1.00  0.00     0.109 A 
HETATM    4  C8  UNK     1      19.006   7.465  32.993  1.00  0.00    -0.000 A 
HETATM    5  C9  UNK     1      18.603   6.802  31.838  1.00  0.00     0.096 A 
HETATM    6  C10 UNK     1      18.059   8.337  33.670  1.00  0.00     0.037 A 
HETATM    7  C11 UNK     1      19.463   5.953  31.142  1.00  0.00    -0.020 A 
HETATM    8  C12 UNK     1      16.372   7.799  31.959  1.00  0.00     0.304 A 
HETATM    9  C13 UNK     1      20.307   7.270  33.463  1.00  0.00     0.014 A 
HETATM   10  C15 UNK     1      20.758   5.765  31.619  1.00  0.00     0.010 A 
HETATM   11  C16 UNK     1      21.180   6.421  32.776  1.00  0.00     0.002 A 
ENDROOT
BRANCH   3  12
HETATM   12  C6  UNK     1      15.939   9.394  33.938  1.00  0.00     0.272 C 
HETATM   13  O2  UNK     1      15.889   9.348  35.165  1.00  0.00    -0.266 OA
HETATM   14  N2  UNK     1      15.223  10.244  33.118  1.00  0.00    -0.285 N 
HETATM   15  H11 UNK     1      15.323  10.255  32.108  1.00  0.00     0.184 HD
BRANCH  14  16
HETATM   16  N1  UNK     1      14.349  11.152  33.689  1.00  0.00    -0.229 NA
HETATM   17  C4  UNK     1      14.973  12.478  33.754  1.00  0.00     0.113 C 
HETATM   18  C2  UNK     1      14.038  13.492  34.416  1.00  0.00     0.016 C 
HETATM   19  C1  UNK     1      12.690  13.551  33.704  1.00  0.00     0.002 C 
HETATM   20  C3  UNK     1      12.095  12.154  33.568  1.00  0.00     0.016 C 
HETATM   21  C5  UNK     1      13.093  11.184  32.933  1.00  0.00     0.113 C 
ENDBRANCH  14  16
ENDBRANCH   3  12
BRANCH   7  22
HETATM   22  C14 UNK     1      19.022   5.245  29.905  1.00  0.00     0.067 C 
BRANCH  22  23
HETATM   23  C17 UNK     1      18.888   3.756  30.094  1.00  0.00    -0.032 C 
HETATM   24  C18 UNK     1      18.193   3.184  31.083  1.00  0.00     0.007 C 
ENDBRANCH  22  23
ENDBRANCH   7  22
TORSDOF 4
ENDMDL
MODEL 10
REMARK VINA RESULT:      -7.7      1.813      3.034
REMARK  4 active torsions:
REMARK  status: ('A' for Active; 'I' for Inactive)
REMARK    1  A    between atoms: N1_4  and  N2_5 
REMARK       I    between atoms: C6_11  and  N2_5 
REMARK    2  A    between atoms: C6_11  and  C7_12 
REMARK    3  A    between atoms: C11_16  and  C14_19 
REMARK    4  A    between atoms: C14_19  and  C17_22 
ROOT
HETATM    1  O1  UNK     1      20.359  -5.270  38.189  1.00  0.00    -0.273 OA
HETATM    2  O3  UNK     1      21.036  -3.088  38.207  1.00  0.00    -0.259 OA
HETATM    3  C7  UNK     1      20.092  -3.889  36.187  1.00  0.00     0.109 A 
HETATM    4  C8  UNK     1      19.377  -6.205  36.171  1.00  0.00    -0.000 A 
HETATM    5  C9  UNK     1      19.788  -6.352  37.492  1.00  0.00     0.096 A 
HETATM    6  C10 UNK     1      19.547  -4.915  35.520  1.00  0.00     0.037 A 
HETATM    7  C11 UNK     1      19.651  -7.561  38.173  1.00  0.00    -0.020 A 
HETATM    8  C12 UNK     1      20.537  -4.024  37.592  1.00  0.00     0.304 A 
HETATM    9  C13 UNK     1      18.814  -7.302  35.515  1.00  0.00     0.014 A 
HETATM   10  C15 UNK     1      19.089  -8.649  37.510  1.00  0.00     0.010 A 
HETATM   11  C16 UNK     1      18.672  -8.521  36.184  1.00  0.00     0.002 A 
ENDROOT
BRANCH   3  12
HETATM   12  C6  UNK     1      20.223  -2.630  35.445  1.00  0.00     0.272 C 
HETATM   13  O2  UNK     1      21.133  -2.466  34.636  1.00  0.00    -0.266 OA
HETATM   14  N2  UNK     1      19.237  -1.719  35.769  1.00  0.00    -0.285 N 
HETATM   15  H11 UNK     1      18.493  -1.919  36.431  1.00  0.00     0.184 HD
BRANCH  14  16
HETATM   16  N1  UNK     1      19.232  -0.484  35.146  1.00  0.00    -0.229 NA
HETATM   17  C4  UNK     1      18.392  -0.530  33.945  1.00  0.00     0.113 C 
HETATM   18  C2  UNK     1      18.399   0.816  33.218  1.00  0.00     0.016 C 
HETATM   19  C1  UNK     1      17.972   1.950  34.145  1.00  0.00     0.002 C 
HETATM   20  C3  UNK     1      18.797   1.931  35.427  1.00  0.00     0.016 C 
HETATM   21  C5  UNK     1      18.776   0.549  36.083  1.00  0.00     0.113 C 
ENDBRANCH  14  16
ENDBRANCH   3  12
BRANCH   7  22
HETATM   22  C14 UNK     1      20.096  -7.709  39.589  1.00  0.00     0.067 C 
BRANCH  22  23
HETATM   23  C17 UNK     1      21.458  -8.340  39.717  1.00  0.00    -0.032 C 
HETATM   24  C18 UNK     1      22.610  -7.663  39.645  1.00  0.00     0.007 C 
ENDBRANCH  22  23
ENDBRANCH   7  22
TORSDOF 4
ENDMDL
