MODEL 1
REMARK VINA RESULT:      -8.8      0.000      0.000
REMARK  3 active torsions:
REMARK  status: ('A' for Active; 'I' for Inactive)
REMARK    1  A    between atoms: C3_6  and  O1_1 
REMARK    2  A    between atoms: C4_7  and  O1_1 
REMARK    3  A    between atoms: C4_7  and  C6_9 
ROOT
HETATM    1  O2  UNK     1      19.997  -0.914  32.308  1.00  0.00    -0.275 OA
HETATM    2  O3  UNK     1      20.884  -2.847  33.157  1.00  0.00    -0.260 OA
HETATM    3  C1  UNK     1      19.853  -0.638  29.894  1.00  0.00    -0.002 A 
HETATM    4  C2  UNK     1      19.639  -0.148  31.179  1.00  0.00     0.092 A 
HETATM    5  C3  UNK     1      18.705   1.883  30.305  1.00  0.00     0.071 A 
HETATM    6  C5  UNK     1      19.069   1.104  31.401  1.00  0.00     0.075 A 
HETATM    7  C7  UNK     1      19.486   0.150  28.801  1.00  0.00     0.017 A 
HETATM    8  C8  UNK     1      18.913   1.408  29.008  1.00  0.00     0.038 A 
HETATM    9  C9  UNK     1      20.453  -1.952  29.736  1.00  0.00     0.020 A 
HETATM   10  C12 UNK     1      20.789  -2.672  30.810  1.00  0.00     0.083 A 
HETATM   11  C13 UNK     1      20.571  -2.174  32.181  1.00  0.00     0.288 A 
ENDROOT
BRANCH   5  12
HETATM   12  O1  UNK     1      18.146   3.110  30.498  1.00  0.00    -0.347 OA
BRANCH  12  13
HETATM   13  C4  UNK     1      18.980   4.245  30.278  1.00  0.00     0.214 C 
BRANCH  13  14
HETATM   14  C6  UNK     1      19.059   5.047  31.544  1.00  0.00    -0.034 A 
HETATM   15  C10 UNK     1      18.095   4.871  32.531  1.00  0.00     0.009 A 
HETATM   16  C14 UNK     1      18.166   5.617  33.707  1.00  0.00     0.001 A 
HETATM   17  C16 UNK     1      19.202   6.534  33.890  1.00  0.00     0.000 A 
HETATM   18  C15 UNK     1      20.164   6.706  32.895  1.00  0.00     0.001 A 
HETATM   19  C11 UNK     1      20.093   5.960  31.718  1.00  0.00     0.009 A 
ENDBRANCH  13  14
ENDBRANCH  12  13
ENDBRANCH   5  12
TORSDOF 3
ENDMDL
MODEL 2
REMARK VINA RESULT:      -8.8      0.014      1.109
REMARK  3 active torsions:
REMARK  status: ('A' for Active; 'I' for Inactive)
REMARK    1  A    between atoms: C3_6  and  O1_1 
REMARK    2  A    between atoms: C4_7  and  O1_1 
REMARK    3  A    between atoms: C4_7  and  C6_9 
ROOT
HETATM    1  O2  UNK     1      19.995  -0.911  32.305  1.00  0.00    -0.275 OA
HETATM    2  O3  UNK     1      20.886  -2.844  33.151  1.00  0.00    -0.260 OA
HETATM    3  C1  UNK     1      19.846  -0.634  29.892  1.00  0.00    -0.002 A 
HETATM    4  C2  UNK     1      19.634  -0.145  31.177  1.00  0.00     0.092 A 
HETATM    5  C3  UNK     1      18.697   1.886  30.306  1.00  0.00     0.071 A 
HETATM    6  C5  UNK     1      19.064   1.107  31.401  1.00  0.00     0.075 A 
HETATM    7  C7  UNK     1      19.476   0.154  28.800  1.00  0.00     0.017 A 
HETATM    8  C8  UNK     1      18.903   1.412  29.009  1.00  0.00     0.038 A 
HETATM    9  C9  UNK     1      20.446  -1.948  29.732  1.00  0.00     0.020 A 
HETATM   10  C12 UNK     1      20.785  -2.668  30.804  1.00  0.00     0.083 A 
HETATM   11  C13 UNK     1      20.570  -2.170  32.176  1.00  0.00     0.288 A 
ENDROOT
BRANCH   5  12
HETATM   12  O1  UNK     1      18.138   3.112  30.501  1.00  0.00    -0.347 OA
BRANCH  12  13
HETATM   13  C4  UNK     1      18.969   4.248  30.273  1.00  0.00     0.214 C 
BRANCH  13  14
HETATM   14  C6  UNK     1      19.054   5.054  31.536  1.00  0.00    -0.034 A 
HETATM   15  C10 UNK     1      20.100   5.954  31.709  1.00  0.00     0.009 A 
HETATM   16  C14 UNK     1      20.181   6.702  32.883  1.00  0.00     0.001 A 
HETATM   17  C16 UNK     1      19.213   6.547  33.877  1.00  0.00     0.000 A 
HETATM   18  C15 UNK     1      18.167   5.642  33.697  1.00  0.00     0.001 A 
HETATM   19  C11 UNK     1      18.087   4.894  32.522  1.00  0.00     0.009 A 
ENDBRANCH  13  14
ENDBRANCH  12  13
ENDBRANCH   5  12
TORSDOF 3
ENDMDL
MODEL 3
REMARK VINA RESULT:      -8.6      2.353      7.219
REMARK  3 active torsions:
REMARK  status: ('A' for Active; 'I' for Inactive)
REMARK    1  A    between atoms: C3_6  and  O1_1 
REMARK    2  A    between atoms: C4_7  and  O1_1 
REMARK    3  A    between atoms: C4_7  and  C6_9 
ROOT
HETATM    1  O2  UNK     1      17.314   6.055  33.537  1.00  0.00    -0.275 OA
HETATM    2  O3  UNK     1      16.600   7.261  35.349  1.00  0.00    -0.260 OA
HETATM    3  C1  UNK     1      19.501   6.533  32.584  1.00  0.00    -0.002 A 
HETATM    4  C2  UNK     1      18.318   5.801  32.580  1.00  0.00     0.092 A 
HETATM    5  C3  UNK     1      19.052   4.527  30.682  1.00  0.00     0.071 A 
HETATM    6  C5  UNK     1      18.078   4.801  31.641  1.00  0.00     0.075 A 
HETATM    7  C7  UNK     1      20.472   6.253  31.621  1.00  0.00     0.017 A 
HETATM    8  C8  UNK     1      20.246   5.252  30.672  1.00  0.00     0.038 A 
HETATM    9  C9  UNK     1      19.684   7.564  33.593  1.00  0.00     0.020 A 
HETATM   10  C12 UNK     1      18.729   7.798  34.496  1.00  0.00     0.083 A 
HETATM   11  C13 UNK     1      17.467   7.035  34.511  1.00  0.00     0.288 A 
ENDROOT
BRANCH   5  12
HETATM   12  O1  UNK     1      18.840   3.553  29.755  1.00  0.00    -0.347 OA
BRANCH  12  13
HETATM   13  C4  UNK     1      18.121   2.397  30.181  1.00  0.00     0.214 C 
BRANCH  13  14
HETATM   14  C6  UNK     1      18.968   1.181  29.948  1.00  0.00    -0.034 A 
HETATM   15  C10 UNK     1      19.029   0.617  28.678  1.00  0.00     0.009 A 
HETATM   16  C14 UNK     1      19.815  -0.514  28.461  1.00  0.00     0.001 A 
HETATM   17  C16 UNK     1      20.537  -1.074  29.516  1.00  0.00     0.000 A 
HETATM   18  C15 UNK     1      20.471  -0.504  30.787  1.00  0.00     0.001 A 
HETATM   19  C11 UNK     1      19.684   0.628  31.003  1.00  0.00     0.009 A 
ENDBRANCH  13  14
ENDBRANCH  12  13
ENDBRANCH   5  12
TORSDOF 3
ENDMDL
MODEL 4
REMARK VINA RESULT:      -8.5      2.439      7.302
REMARK  3 active torsions:
REMARK  status: ('A' for Active; 'I' for Inactive)
REMARK    1  A    between atoms: C3_6  and  O1_1 
REMARK    2  A    between atoms: C4_7  and  O1_1 
REMARK    3  A    between atoms: C4_7  and  C6_9 
ROOT
HETATM    1  O2  UNK     1      17.436   6.381  33.604  1.00  0.00    -0.275 OA
HETATM    2  O3  UNK     1      16.823   7.655  35.407  1.00  0.00    -0.260 OA
HETATM    3  C1  UNK     1      19.679   6.626  32.691  1.00  0.00    -0.002 A 
HETATM    4  C2  UNK     1      18.424   6.023  32.664  1.00  0.00     0.092 A 
HETATM    5  C3  UNK     1      19.052   4.681  30.776  1.00  0.00     0.071 A 
HETATM    6  C5  UNK     1      18.096   5.055  31.718  1.00  0.00     0.075 A 
HETATM    7  C7  UNK     1      20.631   6.246  31.743  1.00  0.00     0.017 A 
HETATM    8  C8  UNK     1      20.316   5.275  30.788  1.00  0.00     0.038 A 
HETATM    9  C9  UNK     1      19.953   7.630  33.706  1.00  0.00     0.020 A 
HETATM   10  C12 UNK     1      19.012   7.963  34.593  1.00  0.00     0.083 A 
HETATM   11  C13 UNK     1      17.676   7.339  34.584  1.00  0.00     0.288 A 
ENDROOT
BRANCH   5  12
HETATM   12  O1  UNK     1      18.755   3.736  29.842  1.00  0.00    -0.347 OA
BRANCH  12  13
HETATM   13  C4  UNK     1      18.083   2.563  30.297  1.00  0.00     0.214 C 
BRANCH  13  14
HETATM   14  C6  UNK     1      18.889   1.357  29.913  1.00  0.00    -0.034 A 
HETATM   15  C10 UNK     1      19.810   0.831  30.812  1.00  0.00     0.009 A 
HETATM   16  C14 UNK     1      20.561  -0.290  30.455  1.00  0.00     0.001 A 
HETATM   17  C16 UNK     1      20.384  -0.877  29.202  1.00  0.00     0.000 A 
HETATM   18  C15 UNK     1      19.458  -0.344  28.305  1.00  0.00     0.001 A 
HETATM   19  C11 UNK     1      18.708   0.777  28.663  1.00  0.00     0.009 A 
ENDBRANCH  13  14
ENDBRANCH  12  13
ENDBRANCH   5  12
TORSDOF 3
ENDMDL
MODEL 5
REMARK VINA RESULT:      -8.2      1.083      1.715
REMARK  3 active torsions:
REMARK  status: ('A' for Active; 'I' for Inactive)
REMARK    1  A    between atoms: C3_6  and  O1_1 
REMARK    2  A    between atoms: C4_7  and  O1_1 
REMARK    3  A    between atoms: C4_7  and  C6_9 
ROOT
HETATM    1  O2  UNK     1      19.920  -0.711  32.049  1.00  0.00    -0.275 OA
HETATM    2  O3  UNK     1      20.962  -2.746  32.183  1.00  0.00    -0.260 OA
HETATM    3  C1  UNK     1      19.553   0.289  29.861  1.00  0.00    -0.002 A 
HETATM    4  C2  UNK     1      19.431   0.340  31.247  1.00  0.00     0.092 A 
HETATM    5  C3  UNK     1      18.336   2.473  31.124  1.00  0.00     0.071 A 
HETATM    6  C5  UNK     1      18.829   1.419  31.890  1.00  0.00     0.075 A 
HETATM    7  C7  UNK     1      19.056   1.349  29.100  1.00  0.00     0.017 A 
HETATM    8  C8  UNK     1      18.450   2.439  29.732  1.00  0.00     0.038 A 
HETATM    9  C9  UNK     1      20.193  -0.867  29.256  1.00  0.00     0.020 A 
HETATM   10  C12 UNK     1      20.653  -1.858  30.023  1.00  0.00     0.083 A 
HETATM   11  C13 UNK     1      20.535  -1.826  31.492  1.00  0.00     0.288 A 
ENDROOT
BRANCH   5  12
HETATM   12  O1  UNK     1      17.742   3.538  31.731  1.00  0.00    -0.347 OA
BRANCH  12  13
HETATM   13  C4  UNK     1      18.210   3.886  33.032  1.00  0.00     0.214 C 
BRANCH  13  14
HETATM   14  C6  UNK     1      18.271   5.381  33.146  1.00  0.00    -0.034 A 
HETATM   15  C10 UNK     1      19.430   5.988  33.615  1.00  0.00     0.009 A 
HETATM   16  C14 UNK     1      19.487   7.378  33.723  1.00  0.00     0.001 A 
HETATM   17  C16 UNK     1      18.384   8.151  33.360  1.00  0.00     0.000 A 
HETATM   18  C15 UNK     1      17.224   7.535  32.891  1.00  0.00     0.001 A 
HETATM   19  C11 UNK     1      17.168   6.145  32.784  1.00  0.00     0.009 A 
ENDBRANCH  13  14
ENDBRANCH  12  13
ENDBRANCH   5  12
TORSDOF 3
ENDMDL
MODEL 6
REMARK VINA RESULT:      -7.8      1.820      2.889
REMARK  3 active torsions:
REMARK  status: ('A' for Active; 'I' for Inactive)
REMARK    1  A    between atoms: C3_6  and  O1_1 
REMARK    2  A    between atoms: C4_7  and  O1_1 
REMARK    3  A    between atoms: C4_7  and  C6_9 
ROOT
HETATM    1  O2  UNK     1      19.734   0.667  29.745  1.00  0.00    -0.275 OA
HETATM    2  O3  UNK     1      20.680  -0.759  28.222  1.00  0.00    -0.260 OA
HETATM    3  C1  UNK     1      19.195  -0.163  31.968  1.00  0.00    -0.002 A 
HETATM    4  C2  UNK     1      19.221   0.876  31.041  1.00  0.00     0.092 A 
HETATM    5  C3  UNK     1      18.232   2.384  32.625  1.00  0.00     0.071 A 
HETATM    6  C5  UNK     1      18.745   2.148  31.352  1.00  0.00     0.075 A 
HETATM    7  C7  UNK     1      18.678   0.082  33.242  1.00  0.00     0.017 A 
HETATM    8  C8  UNK     1      18.198   1.353  33.568  1.00  0.00     0.038 A 
HETATM    9  C9  UNK     1      19.706  -1.465  31.575  1.00  0.00     0.020 A 
HETATM   10  C12 UNK     1      20.192  -1.654  30.346  1.00  0.00     0.083 A 
HETATM   11  C13 UNK     1      20.230  -0.570  29.347  1.00  0.00     0.288 A 
ENDROOT
BRANCH   5  12
HETATM   12  O1  UNK     1      17.762   3.619  32.952  1.00  0.00    -0.347 OA
BRANCH  12  13
HETATM   13  C4  UNK     1      18.143   4.703  32.106  1.00  0.00     0.214 C 
BRANCH  13  14
HETATM   14  C6  UNK     1      18.511   5.882  32.958  1.00  0.00    -0.034 A 
HETATM   15  C10 UNK     1      19.764   6.469  32.816  1.00  0.00     0.009 A 
HETATM   16  C14 UNK     1      20.107   7.565  33.607  1.00  0.00     0.001 A 
HETATM   17  C16 UNK     1      19.194   8.068  34.535  1.00  0.00     0.000 A 
HETATM   18  C15 UNK     1      17.940   7.474  34.673  1.00  0.00     0.001 A 
HETATM   19  C11 UNK     1      17.597   6.378  33.880  1.00  0.00     0.009 A 
ENDBRANCH  13  14
ENDBRANCH  12  13
ENDBRANCH   5  12
TORSDOF 3
ENDMDL
MODEL 7
REMARK VINA RESULT:      -7.8     22.489     24.508
REMARK  3 active torsions:
REMARK  status: ('A' for Active; 'I' for Inactive)
REMARK    1  A    between atoms: C3_6  and  O1_1 
REMARK    2  A    between atoms: C4_7  and  O1_1 
REMARK    3  A    between atoms: C4_7  and  C6_9 
ROOT
HETATM    1  O2  UNK     1       9.541   5.138   8.937  1.00  0.00    -0.275 OA
HETATM    2  O3  UNK     1       7.254   5.205   9.043  1.00  0.00    -0.260 OA
HETATM    3  C1  UNK     1      10.673   6.246   7.089  1.00  0.00    -0.002 A 
HETATM    4  C2  UNK     1      10.725   5.498   8.262  1.00  0.00     0.092 A 
HETATM    5  C3  UNK     1      13.123   5.420   8.166  1.00  0.00     0.071 A 
HETATM    6  C5  UNK     1      11.935   5.079   8.811  1.00  0.00     0.075 A 
HETATM    7  C7  UNK     1      11.867   6.583   6.449  1.00  0.00     0.017 A 
HETATM    8  C8  UNK     1      13.089   6.169   6.988  1.00  0.00     0.038 A 
HETATM    9  C9  UNK     1       9.375   6.649   6.572  1.00  0.00     0.020 A 
HETATM   10  C12 UNK     1       8.258   6.304   7.218  1.00  0.00     0.083 A 
HETATM   11  C13 UNK     1       8.289   5.513   8.462  1.00  0.00     0.288 A 
ENDROOT
BRANCH   5  12
HETATM   12  O1  UNK     1      14.317   5.022   8.684  1.00  0.00    -0.347 OA
BRANCH  12  13
HETATM   13  C4  UNK     1      14.550   5.298  10.064  1.00  0.00     0.214 C 
BRANCH  13  14
HETATM   14  C6  UNK     1      15.255   6.617  10.187  1.00  0.00    -0.034 A 
HETATM   15  C10 UNK     1      16.627   6.686   9.976  1.00  0.00     0.009 A 
HETATM   16  C14 UNK     1      17.284   7.912  10.091  1.00  0.00     0.001 A 
HETATM   17  C16 UNK     1      16.561   9.061  10.415  1.00  0.00     0.000 A 
HETATM   18  C15 UNK     1      15.185   8.984  10.626  1.00  0.00     0.001 A 
HETATM   19  C11 UNK     1      14.529   7.758  10.510  1.00  0.00     0.009 A 
ENDBRANCH  13  14
ENDBRANCH  12  13
ENDBRANCH   5  12
TORSDOF 3
ENDMDL
MODEL 8
REMARK VINA RESULT:      -7.7     22.491     24.483
REMARK  3 active torsions:
REMARK  status: ('A' for Active; 'I' for Inactive)
REMARK    1  A    between atoms: C3_6  and  O1_1 
REMARK    2  A    between atoms: C4_7  and  O1_1 
REMARK    3  A    between atoms: C4_7  and  C6_9 
ROOT
HETATM    1  O2  UNK     1       9.512   5.160   8.983  1.00  0.00    -0.275 OA
HETATM    2  O3  UNK     1       7.225   5.203   9.099  1.00  0.00    -0.260 OA
HETATM    3  C1  UNK     1      10.623   6.251   7.112  1.00  0.00    -0.002 A 
HETATM    4  C2  UNK     1      10.689   5.523   8.297  1.00  0.00     0.092 A 
HETATM    5  C3  UNK     1      13.087   5.470   8.190  1.00  0.00     0.071 A 
HETATM    6  C5  UNK     1      11.907   5.126   8.846  1.00  0.00     0.075 A 
HETATM    7  C7  UNK     1      11.810   6.592   6.461  1.00  0.00     0.017 A 
HETATM    8  C8  UNK     1      13.039   6.201   7.000  1.00  0.00     0.038 A 
HETATM    9  C9  UNK     1       9.318   6.631   6.595  1.00  0.00     0.020 A 
HETATM   10  C12 UNK     1       8.208   6.284   7.251  1.00  0.00     0.083 A 
HETATM   11  C13 UNK     1       8.254   5.513   8.508  1.00  0.00     0.288 A 
ENDROOT
BRANCH   5  12
HETATM   12  O1  UNK     1      14.288   5.094   8.709  1.00  0.00    -0.347 OA
BRANCH  12  13
HETATM   13  C4  UNK     1      14.517   5.377  10.087  1.00  0.00     0.214 C 
BRANCH  13  14
HETATM   14  C6  UNK     1      15.259   6.676  10.204  1.00  0.00    -0.034 A 
HETATM   15  C10 UNK     1      14.564   7.840  10.513  1.00  0.00     0.009 A 
HETATM   16  C14 UNK     1      15.253   9.049  10.620  1.00  0.00     0.001 A 
HETATM   17  C16 UNK     1      16.634   9.084  10.419  1.00  0.00     0.000 A 
HETATM   18  C15 UNK     1      17.324   7.913  10.109  1.00  0.00     0.001 A 
HETATM   19  C11 UNK     1      16.634   6.705  10.002  1.00  0.00     0.009 A 
ENDBRANCH  13  14
ENDBRANCH  12  13
ENDBRANCH   5  12
TORSDOF 3
ENDMDL
MODEL 9
REMARK VINA RESULT:      -7.7      3.330      5.304
REMARK  3 active torsions:
REMARK  status: ('A' for Active; 'I' for Inactive)
REMARK    1  A    between atoms: C3_6  and  O1_1 
REMARK    2  A    between atoms: C4_7  and  O1_1 
REMARK    3  A    between atoms: C4_7  and  C6_9 
ROOT
HETATM    1  O2  UNK     1      18.666   0.616  30.769  1.00  0.00    -0.275 OA
HETATM    2  O3  UNK     1      18.470   1.880  28.869  1.00  0.00    -0.260 OA
HETATM    3  C1  UNK     1      20.271  -1.213  30.814  1.00  0.00    -0.002 A 
HETATM    4  C2  UNK     1      19.289  -0.454  31.444  1.00  0.00     0.092 A 
HETATM    5  C3  UNK     1      19.484  -1.768  33.444  1.00  0.00     0.071 A 
HETATM    6  C5  UNK     1      18.886  -0.717  32.752  1.00  0.00     0.075 A 
HETATM    7  C7  UNK     1      20.865  -2.265  31.514  1.00  0.00     0.017 A 
HETATM    8  C8  UNK     1      20.471  -2.540  32.827  1.00  0.00     0.038 A 
HETATM    9  C9  UNK     1      20.642  -0.884  29.447  1.00  0.00     0.020 A 
HETATM   10  C12 UNK     1      20.048   0.131  28.816  1.00  0.00     0.083 A 
HETATM   11  C13 UNK     1      19.006   0.950  29.463  1.00  0.00     0.288 A 
ENDROOT
BRANCH   5  12
HETATM   12  O1  UNK     1      19.106  -2.043  34.723  1.00  0.00    -0.347 OA
BRANCH  12  13
HETATM   13  C4  UNK     1      19.711  -1.271  35.758  1.00  0.00     0.214 C 
BRANCH  13  14
HETATM   14  C6  UNK     1      18.734  -0.235  36.231  1.00  0.00    -0.034 A 
HETATM   15  C10 UNK     1      17.628  -0.625  36.978  1.00  0.00     0.009 A 
HETATM   16  C14 UNK     1      16.717   0.337  37.418  1.00  0.00     0.001 A 
HETATM   17  C16 UNK     1      16.921   1.683  37.108  1.00  0.00     0.000 A 
HETATM   18  C15 UNK     1      18.033   2.066  36.358  1.00  0.00     0.001 A 
HETATM   19  C11 UNK     1      18.942   1.103  35.919  1.00  0.00     0.009 A 
ENDBRANCH  13  14
ENDBRANCH  12  13
ENDBRANCH   5  12
TORSDOF 3
ENDMDL
MODEL 10
REMARK VINA RESULT:      -7.7      2.143      7.643
REMARK  3 active torsions:
REMARK  status: ('A' for Active; 'I' for Inactive)
REMARK    1  A    between atoms: C3_6  and  O1_1 
REMARK    2  A    between atoms: C4_7  and  O1_1 
REMARK    3  A    between atoms: C4_7  and  C6_9 
ROOT
HETATM    1  O2  UNK     1      17.012   6.476  31.261  1.00  0.00    -0.275 OA
HETATM    2  O3  UNK     1      16.300   8.623  30.902  1.00  0.00    -0.260 OA
HETATM    3  C1  UNK     1      17.735   5.825  33.491  1.00  0.00    -0.002 A 
HETATM    4  C2  UNK     1      17.508   5.506  32.156  1.00  0.00     0.092 A 
HETATM    5  C3  UNK     1      18.249   3.251  32.515  1.00  0.00     0.071 A 
HETATM    6  C5  UNK     1      17.759   4.231  31.654  1.00  0.00     0.075 A 
HETATM    7  C7  UNK     1      18.227   4.838  34.348  1.00  0.00     0.017 A 
HETATM    8  C8  UNK     1      18.484   3.554  33.858  1.00  0.00     0.038 A 
HETATM    9  C9  UNK     1      17.453   7.176  33.947  1.00  0.00     0.020 A 
HETATM   10  C12 UNK     1      16.982   8.089  33.093  1.00  0.00     0.083 A 
HETATM   11  C13 UNK     1      16.734   7.774  31.674  1.00  0.00     0.288 A 
ENDROOT
BRANCH   5  12
HETATM   12  O1  UNK     1      18.501   1.997  32.047  1.00  0.00    -0.347 OA
BRANCH  12  13
HETATM   13  C4  UNK     1      18.819   1.873  30.662  1.00  0.00     0.214 C 
BRANCH  13  14
HETATM   14  C6  UNK     1      19.414   0.518  30.416  1.00  0.00    -0.034 A 
HETATM   15  C10 UNK     1      19.410  -0.430  31.434  1.00  0.00     0.009 A 
HETATM   16  C14 UNK     1      19.963  -1.690  31.206  1.00  0.00     0.001 A 
HETATM   17  C16 UNK     1      20.517  -1.994  29.962  1.00  0.00     0.000 A 
HETATM   18  C15 UNK     1      20.518  -1.039  28.947  1.00  0.00     0.001 A 
HETATM   19  C11 UNK     1      19.964   0.222  29.175  1.00  0.00     0.009 A 
ENDBRANCH  13  14
ENDBRANCH  12  13
ENDBRANCH   5  12
TORSDOF 3
ENDMDL
