MODEL 1
REMARK VINA RESULT:      -8.7      0.000      0.000
REMARK  4 active torsions:
REMARK  status: ('A' for Active; 'I' for Inactive)
REMARK    1  A    between atoms: C15_21  and  O2_3 
REMARK    2  A    between atoms: C1_7  and  N1_6 
REMARK       I    between atoms: C7_13  and  N1_6 
REMARK    3  A    between atoms: C1_7  and  C3_9 
REMARK    4  A    between atoms: C4_10  and  C7_13 
ROOT
HETATM    1  O3  UNK     1      20.421  -1.524  35.515  1.00  0.00    -0.267 OA
HETATM    2  N1  UNK     1      19.878  -3.731  34.996  1.00  0.00    -0.352 N 
HETATM    3  C7  UNK     1      20.188  -2.416  34.701  1.00  0.00     0.258 C 
HETATM    4  H4  UNK     1      19.687  -4.392  34.250  1.00  0.00     0.163 HD
ENDROOT
BRANCH   3   5
HETATM    5  C4  UNK     1      20.223  -2.148  33.258  1.00  0.00     0.108 A 
HETATM    6  C11 UNK     1      20.866  -3.077  32.302  1.00  0.00     0.304 A 
HETATM    7  O1  UNK     1      20.834  -2.713  30.959  1.00  0.00    -0.274 OA
HETATM    8  O4  UNK     1      21.402  -4.117  32.669  1.00  0.00    -0.259 OA
HETATM    9  C5  UNK     1      20.222  -1.520  30.526  1.00  0.00     0.089 A 
HETATM   10  C12 UNK     1      20.240  -1.241  29.162  1.00  0.00     0.039 A 
HETATM   11  C2  UNK     1      19.623  -0.661  31.442  1.00  0.00     0.000 A 
HETATM   12  C17 UNK     1      19.642  -0.069  28.704  1.00  0.00     0.022 A 
HETATM   13  C16 UNK     1      19.036   0.806  29.608  1.00  0.00     0.011 A 
HETATM   14 Br1  UNK     1      18.227   2.396  28.980  1.00  0.00    -0.051 Br
HETATM   15  C10 UNK     1      19.025   0.513  30.974  1.00  0.00     0.033 A 
HETATM   16  C6  UNK     1      19.640  -1.014  32.854  1.00  0.00     0.037 A 
ENDBRANCH   3   5
BRANCH   2  17
HETATM   17  C1  UNK     1      19.788  -4.235  36.349  1.00  0.00     0.161 C 
BRANCH  17  18
HETATM   18  C3  UNK     1      19.831  -5.735  36.393  1.00  0.00    -0.040 A 
HETATM   19  C8  UNK     1      20.206  -6.447  35.259  1.00  0.00     0.011 A 
HETATM   20  C13 UNK     1      20.245  -7.840  35.301  1.00  0.00     0.037 A 
HETATM   21  C15 UNK     1      19.908  -8.513  36.476  1.00  0.00     0.068 A 
HETATM   22  C14 UNK     1      19.532  -7.791  37.609  1.00  0.00     0.037 A 
HETATM   23  C9  UNK     1      19.494  -6.397  37.567  1.00  0.00     0.011 A 
BRANCH  21  24
HETATM   24  O2  UNK     1      19.947  -9.872  36.516  1.00  0.00    -0.356 OA
HETATM   25  C18 UNK     1      19.562 -10.498  37.739  1.00  0.00     0.210 C 
ENDBRANCH  21  24
ENDBRANCH  17  18
ENDBRANCH   2  17
TORSDOF 4
ENDMDL
MODEL 2
REMARK VINA RESULT:      -8.6      4.952      9.969
REMARK  4 active torsions:
REMARK  status: ('A' for Active; 'I' for Inactive)
REMARK    1  A    between atoms: C15_21  and  O2_3 
REMARK    2  A    between atoms: C1_7  and  N1_6 
REMARK       I    between atoms: C7_13  and  N1_6 
REMARK    3  A    between atoms: C1_7  and  C3_9 
REMARK    4  A    between atoms: C4_10  and  C7_13 
ROOT
HETATM    1  O3  UNK     1      17.478   1.883  29.300  1.00  0.00    -0.267 OA
HETATM    2  N1  UNK     1      19.281   2.964  30.308  1.00  0.00    -0.352 N 
HETATM    3  C7  UNK     1      18.541   1.862  29.917  1.00  0.00     0.258 C 
HETATM    4  H4  UNK     1      20.143   2.842  30.829  1.00  0.00     0.163 HD
ENDROOT
BRANCH   3   5
HETATM    5  C4  UNK     1      19.157   0.590  30.316  1.00  0.00     0.108 A 
HETATM    6  C11 UNK     1      19.814  -0.305  29.338  1.00  0.00     0.304 A 
HETATM    7  O1  UNK     1      20.361  -1.483  29.838  1.00  0.00    -0.274 OA
HETATM    8  O4  UNK     1      19.875  -0.028  28.145  1.00  0.00    -0.259 OA
HETATM    9  C5  UNK     1      20.295  -1.812  31.206  1.00  0.00     0.089 A 
HETATM   10  C12 UNK     1      20.872  -3.013  31.612  1.00  0.00     0.039 A 
HETATM   11  C2  UNK     1      19.672  -0.955  32.109  1.00  0.00     0.000 A 
HETATM   12  C17 UNK     1      20.822  -3.364  32.959  1.00  0.00     0.022 A 
HETATM   13  C16 UNK     1      20.202  -2.517  33.881  1.00  0.00     0.011 A 
HETATM   14 Br1  UNK     1      20.138  -3.001  35.707  1.00  0.00    -0.051 Br
HETATM   15  C10 UNK     1      19.628  -1.315  33.458  1.00  0.00     0.033 A 
HETATM   16  C6  UNK     1      19.091   0.284  31.616  1.00  0.00     0.037 A 
ENDBRANCH   3   5
BRANCH   2  17
HETATM   17  C1  UNK     1      18.879   4.324  30.026  1.00  0.00     0.161 C 
BRANCH  17  18
HETATM   18  C3  UNK     1      18.923   5.188  31.252  1.00  0.00    -0.040 A 
HETATM   19  C8  UNK     1      17.803   5.278  32.071  1.00  0.00     0.011 A 
HETATM   20  C13 UNK     1      17.844   6.081  33.210  1.00  0.00     0.037 A 
HETATM   21  C15 UNK     1      19.003   6.791  33.522  1.00  0.00     0.068 A 
HETATM   22  C14 UNK     1      20.122   6.696  32.693  1.00  0.00     0.037 A 
HETATM   23  C9  UNK     1      20.082   5.892  31.555  1.00  0.00     0.011 A 
BRANCH  21  24
HETATM   24  O2  UNK     1      19.042   7.575  34.633  1.00  0.00    -0.356 OA
HETATM   25  C18 UNK     1      19.791   8.787  34.548  1.00  0.00     0.210 C 
ENDBRANCH  21  24
ENDBRANCH  17  18
ENDBRANCH   2  17
TORSDOF 4
ENDMDL
MODEL 3
REMARK VINA RESULT:      -8.3      5.951      9.220
REMARK  4 active torsions:
REMARK  status: ('A' for Active; 'I' for Inactive)
REMARK    1  A    between atoms: C15_21  and  O2_3 
REMARK    2  A    between atoms: C1_7  and  N1_6 
REMARK       I    between atoms: C7_13  and  N1_6 
REMARK    3  A    between atoms: C1_7  and  C3_9 
REMARK    4  A    between atoms: C4_10  and  C7_13 
ROOT
HETATM    1  O3  UNK     1      19.418   5.127  29.788  1.00  0.00    -0.267 OA
HETATM    2  N1  UNK     1      18.226   3.239  30.460  1.00  0.00    -0.352 N 
HETATM    3  C7  UNK     1      18.673   4.544  30.573  1.00  0.00     0.258 C 
HETATM    4  H4  UNK     1      17.622   2.842  31.172  1.00  0.00     0.163 HD
ENDROOT
BRANCH   3   5
HETATM    5  C4  UNK     1      18.158   5.222  31.769  1.00  0.00     0.108 A 
HETATM    6  C11 UNK     1      18.194   4.590  33.106  1.00  0.00     0.304 A 
HETATM    7  O1  UNK     1      17.675   5.333  34.163  1.00  0.00    -0.274 OA
HETATM    8  O4  UNK     1      18.656   3.468  33.281  1.00  0.00    -0.259 OA
HETATM    9  C5  UNK     1      17.141   6.623  33.974  1.00  0.00     0.089 A 
HETATM   10  C12 UNK     1      16.645   7.289  35.092  1.00  0.00     0.039 A 
HETATM   11  C2  UNK     1      17.117   7.198  32.707  1.00  0.00     0.000 A 
HETATM   12  C17 UNK     1      16.112   8.566  34.936  1.00  0.00     0.022 A 
HETATM   13  C16 UNK     1      16.079   9.161  33.672  1.00  0.00     0.011 A 
HETATM   14 Br1  UNK     1      15.352  10.894  33.467  1.00  0.00    -0.051 Br
HETATM   15  C10 UNK     1      16.580   8.480  32.560  1.00  0.00     0.033 A 
HETATM   16  C6  UNK     1      17.652   6.446  31.582  1.00  0.00     0.037 A 
ENDBRANCH   3   5
BRANCH   2  17
HETATM   17  C1  UNK     1      18.596   2.371  29.365  1.00  0.00     0.161 C 
BRANCH  17  18
HETATM   18  C3  UNK     1      19.172   1.072  29.847  1.00  0.00    -0.040 A 
HETATM   19  C8  UNK     1      19.061   0.726  31.189  1.00  0.00     0.011 A 
HETATM   20  C13 UNK     1      19.596  -0.482  31.636  1.00  0.00     0.037 A 
HETATM   21  C15 UNK     1      20.241  -1.334  30.740  1.00  0.00     0.068 A 
HETATM   22  C14 UNK     1      20.349  -0.978  29.395  1.00  0.00     0.037 A 
HETATM   23  C9  UNK     1      19.812   0.228  28.947  1.00  0.00     0.011 A 
BRANCH  21  24
HETATM   24  O2  UNK     1      20.762  -2.512  31.177  1.00  0.00    -0.356 OA
HETATM   25  C18 UNK     1      20.967  -2.649  32.583  1.00  0.00     0.210 C 
ENDBRANCH  21  24
ENDBRANCH  17  18
ENDBRANCH   2  17
TORSDOF 4
ENDMDL
MODEL 4
REMARK VINA RESULT:      -8.2      9.630     13.060
REMARK  4 active torsions:
REMARK  status: ('A' for Active; 'I' for Inactive)
REMARK    1  A    between atoms: C15_21  and  O2_3 
REMARK    2  A    between atoms: C1_7  and  N1_6 
REMARK       I    between atoms: C7_13  and  N1_6 
REMARK    3  A    between atoms: C1_7  and  C3_9 
REMARK    4  A    between atoms: C4_10  and  C7_13 
ROOT
HETATM    1  O3  UNK     1      17.263   6.990  34.804  1.00  0.00    -0.267 OA
HETATM    2  N1  UNK     1      18.134   7.778  32.790  1.00  0.00    -0.352 N 
HETATM    3  C7  UNK     1      17.224   7.742  33.832  1.00  0.00     0.258 C 
HETATM    4  H4  UNK     1      18.005   8.428  32.021  1.00  0.00     0.163 HD
ENDROOT
BRANCH   3   5
HETATM    5  C4  UNK     1      16.145   8.726  33.682  1.00  0.00     0.108 A 
HETATM    6  C11 UNK     1      15.538   9.032  32.367  1.00  0.00     0.304 A 
HETATM    7  O1  UNK     1      14.523   9.984  32.353  1.00  0.00    -0.274 OA
HETATM    8  O4  UNK     1      15.908   8.478  31.337  1.00  0.00    -0.259 OA
HETATM    9  C5  UNK     1      14.091  10.627  33.530  1.00  0.00     0.089 A 
HETATM   10  C12 UNK     1      13.068  11.566  33.416  1.00  0.00     0.039 A 
HETATM   11  C2  UNK     1      14.675  10.325  34.756  1.00  0.00     0.000 A 
HETATM   12  C17 UNK     1      12.620  12.218  34.562  1.00  0.00     0.022 A 
HETATM   13  C16 UNK     1      13.193  11.927  35.803  1.00  0.00     0.011 A 
HETATM   14 Br1  UNK     1      12.580  12.817  37.354  1.00  0.00    -0.051 Br
HETATM   15  C10 UNK     1      14.219  10.983  35.901  1.00  0.00     0.033 A 
HETATM   16  C6  UNK     1      15.739   9.333  34.802  1.00  0.00     0.037 A 
ENDBRANCH   3   5
BRANCH   2  17
HETATM   17  C1  UNK     1      19.284   6.905  32.717  1.00  0.00     0.161 C 
BRANCH  17  18
HETATM   18  C3  UNK     1      18.962   5.606  32.038  1.00  0.00    -0.040 A 
HETATM   19  C8  UNK     1      18.367   4.580  32.763  1.00  0.00     0.011 A 
HETATM   20  C13 UNK     1      18.068   3.373  32.132  1.00  0.00     0.037 A 
HETATM   21  C15 UNK     1      18.367   3.199  30.781  1.00  0.00     0.068 A 
HETATM   22  C14 UNK     1      18.965   4.234  30.061  1.00  0.00     0.037 A 
HETATM   23  C9  UNK     1      19.263   5.441  30.692  1.00  0.00     0.011 A 
BRANCH  21  24
HETATM   24  O2  UNK     1      18.075   2.021  30.166  1.00  0.00    -0.356 OA
HETATM   25  C18 UNK     1      17.917   2.050  28.748  1.00  0.00     0.210 C 
ENDBRANCH  21  24
ENDBRANCH  17  18
ENDBRANCH   2  17
TORSDOF 4
ENDMDL
MODEL 5
REMARK VINA RESULT:      -8.1      3.703      8.829
REMARK  4 active torsions:
REMARK  status: ('A' for Active; 'I' for Inactive)
REMARK    1  A    between atoms: C15_21  and  O2_3 
REMARK    2  A    between atoms: C1_7  and  N1_6 
REMARK       I    between atoms: C7_13  and  N1_6 
REMARK    3  A    between atoms: C1_7  and  C3_9 
REMARK    4  A    between atoms: C4_10  and  C7_13 
ROOT
HETATM    1  O3  UNK     1      20.103  -3.729  37.687  1.00  0.00    -0.267 OA
HETATM    2  N1  UNK     1      19.777  -3.807  35.380  1.00  0.00    -0.352 N 
HETATM    3  C7  UNK     1      19.904  -4.351  36.645  1.00  0.00     0.258 C 
HETATM    4  H4  UNK     1      19.629  -4.408  34.576  1.00  0.00     0.163 HD
ENDROOT
BRANCH   3   5
HETATM    5  C4  UNK     1      19.773  -5.814  36.653  1.00  0.00     0.108 A 
HETATM    6  C11 UNK     1      18.467  -6.484  36.833  1.00  0.00     0.304 A 
HETATM    7  O1  UNK     1      18.472  -7.876  36.822  1.00  0.00    -0.274 OA
HETATM    8  O4  UNK     1      17.428  -5.850  36.985  1.00  0.00    -0.259 OA
HETATM    9  C5  UNK     1      19.659  -8.614  36.648  1.00  0.00     0.089 A 
HETATM   10  C12 UNK     1      19.564 -10.004  36.652  1.00  0.00     0.039 A 
HETATM   11  C2  UNK     1      20.877  -7.963  36.481  1.00  0.00     0.000 A 
HETATM   12  C17 UNK     1      20.721 -10.760  36.482  1.00  0.00     0.022 A 
HETATM   13  C16 UNK     1      21.954 -10.125  36.312  1.00  0.00     0.011 A 
HETATM   14 Br1  UNK     1      23.520 -11.158  36.083  1.00  0.00    -0.051 Br
HETATM   15  C10 UNK     1      22.033  -8.730  36.311  1.00  0.00     0.033 A 
HETATM   16  C6  UNK     1      20.904  -6.509  36.488  1.00  0.00     0.037 A 
ENDBRANCH   3   5
BRANCH   2  17
HETATM   17  C1  UNK     1      19.866  -2.387  35.120  1.00  0.00     0.161 C 
BRANCH  17  18
HETATM   18  C3  UNK     1      19.939  -2.088  33.651  1.00  0.00    -0.040 A 
HETATM   19  C8  UNK     1      20.831  -2.790  32.849  1.00  0.00     0.011 A 
HETATM   20  C13 UNK     1      20.898  -2.511  31.484  1.00  0.00     0.037 A 
HETATM   21  C15 UNK     1      20.074  -1.532  30.931  1.00  0.00     0.068 A 
HETATM   22  C14 UNK     1      19.182  -0.832  31.743  1.00  0.00     0.037 A 
HETATM   23  C9  UNK     1      19.113  -1.111  33.107  1.00  0.00     0.011 A 
BRANCH  21  24
HETATM   24  O2  UNK     1      20.140  -1.261  29.599  1.00  0.00    -0.356 OA
HETATM   25  C18 UNK     1      19.743   0.044  29.181  1.00  0.00     0.210 C 
ENDBRANCH  21  24
ENDBRANCH  17  18
ENDBRANCH   2  17
TORSDOF 4
ENDMDL
MODEL 6
REMARK VINA RESULT:      -8.1      8.191     10.373
REMARK  4 active torsions:
REMARK  status: ('A' for Active; 'I' for Inactive)
REMARK    1  A    between atoms: C15_21  and  O2_3 
REMARK    2  A    between atoms: C1_7  and  N1_6 
REMARK       I    between atoms: C7_13  and  N1_6 
REMARK    3  A    between atoms: C1_7  and  C3_9 
REMARK    4  A    between atoms: C4_10  and  C7_13 
ROOT
HETATM    1  O3  UNK     1      25.853  -8.930  37.580  1.00  0.00    -0.267 OA
HETATM    2  N1  UNK     1      24.753  -7.520  39.076  1.00  0.00    -0.352 N 
HETATM    3  C7  UNK     1      25.818  -7.929  38.293  1.00  0.00     0.258 C 
HETATM    4  H4  UNK     1      24.828  -6.683  39.645  1.00  0.00     0.163 HD
ENDROOT
BRANCH   3   5
HETATM    5  C4  UNK     1      26.972  -7.025  38.383  1.00  0.00     0.108 A 
HETATM    6  C11 UNK     1      26.819  -5.585  38.686  1.00  0.00     0.304 A 
HETATM    7  O1  UNK     1      27.988  -4.831  38.743  1.00  0.00    -0.274 OA
HETATM    8  O4  UNK     1      25.720  -5.076  38.878  1.00  0.00    -0.259 OA
HETATM    9  C5  UNK     1      29.255  -5.405  38.525  1.00  0.00     0.089 A 
HETATM   10  C12 UNK     1      30.367  -4.570  38.603  1.00  0.00     0.039 A 
HETATM   11  C2  UNK     1      29.376  -6.762  38.240  1.00  0.00     0.000 A 
HETATM   12  C17 UNK     1      31.634  -5.111  38.391  1.00  0.00     0.022 A 
HETATM   13  C16 UNK     1      31.775  -6.471  38.105  1.00  0.00     0.011 A 
HETATM   14 Br1  UNK     1      33.497  -7.197  37.818  1.00  0.00    -0.051 Br
HETATM   15  C10 UNK     1      30.650  -7.296  38.030  1.00  0.00     0.033 A 
HETATM   16  C6  UNK     1      28.172  -7.577  38.173  1.00  0.00     0.037 A 
ENDBRANCH   3   5
BRANCH   2  17
HETATM   17  C1  UNK     1      23.505  -8.247  39.150  1.00  0.00     0.161 C 
BRANCH  17  18
HETATM   18  C3  UNK     1      22.512  -7.763  38.135  1.00  0.00    -0.040 A 
HETATM   19  C8  UNK     1      21.869  -6.546  38.327  1.00  0.00     0.011 A 
HETATM   20  C13 UNK     1      20.945  -6.096  37.383  1.00  0.00     0.037 A 
HETATM   21  C15 UNK     1      20.670  -6.868  36.254  1.00  0.00     0.068 A 
HETATM   22  C14 UNK     1      21.319  -8.089  36.070  1.00  0.00     0.037 A 
HETATM   23  C9  UNK     1      22.243  -8.538  37.013  1.00  0.00     0.011 A 
BRANCH  21  24
HETATM   24  O2  UNK     1      19.769  -6.429  35.334  1.00  0.00    -0.356 OA
HETATM   25  C18 UNK     1      18.515  -7.108  35.277  1.00  0.00     0.210 C 
ENDBRANCH  21  24
ENDBRANCH  17  18
ENDBRANCH   2  17
TORSDOF 4
ENDMDL
MODEL 7
REMARK VINA RESULT:      -8.1     26.149     28.351
REMARK  4 active torsions:
REMARK  status: ('A' for Active; 'I' for Inactive)
REMARK    1  A    between atoms: C15_21  and  O2_3 
REMARK    2  A    between atoms: C1_7  and  N1_6 
REMARK       I    between atoms: C7_13  and  N1_6 
REMARK    3  A    between atoms: C1_7  and  C3_9 
REMARK    4  A    between atoms: C4_10  and  C7_13 
ROOT
HETATM    1  O3  UNK     1       7.090   7.080   8.766  1.00  0.00    -0.267 OA
HETATM    2  N1  UNK     1       8.805   5.529   8.465  1.00  0.00    -0.352 N 
HETATM    3  C7  UNK     1       7.615   5.992   8.998  1.00  0.00     0.258 C 
HETATM    4  H4  UNK     1       9.165   4.619   8.731  1.00  0.00     0.163 HD
ENDROOT
BRANCH   3   5
HETATM    5  C4  UNK     1       6.987   5.031   9.913  1.00  0.00     0.108 A 
HETATM    6  C11 UNK     1       6.653   3.652   9.495  1.00  0.00     0.304 A 
HETATM    7  O1  UNK     1       6.059   2.834  10.452  1.00  0.00    -0.274 OA
HETATM    8  O4  UNK     1       6.883   3.244   8.361  1.00  0.00    -0.259 OA
HETATM    9  C5  UNK     1       5.790   3.292  11.757  1.00  0.00     0.089 A 
HETATM   10  C12 UNK     1       5.194   2.401  12.646  1.00  0.00     0.039 A 
HETATM   11  C2  UNK     1       6.112   4.594  12.129  1.00  0.00     0.000 A 
HETATM   12  C17 UNK     1       4.915   2.826  13.943  1.00  0.00     0.022 A 
HETATM   13  C16 UNK     1       5.232   4.128  14.336  1.00  0.00     0.011 A 
HETATM   14 Br1  UNK     1       4.850   4.698  16.098  1.00  0.00    -0.051 Br
HETATM   15  C10 UNK     1       5.830   5.011  13.433  1.00  0.00     0.033 A 
HETATM   16  C6  UNK     1       6.733   5.473  11.150  1.00  0.00     0.037 A 
ENDBRANCH   3   5
BRANCH   2  17
HETATM   17  C1  UNK     1       9.604   6.297   7.536  1.00  0.00     0.161 C 
BRANCH  17  18
HETATM   18  C3  UNK     1      11.075   6.099   7.764  1.00  0.00    -0.040 A 
HETATM   19  C8  UNK     1      11.991   6.789   6.978  1.00  0.00     0.011 A 
HETATM   20  C13 UNK     1      13.357   6.605   7.189  1.00  0.00     0.037 A 
HETATM   21  C15 UNK     1      13.798   5.731   8.184  1.00  0.00     0.068 A 
HETATM   22  C14 UNK     1      12.871   5.043   8.967  1.00  0.00     0.037 A 
HETATM   23  C9  UNK     1      11.505   5.228   8.757  1.00  0.00     0.011 A 
BRANCH  21  24
HETATM   24  O2  UNK     1      15.131   5.553   8.389  1.00  0.00    -0.356 OA
HETATM   25  C18 UNK     1      15.532   5.075   9.673  1.00  0.00     0.210 C 
ENDBRANCH  21  24
ENDBRANCH  17  18
ENDBRANCH   2  17
TORSDOF 4
ENDMDL
MODEL 8
REMARK VINA RESULT:      -8.0      2.278      3.355
REMARK  4 active torsions:
REMARK  status: ('A' for Active; 'I' for Inactive)
REMARK    1  A    between atoms: C15_21  and  O2_3 
REMARK    2  A    between atoms: C1_7  and  N1_6 
REMARK       I    between atoms: C7_13  and  N1_6 
REMARK    3  A    between atoms: C1_7  and  C3_9 
REMARK    4  A    between atoms: C4_10  and  C7_13 
ROOT
HETATM    1  O3  UNK     1      21.430  -4.071  37.329  1.00  0.00    -0.267 OA
HETATM    2  N1  UNK     1      19.427  -5.190  36.915  1.00  0.00    -0.352 N 
HETATM    3  C7  UNK     1      20.332  -4.152  36.782  1.00  0.00     0.258 C 
HETATM    4  H4  UNK     1      18.535  -5.157  36.432  1.00  0.00     0.163 HD
ENDROOT
BRANCH   3   5
HETATM    5  C4  UNK     1      19.856  -3.092  35.884  1.00  0.00     0.108 A 
HETATM    6  C11 UNK     1      18.916  -2.043  36.336  1.00  0.00     0.304 A 
HETATM    7  O1  UNK     1      18.537  -1.093  35.391  1.00  0.00    -0.274 OA
HETATM    8  O4  UNK     1      18.487  -2.008  37.484  1.00  0.00    -0.259 OA
HETATM    9  C5  UNK     1      19.023  -1.124  34.070  1.00  0.00     0.089 A 
HETATM   10  C12 UNK     1      18.588  -0.130  33.196  1.00  0.00     0.039 A 
HETATM   11  C2  UNK     1      19.907  -2.120  33.665  1.00  0.00     0.000 A 
HETATM   12  C17 UNK     1      19.052  -0.135  31.883  1.00  0.00     0.022 A 
HETATM   13  C16 UNK     1      19.940  -1.126  31.458  1.00  0.00     0.011 A 
HETATM   14 Br1  UNK     1      20.565  -1.127  29.674  1.00  0.00    -0.051 Br
HETATM   15  C10 UNK     1      20.368  -2.117  32.346  1.00  0.00     0.033 A 
HETATM   16  C6  UNK     1      20.321  -3.127  34.630  1.00  0.00     0.037 A 
ENDBRANCH   3   5
BRANCH   2  17
HETATM   17  C1  UNK     1      19.673  -6.348  37.745  1.00  0.00     0.161 C 
BRANCH  17  18
HETATM   18  C3  UNK     1      20.351  -7.450  36.984  1.00  0.00    -0.040 A 
HETATM   19  C8  UNK     1      20.432  -7.380  35.598  1.00  0.00     0.011 A 
HETATM   20  C13 UNK     1      21.062  -8.404  34.891  1.00  0.00     0.037 A 
HETATM   21  C15 UNK     1      21.604  -9.492  35.575  1.00  0.00     0.068 A 
HETATM   22  C14 UNK     1      21.517  -9.555  36.966  1.00  0.00     0.037 A 
HETATM   23  C9  UNK     1      20.889  -8.530  37.673  1.00  0.00     0.011 A 
BRANCH  21  24
HETATM   24  O2  UNK     1      22.219 -10.491  34.885  1.00  0.00    -0.356 OA
HETATM   25  C18 UNK     1      23.029 -11.396  35.634  1.00  0.00     0.210 C 
ENDBRANCH  21  24
ENDBRANCH  17  18
ENDBRANCH   2  17
TORSDOF 4
ENDMDL
MODEL 9
REMARK VINA RESULT:      -7.9      4.389      9.820
REMARK  4 active torsions:
REMARK  status: ('A' for Active; 'I' for Inactive)
REMARK    1  A    between atoms: C15_21  and  O2_3 
REMARK    2  A    between atoms: C1_7  and  N1_6 
REMARK       I    between atoms: C7_13  and  N1_6 
REMARK    3  A    between atoms: C1_7  and  C3_9 
REMARK    4  A    between atoms: C4_10  and  C7_13 
ROOT
HETATM    1  O3  UNK     1      19.610  -0.202  29.304  1.00  0.00    -0.267 OA
HETATM    2  N1  UNK     1      18.943   1.438  30.821  1.00  0.00    -0.352 N 
HETATM    3  C7  UNK     1      19.393   0.183  30.451  1.00  0.00     0.258 C 
HETATM    4  H4  UNK     1      18.779   1.655  31.798  1.00  0.00     0.163 HD
ENDROOT
BRANCH   3   5
HETATM    5  C4  UNK     1      19.606  -0.708  31.598  1.00  0.00     0.108 A 
HETATM    6  C11 UNK     1      20.422  -1.938  31.497  1.00  0.00     0.304 A 
HETATM    7  O1  UNK     1      20.550  -2.701  32.654  1.00  0.00    -0.274 OA
HETATM    8  O4  UNK     1      20.961  -2.274  30.447  1.00  0.00    -0.259 OA
HETATM    9  C5  UNK     1      19.935  -2.325  33.864  1.00  0.00     0.089 A 
HETATM   10  C12 UNK     1      20.121  -3.153  34.969  1.00  0.00     0.039 A 
HETATM   11  C2  UNK     1      19.171  -1.164  33.938  1.00  0.00     0.000 A 
HETATM   12  C17 UNK     1      19.525  -2.806  36.180  1.00  0.00     0.022 A 
HETATM   13  C16 UNK     1      18.755  -1.644  36.274  1.00  0.00     0.011 A 
HETATM   14 Br1  UNK     1      17.948  -1.181  37.920  1.00  0.00    -0.051 Br
HETATM   15  C10 UNK     1      18.578  -0.824  35.156  1.00  0.00     0.033 A 
HETATM   16  C6  UNK     1      19.019  -0.346  32.745  1.00  0.00     0.037 A 
ENDBRANCH   3   5
BRANCH   2  17
HETATM   17  C1  UNK     1      18.665   2.488  29.867  1.00  0.00     0.161 C 
BRANCH  17  18
HETATM   18  C3  UNK     1      18.604   3.839  30.520  1.00  0.00    -0.040 A 
HETATM   19  C8  UNK     1      18.089   3.959  31.805  1.00  0.00     0.011 A 
HETATM   20  C13 UNK     1      18.032   5.214  32.411  1.00  0.00     0.037 A 
HETATM   21  C15 UNK     1      18.489   6.340  31.727  1.00  0.00     0.068 A 
HETATM   22  C14 UNK     1      19.004   6.210  30.437  1.00  0.00     0.037 A 
HETATM   23  C9  UNK     1      19.062   4.956  29.831  1.00  0.00     0.011 A 
BRANCH  21  24
HETATM   24  O2  UNK     1      18.433   7.564  32.319  1.00  0.00    -0.356 OA
HETATM   25  C18 UNK     1      17.171   7.976  32.842  1.00  0.00     0.210 C 
ENDBRANCH  21  24
ENDBRANCH  17  18
ENDBRANCH   2  17
TORSDOF 4
ENDMDL
MODEL 10
REMARK VINA RESULT:      -7.9      7.642     12.175
REMARK  4 active torsions:
REMARK  status: ('A' for Active; 'I' for Inactive)
REMARK    1  A    between atoms: C15_21  and  O2_3 
REMARK    2  A    between atoms: C1_7  and  N1_6 
REMARK       I    between atoms: C7_13  and  N1_6 
REMARK    3  A    between atoms: C1_7  and  C3_9 
REMARK    4  A    between atoms: C4_10  and  C7_13 
ROOT
HETATM    1  O3  UNK     1      19.433   6.082  32.336  1.00  0.00    -0.267 OA
HETATM    2  N1  UNK     1      17.142   5.965  31.923  1.00  0.00    -0.352 N 
HETATM    3  C7  UNK     1      18.377   5.456  32.283  1.00  0.00     0.258 C 
HETATM    4  H4  UNK     1      16.327   5.361  31.896  1.00  0.00     0.163 HD
ENDROOT
BRANCH   3   5
HETATM    5  C4  UNK     1      18.328   4.028  32.620  1.00  0.00     0.108 A 
HETATM    6  C11 UNK     1      18.392   2.974  31.583  1.00  0.00     0.304 A 
HETATM    7  O1  UNK     1      18.337   1.656  32.026  1.00  0.00    -0.274 OA
HETATM    8  O4  UNK     1      18.488   3.243  30.390  1.00  0.00    -0.259 OA
HETATM    9  C5  UNK     1      18.227   1.335  33.393  1.00  0.00     0.089 A 
HETATM   10  C12 UNK     1      18.179  -0.013  33.741  1.00  0.00     0.039 A 
HETATM   11  C2  UNK     1      18.168   2.342  34.352  1.00  0.00     0.000 A 
HETATM   12  C17 UNK     1      18.070  -0.360  35.085  1.00  0.00     0.022 A 
HETATM   13  C16 UNK     1      18.010   0.636  36.063  1.00  0.00     0.011 A 
HETATM   14 Br1  UNK     1      17.861   0.157  37.886  1.00  0.00    -0.051 Br
HETATM   15  C10 UNK     1      18.059   1.984  35.699  1.00  0.00     0.033 A 
HETATM   16  C6  UNK     1      18.223   3.730  33.920  1.00  0.00     0.037 A 
ENDBRANCH   3   5
BRANCH   2  17
HETATM   17  C1  UNK     1      16.937   7.348  31.552  1.00  0.00     0.161 C 
BRANCH  17  18
HETATM   18  C3  UNK     1      16.391   8.160  32.690  1.00  0.00    -0.040 A 
HETATM   19  C8  UNK     1      15.047   8.053  33.029  1.00  0.00     0.011 A 
HETATM   20  C13 UNK     1      14.540   8.808  34.086  1.00  0.00     0.037 A 
HETATM   21  C15 UNK     1      15.379   9.666  34.796  1.00  0.00     0.068 A 
HETATM   22  C14 UNK     1      16.726   9.768  34.449  1.00  0.00     0.037 A 
HETATM   23  C9  UNK     1      17.234   9.012  33.393  1.00  0.00     0.011 A 
BRANCH  21  24
HETATM   24  O2  UNK     1      14.883  10.402  35.828  1.00  0.00    -0.356 OA
HETATM   25  C18 UNK     1      14.856  11.819  35.660  1.00  0.00     0.210 C 
ENDBRANCH  21  24
ENDBRANCH  17  18
ENDBRANCH   2  17
TORSDOF 4
ENDMDL
