MODEL 1
REMARK VINA RESULT:      -8.5      0.000      0.000
REMARK  1 active torsions:
REMARK  status: ('A' for Active; 'I' for Inactive)
REMARK       I    between atoms: C7_11  and  N1_4 
REMARK    1  A    between atoms: C7_11  and  C8_12 
ROOT
HETATM    1  O2  UNK     1      18.474   2.093  30.432  1.00  0.00    -0.274 OA
HETATM    2  O3  UNK     1      17.578   3.621  31.877  1.00  0.00    -0.259 OA
HETATM    3  C8  UNK     1      18.460   1.642  32.835  1.00  0.00     0.108 A 
HETATM    4  C9  UNK     1      19.063   0.462  32.645  1.00  0.00     0.037 A 
HETATM    5  C10 UNK     1      19.410   0.025  31.301  1.00  0.00    -0.001 A 
HETATM    6  C11 UNK     1      18.128   2.539  31.705  1.00  0.00     0.304 A 
HETATM    7  C12 UNK     1      19.107   0.854  30.225  1.00  0.00     0.089 A 
HETATM    8  C13 UNK     1      20.038  -1.198  31.055  1.00  0.00     0.014 A 
HETATM    9  C14 UNK     1      19.415   0.494  28.914  1.00  0.00     0.038 A 
HETATM   10  C15 UNK     1      20.354  -1.572  29.745  1.00  0.00     0.001 A 
HETATM   11  C16 UNK     1      20.042  -0.727  28.677  1.00  0.00     0.003 A 
ENDROOT
BRANCH   3  12
HETATM   12  C7  UNK     1      18.148   1.997  34.236  1.00  0.00     0.259 C 
HETATM   13  O1  UNK     1      18.563   3.078  34.658  1.00  0.00    -0.267 OA
HETATM   14  N1  UNK     1      17.394   1.082  34.982  1.00  0.00    -0.348 N 
HETATM   15  C5  UNK     1      16.917  -0.198  34.442  1.00  0.00     0.126 C 
HETATM   16  C6  UNK     1      17.064   1.428  36.367  1.00  0.00     0.126 C 
HETATM   17  C3  UNK     1      16.465  -1.257  35.446  1.00  0.00     0.020 C 
HETATM   18  C1  UNK     1      17.543  -1.635  36.459  1.00  0.00     0.002 C 
HETATM   19  C2  UNK     1      17.587  -0.708  37.670  1.00  0.00     0.002 C 
HETATM   20  C4  UNK     1      17.987   0.732  37.364  1.00  0.00     0.020 C 
ENDBRANCH   3  12
TORSDOF 1
ENDMDL
MODEL 2
REMARK VINA RESULT:      -8.3      4.602      6.929
REMARK  1 active torsions:
REMARK  status: ('A' for Active; 'I' for Inactive)
REMARK       I    between atoms: C7_11  and  N1_4 
REMARK    1  A    between atoms: C7_11  and  C8_12 
ROOT
HETATM    1  O2  UNK     1      19.441  -1.342  34.583  1.00  0.00    -0.274 OA
HETATM    2  O3  UNK     1      20.679  -3.225  34.204  1.00  0.00    -0.259 OA
HETATM    3  C8  UNK     1      19.833  -2.933  36.398  1.00  0.00     0.108 A 
HETATM    4  C9  UNK     1      19.123  -2.181  37.247  1.00  0.00     0.037 A 
HETATM    5  C10 UNK     1      18.521  -0.936  36.796  1.00  0.00    -0.001 A 
HETATM    6  C11 UNK     1      20.031  -2.537  34.985  1.00  0.00     0.304 A 
HETATM    7  C12 UNK     1      18.694  -0.546  35.471  1.00  0.00     0.089 A 
HETATM    8  C13 UNK     1      17.773  -0.120  37.647  1.00  0.00     0.014 A 
HETATM    9  C14 UNK     1      18.142   0.634  34.976  1.00  0.00     0.038 A 
HETATM   10  C15 UNK     1      17.212   1.068  37.164  1.00  0.00     0.001 A 
HETATM   11  C16 UNK     1      17.397   1.442  35.832  1.00  0.00     0.003 A 
ENDROOT
BRANCH   3  12
HETATM   12  C7  UNK     1      20.405  -4.179  36.951  1.00  0.00     0.259 C 
HETATM   13  O1  UNK     1      21.592  -4.166  37.282  1.00  0.00    -0.267 OA
HETATM   14  N1  UNK     1      19.554  -5.286  37.067  1.00  0.00    -0.348 N 
HETATM   15  C5  UNK     1      18.143  -5.261  36.659  1.00  0.00     0.126 C 
HETATM   16  C6  UNK     1      20.103  -6.523  37.627  1.00  0.00     0.126 C 
HETATM   17  C3  UNK     1      17.447  -6.607  36.464  1.00  0.00     0.020 C 
HETATM   18  C1  UNK     1      18.136  -7.507  35.440  1.00  0.00     0.002 C 
HETATM   19  C2  UNK     1      19.271  -8.338  36.032  1.00  0.00     0.002 C 
HETATM   20  C4  UNK     1      20.462  -7.531  36.539  1.00  0.00     0.020 C 
ENDBRANCH   3  12
TORSDOF 1
ENDMDL
MODEL 3
REMARK VINA RESULT:      -8.2     14.451     17.678
REMARK  1 active torsions:
REMARK  status: ('A' for Active; 'I' for Inactive)
REMARK       I    between atoms: C7_11  and  N1_4 
REMARK    1  A    between atoms: C7_11  and  C8_12 
ROOT
HETATM    1  O2  UNK     1      19.284   1.071  15.912  1.00  0.00    -0.274 OA
HETATM    2  O3  UNK     1      19.422  -0.142  13.981  1.00  0.00    -0.259 OA
HETATM    3  C8  UNK     1      18.919  -1.346  15.958  1.00  0.00     0.108 A 
HETATM    4  C9  UNK     1      18.704  -1.317  17.279  1.00  0.00     0.037 A 
HETATM    5  C10 UNK     1      18.772  -0.057  18.003  1.00  0.00    -0.001 A 
HETATM    6  C11 UNK     1      19.228  -0.118  15.191  1.00  0.00     0.304 A 
HETATM    7  C12 UNK     1      19.060   1.109  17.302  1.00  0.00     0.089 A 
HETATM    8  C13 UNK     1      18.556   0.021  19.381  1.00  0.00     0.014 A 
HETATM    9  C14 UNK     1      19.138   2.347  17.937  1.00  0.00     0.038 A 
HETATM   10  C15 UNK     1      18.630   1.256  20.033  1.00  0.00     0.001 A 
HETATM   11  C16 UNK     1      18.921   2.416  19.311  1.00  0.00     0.003 A 
ENDROOT
BRANCH   3  12
HETATM   12  C7  UNK     1      18.828  -2.673  15.311  1.00  0.00     0.259 C 
HETATM   13  O1  UNK     1      17.706  -3.093  15.023  1.00  0.00    -0.267 OA
HETATM   14  N1  UNK     1      20.026  -3.355  15.064  1.00  0.00    -0.348 N 
HETATM   15  C5  UNK     1      21.346  -2.820  15.423  1.00  0.00     0.126 C 
HETATM   16  C6  UNK     1      19.952  -4.664  14.410  1.00  0.00     0.126 C 
HETATM   17  C3  UNK     1      22.513  -3.805  15.468  1.00  0.00     0.020 C 
HETATM   18  C1  UNK     1      22.287  -4.972  16.427  1.00  0.00     0.002 C 
HETATM   19  C2  UNK     1      21.517  -6.130  15.800  1.00  0.00     0.002 C 
HETATM   20  C4  UNK     1      20.077  -5.809  15.411  1.00  0.00     0.020 C 
ENDBRANCH   3  12
TORSDOF 1
ENDMDL
MODEL 4
REMARK VINA RESULT:      -8.1     24.627     26.376
REMARK  1 active torsions:
REMARK  status: ('A' for Active; 'I' for Inactive)
REMARK       I    between atoms: C7_11  and  N1_4 
REMARK    1  A    between atoms: C7_11  and  C8_12 
ROOT
HETATM    1  O2  UNK     1      11.145   7.584   9.615  1.00  0.00    -0.274 OA
HETATM    2  O3  UNK     1      12.668   8.279  11.170  1.00  0.00    -0.259 OA
HETATM    3  C8  UNK     1      13.531   7.563   9.083  1.00  0.00     0.108 A 
HETATM    4  C9  UNK     1      13.282   7.088   7.857  1.00  0.00     0.037 A 
HETATM    5  C10 UNK     1      11.914   6.829   7.436  1.00  0.00    -0.001 A 
HETATM    6  C11 UNK     1      12.443   7.842  10.047  1.00  0.00     0.304 A 
HETATM    7  C12 UNK     1      10.876   7.084   8.327  1.00  0.00     0.089 A 
HETATM    8  C13 UNK     1      11.607   6.333   6.167  1.00  0.00     0.014 A 
HETATM    9  C14 UNK     1       9.544   6.858   7.985  1.00  0.00     0.038 A 
HETATM   10  C15 UNK     1      10.275   6.101   5.809  1.00  0.00     0.001 A 
HETATM   11  C16 UNK     1       9.246   6.364   6.717  1.00  0.00     0.003 A 
ENDROOT
BRANCH   3  12
HETATM   12  C7  UNK     1      14.953   7.794   9.417  1.00  0.00     0.259 C 
HETATM   13  O1  UNK     1      15.560   6.889   9.993  1.00  0.00    -0.267 OA
HETATM   14  N1  UNK     1      15.513   9.024   9.047  1.00  0.00    -0.348 N 
HETATM   15  C5  UNK     1      14.755  10.078   8.361  1.00  0.00     0.126 C 
HETATM   16  C6  UNK     1      16.924   9.261   9.358  1.00  0.00     0.126 C 
HETATM   17  C3  UNK     1      15.348  11.487   8.372  1.00  0.00     0.020 C 
HETATM   18  C1  UNK     1      15.596  12.032   9.777  1.00  0.00     0.002 C 
HETATM   19  C2  UNK     1      16.943  11.612  10.359  1.00  0.00     0.002 C 
HETATM   20  C4  UNK     1      17.097  10.116  10.611  1.00  0.00     0.020 C 
ENDBRANCH   3  12
TORSDOF 1
ENDMDL
MODEL 5
REMARK VINA RESULT:      -8.1     25.016     26.994
REMARK  1 active torsions:
REMARK  status: ('A' for Active; 'I' for Inactive)
REMARK       I    between atoms: C7_11  and  N1_4 
REMARK    1  A    between atoms: C7_11  and  C8_12 
ROOT
HETATM    1  O2  UNK     1       7.742   5.143  11.155  1.00  0.00    -0.274 OA
HETATM    2  O3  UNK     1       9.374   4.204   9.859  1.00  0.00    -0.259 OA
HETATM    3  C8  UNK     1       8.300   6.127   8.987  1.00  0.00     0.108 A 
HETATM    4  C9  UNK     1       7.380   7.084   9.154  1.00  0.00     0.037 A 
HETATM    5  C10 UNK     1       6.571   7.120  10.363  1.00  0.00    -0.001 A 
HETATM    6  C11 UNK     1       8.531   5.081  10.009  1.00  0.00     0.304 A 
HETATM    7  C12 UNK     1       6.773   6.147  11.337  1.00  0.00     0.089 A 
HETATM    8  C13 UNK     1       5.600   8.100  10.580  1.00  0.00     0.014 A 
HETATM    9  C14 UNK     1       6.033   6.126  12.517  1.00  0.00     0.038 A 
HETATM   10  C15 UNK     1       4.849   8.092  11.760  1.00  0.00     0.001 A 
HETATM   11  C16 UNK     1       5.066   7.107  12.726  1.00  0.00     0.003 A 
ENDROOT
BRANCH   3  12
HETATM   12  C7  UNK     1       9.070   6.175   7.726  1.00  0.00     0.259 C 
HETATM   13  O1  UNK     1       8.667   5.492   6.782  1.00  0.00    -0.267 OA
HETATM   14  N1  UNK     1      10.201   7.001   7.690  1.00  0.00    -0.348 N 
HETATM   15  C5  UNK     1      10.649   7.801   8.838  1.00  0.00     0.126 C 
HETATM   16  C6  UNK     1      10.965   7.071   6.443  1.00  0.00     0.126 C 
HETATM   17  C3  UNK     1      12.081   8.332   8.804  1.00  0.00     0.020 C 
HETATM   18  C1  UNK     1      13.134   7.236   8.653  1.00  0.00     0.002 C 
HETATM   19  C2  UNK     1      13.395   6.843   7.202  1.00  0.00     0.002 C 
HETATM   20  C4  UNK     1      12.213   6.193   6.489  1.00  0.00     0.020 C 
ENDBRANCH   3  12
TORSDOF 1
ENDMDL
MODEL 6
REMARK VINA RESULT:      -8.1      4.466      6.097
REMARK  1 active torsions:
REMARK  status: ('A' for Active; 'I' for Inactive)
REMARK       I    between atoms: C7_11  and  N1_4 
REMARK    1  A    between atoms: C7_11  and  C8_12 
ROOT
HETATM    1  O2  UNK     1      19.000   4.090  30.291  1.00  0.00    -0.274 OA
HETATM    2  O3  UNK     1      19.009   6.338  29.880  1.00  0.00    -0.259 OA
HETATM    3  C8  UNK     1      18.415   5.661  32.071  1.00  0.00     0.108 A 
HETATM    4  C9  UNK     1      18.219   4.655  32.932  1.00  0.00     0.037 A 
HETATM    5  C10 UNK     1      18.407   3.277  32.504  1.00  0.00    -0.001 A 
HETATM    6  C11 UNK     1      18.827   5.418  30.670  1.00  0.00     0.304 A 
HETATM    7  C12 UNK     1      18.795   3.027  31.191  1.00  0.00     0.089 A 
HETATM    8  C13 UNK     1      18.213   2.197  33.367  1.00  0.00     0.014 A 
HETATM    9  C14 UNK     1      18.993   1.731  30.719  1.00  0.00     0.038 A 
HETATM   10  C15 UNK     1      18.409   0.890  32.908  1.00  0.00     0.001 A 
HETATM   11  C16 UNK     1      18.798   0.659  31.586  1.00  0.00     0.003 A 
ENDROOT
BRANCH   3  12
HETATM   12  C7  UNK     1      18.199   7.024  32.600  1.00  0.00     0.259 C 
HETATM   13  O1  UNK     1      19.166   7.604  33.099  1.00  0.00    -0.267 OA
HETATM   14  N1  UNK     1      16.912   7.565  32.489  1.00  0.00    -0.348 N 
HETATM   15  C5  UNK     1      15.785   6.841  31.887  1.00  0.00     0.126 C 
HETATM   16  C6  UNK     1      16.687   8.921  32.996  1.00  0.00     0.126 C 
HETATM   17  C3  UNK     1      14.379   7.363  32.182  1.00  0.00     0.020 C 
HETATM   18  C1  UNK     1      14.054   7.429  33.672  1.00  0.00     0.002 C 
HETATM   19  C2  UNK     1      14.521   8.720  34.338  1.00  0.00     0.002 C 
HETATM   20  C4  UNK     1      16.034   8.913  34.375  1.00  0.00     0.020 C 
ENDBRANCH   3  12
TORSDOF 1
ENDMDL
MODEL 7
REMARK VINA RESULT:      -8.1     10.757     12.475
REMARK  1 active torsions:
REMARK  status: ('A' for Active; 'I' for Inactive)
REMARK       I    between atoms: C7_11  and  N1_4 
REMARK    1  A    between atoms: C7_11  and  C8_12 
ROOT
HETATM    1  O2  UNK     1      25.762  -5.989  38.619  1.00  0.00    -0.274 OA
HETATM    2  O3  UNK     1      23.575  -5.353  38.797  1.00  0.00    -0.259 OA
HETATM    3  C8  UNK     1      24.031  -7.665  39.030  1.00  0.00     0.108 A 
HETATM    4  C9  UNK     1      24.944  -8.644  39.046  1.00  0.00     0.037 A 
HETATM    5  C10 UNK     1      26.350  -8.337  38.842  1.00  0.00    -0.001 A 
HETATM    6  C11 UNK     1      24.408  -6.251  38.810  1.00  0.00     0.304 A 
HETATM    7  C12 UNK     1      26.727  -7.013  38.634  1.00  0.00     0.089 A 
HETATM    8  C13 UNK     1      27.337  -9.326  38.850  1.00  0.00     0.014 A 
HETATM    9  C14 UNK     1      28.058  -6.653  38.434  1.00  0.00     0.038 A 
HETATM   10  C15 UNK     1      28.677  -8.979  38.651  1.00  0.00     0.001 A 
HETATM   11  C16 UNK     1      29.036  -7.644  38.444  1.00  0.00     0.003 A 
ENDROOT
BRANCH   3  12
HETATM   12  C7  UNK     1      22.627  -8.078  39.247  1.00  0.00     0.259 C 
HETATM   13  O1  UNK     1      22.202  -8.074  40.404  1.00  0.00    -0.267 OA
HETATM   14  N1  UNK     1      21.877  -8.436  38.120  1.00  0.00    -0.348 N 
HETATM   15  C5  UNK     1      22.422  -8.428  36.755  1.00  0.00     0.126 C 
HETATM   16  C6  UNK     1      20.481  -8.833  38.318  1.00  0.00     0.126 C 
HETATM   17  C3  UNK     1      21.650  -9.204  35.689  1.00  0.00     0.020 C 
HETATM   18  C1  UNK     1      21.460 -10.681  36.028  1.00  0.00     0.002 C 
HETATM   19  C2  UNK     1      20.240 -10.949  36.905  1.00  0.00     0.002 C 
HETATM   20  C4  UNK     1      20.312 -10.349  38.306  1.00  0.00     0.020 C 
ENDBRANCH   3  12
TORSDOF 1
ENDMDL
MODEL 8
REMARK VINA RESULT:      -8.1     23.728     26.050
REMARK  1 active torsions:
REMARK  status: ('A' for Active; 'I' for Inactive)
REMARK       I    between atoms: C7_11  and  N1_4 
REMARK    1  A    between atoms: C7_11  and  C8_12 
ROOT
HETATM    1  O2  UNK     1       9.887   8.141   9.343  1.00  0.00    -0.274 OA
HETATM    2  O3  UNK     1      10.884   9.378  10.985  1.00  0.00    -0.259 OA
HETATM    3  C8  UNK     1      12.274   8.652   9.210  1.00  0.00     0.108 A 
HETATM    4  C9  UNK     1      12.381   7.984   8.055  1.00  0.00     0.037 A 
HETATM    5  C10 UNK     1      11.214   7.342   7.470  1.00  0.00    -0.001 A 
HETATM    6  C11 UNK     1      10.985   8.765   9.929  1.00  0.00     0.304 A 
HETATM    7  C12 UNK     1       9.992   7.436   8.129  1.00  0.00     0.089 A 
HETATM    8  C13 UNK     1      11.279   6.634   6.268  1.00  0.00     0.014 A 
HETATM    9  C14 UNK     1       8.837   6.844   7.621  1.00  0.00     0.038 A 
HETATM   10  C15 UNK     1      10.128   6.035   5.746  1.00  0.00     0.001 A 
HETATM   11  C16 UNK     1       8.910   6.140   6.422  1.00  0.00     0.003 A 
ENDROOT
BRANCH   3  12
HETATM   12  C7  UNK     1      13.515   9.271   9.723  1.00  0.00     0.259 C 
HETATM   13  O1  UNK     1      13.627  10.495   9.627  1.00  0.00    -0.267 OA
HETATM   14  N1  UNK     1      14.473   8.422  10.292  1.00  0.00    -0.348 N 
HETATM   15  C5  UNK     1      14.303   6.967  10.388  1.00  0.00     0.126 C 
HETATM   16  C6  UNK     1      15.701   9.023  10.818  1.00  0.00     0.126 C 
HETATM   17  C3  UNK     1      15.554   6.131  10.653  1.00  0.00     0.020 C 
HETATM   18  C1  UNK     1      16.651   6.330   9.609  1.00  0.00     0.002 C 
HETATM   19  C2  UNK     1      17.557   7.523   9.903  1.00  0.00     0.002 C 
HETATM   20  C4  UNK     1      16.868   8.882   9.844  1.00  0.00     0.020 C 
ENDBRANCH   3  12
TORSDOF 1
ENDMDL
MODEL 9
REMARK VINA RESULT:      -7.9      7.013      8.830
REMARK  1 active torsions:
REMARK  status: ('A' for Active; 'I' for Inactive)
REMARK       I    between atoms: C7_11  and  N1_4 
REMARK    1  A    between atoms: C7_11  and  C8_12 
ROOT
HETATM    1  O2  UNK     1      17.333   7.018  30.942  1.00  0.00    -0.274 OA
HETATM    2  O3  UNK     1      15.199   7.804  31.170  1.00  0.00    -0.259 OA
HETATM    3  C8  UNK     1      16.535   7.776  33.125  1.00  0.00     0.108 A 
HETATM    4  C9  UNK     1      17.718   7.494  33.686  1.00  0.00     0.037 A 
HETATM    5  C10 UNK     1      18.797   6.943  32.881  1.00  0.00    -0.001 A 
HETATM    6  C11 UNK     1      16.280   7.545  31.686  1.00  0.00     0.304 A 
HETATM    7  C12 UNK     1      18.579   6.719  31.525  1.00  0.00     0.089 A 
HETATM    8  C13 UNK     1      20.046   6.633  33.423  1.00  0.00     0.014 A 
HETATM    9  C14 UNK     1      19.572   6.195  30.699  1.00  0.00     0.038 A 
HETATM   10  C15 UNK     1      21.053   6.107  32.607  1.00  0.00     0.001 A 
HETATM   11  C16 UNK     1      20.815   5.889  31.248  1.00  0.00     0.003 A 
ENDROOT
BRANCH   3  12
HETATM   12  C7  UNK     1      15.502   8.332  34.026  1.00  0.00     0.259 C 
HETATM   13  O1  UNK     1      14.546   7.609  34.314  1.00  0.00    -0.267 OA
HETATM   14  N1  UNK     1      15.688   9.638  34.494  1.00  0.00    -0.348 N 
HETATM   15  C5  UNK     1      16.843  10.468  34.126  1.00  0.00     0.126 C 
HETATM   16  C6  UNK     1      14.680  10.197  35.399  1.00  0.00     0.126 C 
HETATM   17  C3  UNK     1      16.730  11.972  34.371  1.00  0.00     0.020 C 
HETATM   18  C1  UNK     1      15.541  12.617  33.662  1.00  0.00     0.002 C 
HETATM   19  C2  UNK     1      14.242  12.533  34.459  1.00  0.00     0.002 C 
HETATM   20  C4  UNK     1      13.708  11.120  34.669  1.00  0.00     0.020 C 
ENDBRANCH   3  12
TORSDOF 1
ENDMDL
MODEL 10
REMARK VINA RESULT:      -7.9     24.296     26.370
REMARK  1 active torsions:
REMARK  status: ('A' for Active; 'I' for Inactive)
REMARK       I    between atoms: C7_11  and  N1_4 
REMARK    1  A    between atoms: C7_11  and  C8_12 
ROOT
HETATM    1  O2  UNK     1      14.293   5.042   8.987  1.00  0.00    -0.274 OA
HETATM    2  O3  UNK     1      12.593   3.909   7.962  1.00  0.00    -0.259 OA
HETATM    3  C8  UNK     1      12.508   6.274   7.856  1.00  0.00     0.108 A 
HETATM    4  C9  UNK     1      13.074   7.443   8.177  1.00  0.00     0.037 A 
HETATM    5  C10 UNK     1      14.312   7.472   8.942  1.00  0.00    -0.001 A 
HETATM    6  C11 UNK     1      13.109   4.981   8.257  1.00  0.00     0.304 A 
HETATM    7  C12 UNK     1      14.893   6.268   9.329  1.00  0.00     0.089 A 
HETATM    8  C13 UNK     1      14.937   8.669   9.300  1.00  0.00     0.014 A 
HETATM    9  C14 UNK     1      16.078   6.228  10.061  1.00  0.00     0.038 A 
HETATM   10  C15 UNK     1      16.127   8.644  10.035  1.00  0.00     0.001 A 
HETATM   11  C16 UNK     1      16.695   7.426  10.414  1.00  0.00     0.003 A 
ENDROOT
BRANCH   3  12
HETATM   12  C7  UNK     1      11.253   6.348   7.078  1.00  0.00     0.259 C 
HETATM   13  O1  UNK     1      11.328   6.728   5.908  1.00  0.00    -0.267 OA
HETATM   14  N1  UNK     1      10.069   5.972   7.723  1.00  0.00    -0.348 N 
HETATM   15  C5  UNK     1      10.022   5.523   9.121  1.00  0.00     0.126 C 
HETATM   16  C6  UNK     1       8.820   6.026   6.960  1.00  0.00     0.126 C 
HETATM   17  C3  UNK     1       8.660   5.527   9.813  1.00  0.00     0.020 C 
HETATM   18  C1  UNK     1       7.982   6.896   9.816  1.00  0.00     0.002 C 
HETATM   19  C2  UNK     1       7.182   7.179   8.547  1.00  0.00     0.002 C 
HETATM   20  C4  UNK     1       8.014   7.283   7.273  1.00  0.00     0.020 C 
ENDBRANCH   3  12
TORSDOF 1
ENDMDL
