MODEL 1
REMARK VINA RESULT:      -8.5      0.000      0.000
REMARK  3 active torsions:
REMARK  status: ('A' for Active; 'I' for Inactive)
REMARK    1  A    between atoms: C16_21  and  O2_2 
REMARK    2  A    between atoms: C17_22  and  O2_2 
REMARK    3  A    between atoms: C14_19  and  C17_22 
ROOT
HETATM    1  O1  UNK     1      26.257  -5.718  38.735  1.00  0.00    -0.273 OA
HETATM    2  O3  UNK     1      24.027  -5.280  38.980  1.00  0.00    -0.259 OA
HETATM    3  N1  UNK     1      31.019  -6.615  38.274  1.00  0.00    -0.380 N 
HETATM    4  C1  UNK     1      29.698  -7.067  38.361  1.00  0.00     0.045 A 
HETATM    5  C2  UNK     1      28.623  -6.156  38.474  1.00  0.00     0.004 A 
HETATM    6  C3  UNK     1      31.312  -5.214  38.562  1.00  0.00     0.123 C 
HETATM    7  C4  UNK     1      32.112  -7.578  38.370  1.00  0.00     0.123 C 
HETATM    8  C5  UNK     1      29.402  -8.450  38.300  1.00  0.00    -0.030 A 
HETATM    9  C6  UNK     1      28.881  -4.668  38.528  1.00  0.00     0.045 C 
HETATM   10  C7  UNK     1      30.247  -4.316  37.952  1.00  0.00     0.025 C 
HETATM   11  C8  UNK     1      31.774  -8.846  37.600  1.00  0.00     0.024 C 
HETATM   12  C9  UNK     1      30.506  -9.472  38.168  1.00  0.00     0.042 C 
HETATM   13  C10 UNK     1      27.311  -6.648  38.584  1.00  0.00     0.098 A 
HETATM   14  C11 UNK     1      28.077  -8.908  38.409  1.00  0.00     0.023 A 
HETATM   15  C12 UNK     1      27.026  -8.006  38.554  1.00  0.00     0.000 A 
HETATM   16  C13 UNK     1      25.645  -8.449  38.673  1.00  0.00     0.038 A 
HETATM   17  C14 UNK     1      24.656  -7.558  38.811  1.00  0.00     0.115 A 
HETATM   18  C15 UNK     1      24.925  -6.105  38.851  1.00  0.00     0.304 A 
ENDROOT
BRANCH  17  19
HETATM   19  C17 UNK     1      23.298  -8.103  38.922  1.00  0.00     0.300 C 
HETATM   20  O4  UNK     1      22.648  -8.088  39.954  1.00  0.00    -0.259 OA
BRANCH  19  21
HETATM   21  O2  UNK     1      22.932  -8.598  37.714  1.00  0.00    -0.307 OA
BRANCH  21  22
HETATM   22  C16 UNK     1      21.605  -8.261  37.293  1.00  0.00     0.060 C 
HETATM   23  C18 UNK     1      21.396  -6.762  37.502  1.00  0.00     0.046 C 
HETATM   24  C19 UNK     1      21.489  -8.618  35.812  1.00  0.00     0.046 C 
HETATM   25  C20 UNK     1      20.611  -9.072  38.121  1.00  0.00     0.046 C 
ENDBRANCH  21  22
ENDBRANCH  19  21
ENDBRANCH  17  19
TORSDOF 3
ENDMDL
MODEL 2
REMARK VINA RESULT:      -8.4     13.235     16.202
REMARK  3 active torsions:
REMARK  status: ('A' for Active; 'I' for Inactive)
REMARK    1  A    between atoms: C16_21  and  O2_2 
REMARK    2  A    between atoms: C17_22  and  O2_2 
REMARK    3  A    between atoms: C14_19  and  C17_22 
ROOT
HETATM    1  O1  UNK     1      18.789   4.297  30.324  1.00  0.00    -0.273 OA
HETATM    2  O3  UNK     1      18.640   6.496  29.717  1.00  0.00    -0.259 OA
HETATM    3  N1  UNK     1      19.172  -0.385  31.599  1.00  0.00    -0.380 N 
HETATM    4  C1  UNK     1      18.850   0.940  31.913  1.00  0.00     0.045 A 
HETATM    5  C2  UNK     1      18.951   1.963  30.943  1.00  0.00     0.004 A 
HETATM    6  C3  UNK     1      19.862  -0.671  30.345  1.00  0.00     0.123 C 
HETATM    7  C4  UNK     1      19.259  -1.372  32.671  1.00  0.00     0.123 C 
HETATM    8  C5  UNK     1      18.378   1.282  33.203  1.00  0.00    -0.030 A 
HETATM    9  C6  UNK     1      19.434   1.650  29.546  1.00  0.00     0.045 C 
HETATM   10  C7  UNK     1      19.281   0.170  29.219  1.00  0.00     0.025 C 
HETATM   11  C8  UNK     1      18.139  -1.165  33.679  1.00  0.00     0.024 C 
HETATM   12  C9  UNK     1      18.238   0.232  34.279  1.00  0.00     0.042 C 
HETATM   13  C10 UNK     1      18.643   3.286  31.302  1.00  0.00     0.098 A 
HETATM   14  C11 UNK     1      18.074   2.617  33.528  1.00  0.00     0.023 A 
HETATM   15  C12 UNK     1      18.208   3.625  32.576  1.00  0.00     0.000 A 
HETATM   16  C13 UNK     1      17.905   5.015  32.882  1.00  0.00     0.038 A 
HETATM   17  C14 UNK     1      18.044   5.961  31.946  1.00  0.00     0.115 A 
HETATM   18  C15 UNK     1      18.507   5.636  30.581  1.00  0.00     0.304 A 
ENDROOT
BRANCH  17  19
HETATM   19  C17 UNK     1      17.712   7.332  32.352  1.00  0.00     0.300 C 
HETATM   20  O4  UNK     1      18.414   8.005  33.087  1.00  0.00    -0.259 OA
BRANCH  19  21
HETATM   21  O2  UNK     1      16.534   7.679  31.777  1.00  0.00    -0.307 OA
BRANCH  21  22
HETATM   22  C16 UNK     1      15.456   7.915  32.688  1.00  0.00     0.060 C 
HETATM   23  C18 UNK     1      15.188   9.419  32.745  1.00  0.00     0.046 C 
HETATM   24  C19 UNK     1      14.232   7.171  32.155  1.00  0.00     0.046 C 
HETATM   25  C20 UNK     1      15.854   7.380  34.063  1.00  0.00     0.046 C 
ENDBRANCH  21  22
ENDBRANCH  19  21
ENDBRANCH  17  19
TORSDOF 3
ENDMDL
MODEL 3
REMARK VINA RESULT:      -7.9      8.224     11.371
REMARK  3 active torsions:
REMARK  status: ('A' for Active; 'I' for Inactive)
REMARK    1  A    between atoms: C16_21  and  O2_2 
REMARK    2  A    between atoms: C17_22  and  O2_2 
REMARK    3  A    between atoms: C14_19  and  C17_22 
ROOT
HETATM    1  O1  UNK     1      18.970  -0.562  34.920  1.00  0.00    -0.273 OA
HETATM    2  O3  UNK     1      18.887  -1.256  37.095  1.00  0.00    -0.259 OA
HETATM    3  N1  UNK     1      19.184   0.972  30.305  1.00  0.00    -0.380 N 
HETATM    4  C1  UNK     1      19.422  -0.009  31.274  1.00  0.00     0.045 A 
HETATM    5  C2  UNK     1      19.045   0.193  32.622  1.00  0.00     0.004 A 
HETATM    6  C3  UNK     1      18.785   2.310  30.730  1.00  0.00     0.123 C 
HETATM    7  C4  UNK     1      19.770   0.821  28.976  1.00  0.00     0.123 C 
HETATM    8  C5  UNK     1      20.012  -1.246  30.920  1.00  0.00    -0.030 A 
HETATM    9  C6  UNK     1      18.396   1.489  33.050  1.00  0.00     0.045 C 
HETATM   10  C7  UNK     1      17.779   2.224  31.867  1.00  0.00     0.025 C 
HETATM   11  C8  UNK     1      19.682  -0.626  28.516  1.00  0.00     0.024 C 
HETATM   12  C9  UNK     1      20.427  -1.525  29.495  1.00  0.00     0.042 C 
HETATM   13  C10 UNK     1      19.322  -0.804  33.572  1.00  0.00     0.098 A 
HETATM   14  C11 UNK     1      20.272  -2.225  31.896  1.00  0.00     0.023 A 
HETATM   15  C12 UNK     1      19.928  -2.005  33.228  1.00  0.00     0.000 A 
HETATM   16  C13 UNK     1      20.187  -2.996  34.261  1.00  0.00     0.038 A 
HETATM   17  C14 UNK     1      19.845  -2.756  35.532  1.00  0.00     0.115 A 
HETATM   18  C15 UNK     1      19.201  -1.488  35.934  1.00  0.00     0.304 A 
ENDROOT
BRANCH  17  19
HETATM   19  C17 UNK     1      20.146  -3.818  36.500  1.00  0.00     0.300 C 
HETATM   20  O4  UNK     1      21.259  -4.016  36.957  1.00  0.00    -0.259 OA
BRANCH  19  21
HETATM   21  O2  UNK     1      19.003  -4.495  36.767  1.00  0.00    -0.307 OA
BRANCH  21  22
HETATM   22  C16 UNK     1      19.104  -5.921  36.682  1.00  0.00     0.060 C 
HETATM   23  C18 UNK     1      19.811  -6.433  37.937  1.00  0.00     0.046 C 
HETATM   24  C19 UNK     1      17.684  -6.478  36.602  1.00  0.00     0.046 C 
HETATM   25  C20 UNK     1      19.895  -6.280  35.426  1.00  0.00     0.046 C 
ENDBRANCH  21  22
ENDBRANCH  19  21
ENDBRANCH  17  19
TORSDOF 3
ENDMDL
MODEL 4
REMARK VINA RESULT:      -7.9      2.923      7.904
REMARK  3 active torsions:
REMARK  status: ('A' for Active; 'I' for Inactive)
REMARK    1  A    between atoms: C16_21  and  O2_2 
REMARK    2  A    between atoms: C17_22  and  O2_2 
REMARK    3  A    between atoms: C14_19  and  C17_22 
ROOT
HETATM    1  O1  UNK     1      25.350  -9.549  36.699  1.00  0.00    -0.273 OA
HETATM    2  O3  UNK     1      27.572  -9.954  36.349  1.00  0.00    -0.259 OA
HETATM    3  N1  UNK     1      20.607  -8.755  37.453  1.00  0.00    -0.380 N 
HETATM    4  C1  UNK     1      21.946  -8.534  37.790  1.00  0.00     0.045 A 
HETATM    5  C2  UNK     1      22.991  -9.133  37.049  1.00  0.00     0.004 A 
HETATM    6  C3  UNK     1      20.277  -9.810  36.499  1.00  0.00     0.123 C 
HETATM    7  C4  UNK     1      19.557  -8.297  38.358  1.00  0.00     0.123 C 
HETATM    8  C5  UNK     1      22.290  -7.675  38.861  1.00  0.00    -0.030 A 
HETATM    9  C6  UNK     1      22.681 -10.046  35.886  1.00  0.00     0.045 C 
HETATM   10  C7  UNK     1      21.274  -9.812  35.350  1.00  0.00     0.025 C 
HETATM   11  C8  UNK     1      19.901  -6.927  38.923  1.00  0.00     0.024 C 
HETATM   12  C9  UNK     1      21.219  -6.998  39.683  1.00  0.00     0.042 C 
HETATM   13  C10 UNK     1      24.324  -8.908  37.433  1.00  0.00     0.098 A 
HETATM   14  C11 UNK     1      23.635  -7.469  39.216  1.00  0.00     0.023 A 
HETATM   15  C12 UNK     1      24.658  -8.088  38.502  1.00  0.00     0.000 A 
HETATM   16  C13 UNK     1      26.059  -7.898  38.846  1.00  0.00     0.038 A 
HETATM   17  C14 UNK     1      27.020  -8.507  38.142  1.00  0.00     0.115 A 
HETATM   18  C15 UNK     1      26.700  -9.389  37.000  1.00  0.00     0.304 A 
ENDROOT
BRANCH  17  19
HETATM   19  C17 UNK     1      28.401  -8.251  38.566  1.00  0.00     0.300 C 
HETATM   20  O4  UNK     1      29.273  -9.103  38.570  1.00  0.00    -0.259 OA
BRANCH  19  21
HETATM   21  O2  UNK     1      28.506  -6.950  38.931  1.00  0.00    -0.307 OA
BRANCH  21  22
HETATM   22  C16 UNK     1      29.370  -6.154  38.113  1.00  0.00     0.060 C 
HETATM   23  C18 UNK     1      29.037  -6.426  36.646  1.00  0.00     0.046 C 
HETATM   24  C19 UNK     1      29.111  -4.688  38.460  1.00  0.00     0.046 C 
HETATM   25  C20 UNK     1      30.818  -6.531  38.422  1.00  0.00     0.046 C 
ENDBRANCH  21  22
ENDBRANCH  19  21
ENDBRANCH  17  19
TORSDOF 3
ENDMDL
MODEL 5
REMARK VINA RESULT:      -7.8     34.795     36.619
REMARK  3 active torsions:
REMARK  status: ('A' for Active; 'I' for Inactive)
REMARK    1  A    between atoms: C16_21  and  O2_2 
REMARK    2  A    between atoms: C17_22  and  O2_2 
REMARK    3  A    between atoms: C14_19  and  C17_22 
ROOT
HETATM    1  O1  UNK     1       7.306   7.286  10.929  1.00  0.00    -0.273 OA
HETATM    2  O3  UNK     1       8.522   8.475   9.403  1.00  0.00    -0.259 OA
HETATM    3  N1  UNK     1       4.663   4.797  14.171  1.00  0.00    -0.380 N 
HETATM    4  C1  UNK     1       5.398   4.847  12.982  1.00  0.00     0.045 A 
HETATM    5  C2  UNK     1       6.019   6.046  12.560  1.00  0.00     0.004 A 
HETATM    6  C3  UNK     1       4.318   6.043  14.848  1.00  0.00     0.123 C 
HETATM    7  C4  UNK     1       3.866   3.610  14.469  1.00  0.00     0.123 C 
HETATM    8  C5  UNK     1       5.569   3.688  12.188  1.00  0.00    -0.030 A 
HETATM    9  C6  UNK     1       5.882   7.309  13.378  1.00  0.00     0.045 C 
HETATM   10  C7  UNK     1       5.497   7.003  14.821  1.00  0.00     0.025 C 
HETATM   11  C8  UNK     1       4.622   2.349  14.080  1.00  0.00     0.024 C 
HETATM   12  C9  UNK     1       4.939   2.376  12.590  1.00  0.00     0.042 C 
HETATM   13  C10 UNK     1       6.727   6.065  11.347  1.00  0.00     0.098 A 
HETATM   14  C11 UNK     1       6.288   3.742  10.980  1.00  0.00     0.023 A 
HETATM   15  C12 UNK     1       6.869   4.934  10.555  1.00  0.00     0.000 A 
HETATM   16  C13 UNK     1       7.616   5.023   9.309  1.00  0.00     0.038 A 
HETATM   17  C14 UNK     1       8.162   6.183   8.927  1.00  0.00     0.115 A 
HETATM   18  C15 UNK     1       8.028   7.407   9.745  1.00  0.00     0.304 A 
ENDROOT
BRANCH  17  19
HETATM   19  C17 UNK     1       8.897   6.170   7.657  1.00  0.00     0.300 C 
HETATM   20  O4  UNK     1       8.546   6.794   6.670  1.00  0.00    -0.259 OA
BRANCH  19  21
HETATM   21  O2  UNK     1       9.983   5.371   7.794  1.00  0.00    -0.307 OA
BRANCH  21  22
HETATM   22  C16 UNK     1      11.234   5.974   7.447  1.00  0.00     0.060 C 
HETATM   23  C18 UNK     1      11.368   7.290   8.213  1.00  0.00     0.046 C 
HETATM   24  C19 UNK     1      12.341   5.003   7.850  1.00  0.00     0.046 C 
HETATM   25  C20 UNK     1      11.254   6.217   5.938  1.00  0.00     0.046 C 
ENDBRANCH  21  22
ENDBRANCH  19  21
ENDBRANCH  17  19
TORSDOF 3
ENDMDL
MODEL 6
REMARK VINA RESULT:      -7.8     12.026     15.238
REMARK  3 active torsions:
REMARK  status: ('A' for Active; 'I' for Inactive)
REMARK    1  A    between atoms: C16_21  and  O2_2 
REMARK    2  A    between atoms: C17_22  and  O2_2 
REMARK    3  A    between atoms: C14_19  and  C17_22 
ROOT
HETATM    1  O1  UNK     1      18.582   2.794  31.789  1.00  0.00    -0.273 OA
HETATM    2  O3  UNK     1      18.482   4.645  30.452  1.00  0.00    -0.259 OA
HETATM    3  N1  UNK     1      18.860  -1.159  34.616  1.00  0.00    -0.380 N 
HETATM    4  C1  UNK     1      18.613   0.209  34.457  1.00  0.00     0.045 A 
HETATM    5  C2  UNK     1      18.690   0.819  33.184  1.00  0.00     0.004 A 
HETATM    6  C3  UNK     1      19.453  -1.908  33.512  1.00  0.00     0.123 C 
HETATM    7  C4  UNK     1      18.978  -1.712  35.962  1.00  0.00     0.123 C 
HETATM    8  C5  UNK     1      18.242   1.010  35.564  1.00  0.00    -0.030 A 
HETATM    9  C6  UNK     1      19.067   0.008  31.967  1.00  0.00     0.045 C 
HETATM   10  C7  UNK     1      18.832  -1.481  32.191  1.00  0.00     0.025 C 
HETATM   11  C8  UNK     1      17.937  -1.096  36.884  1.00  0.00     0.024 C 
HETATM   12  C9  UNK     1      18.132   0.414  36.947  1.00  0.00     0.042 C 
HETATM   13  C10 UNK     1      18.460   2.200  33.067  1.00  0.00     0.098 A 
HETATM   14  C11 UNK     1      18.014   2.389  35.410  1.00  0.00     0.023 A 
HETATM   15  C12 UNK     1      18.125   2.990  34.159  1.00  0.00     0.000 A 
HETATM   16  C13 UNK     1      17.899   4.415  33.968  1.00  0.00     0.038 A 
HETATM   17  C14 UNK     1      18.014   4.963  32.753  1.00  0.00     0.115 A 
HETATM   18  C15 UNK     1      18.372   4.153  31.569  1.00  0.00     0.304 A 
ENDROOT
BRANCH  17  19
HETATM   19  C17 UNK     1      17.765   6.406  32.663  1.00  0.00     0.300 C 
HETATM   20  O4  UNK     1      18.651   7.236  32.547  1.00  0.00    -0.259 OA
BRANCH  19  21
HETATM   21  O2  UNK     1      16.428   6.620  32.731  1.00  0.00    -0.307 OA
BRANCH  21  22
HETATM   22  C16 UNK     1      16.018   7.645  33.642  1.00  0.00     0.060 C 
HETATM   23  C18 UNK     1      16.291   9.004  32.998  1.00  0.00     0.046 C 
HETATM   24  C19 UNK     1      14.523   7.462  33.898  1.00  0.00     0.046 C 
HETATM   25  C20 UNK     1      16.810   7.488  34.939  1.00  0.00     0.046 C 
ENDBRANCH  21  22
ENDBRANCH  19  21
ENDBRANCH  17  19
TORSDOF 3
ENDMDL
MODEL 7
REMARK VINA RESULT:      -7.7     34.440     36.577
REMARK  3 active torsions:
REMARK  status: ('A' for Active; 'I' for Inactive)
REMARK    1  A    between atoms: C16_21  and  O2_2 
REMARK    2  A    between atoms: C17_22  and  O2_2 
REMARK    3  A    between atoms: C14_19  and  C17_22 
ROOT
HETATM    1  O1  UNK     1      17.903   9.771   9.045  1.00  0.00    -0.273 OA
HETATM    2  O3  UNK     1      17.775   7.827  10.239  1.00  0.00    -0.259 OA
HETATM    3  N1  UNK     1      18.210  13.879   6.451  1.00  0.00    -0.380 N 
HETATM    4  C1  UNK     1      17.447  12.917   7.121  1.00  0.00     0.045 A 
HETATM    5  C2  UNK     1      18.064  11.830   7.782  1.00  0.00     0.004 A 
HETATM    6  C3  UNK     1      19.627  13.622   6.210  1.00  0.00     0.123 C 
HETATM    7  C4  UNK     1      17.538  14.863   5.607  1.00  0.00     0.123 C 
HETATM    8  C5  UNK     1      16.037  13.028   7.185  1.00  0.00    -0.030 A 
HETATM    9  C6  UNK     1      19.567  11.671   7.759  1.00  0.00     0.045 C 
HETATM   10  C7  UNK     1      20.264  12.987   7.436  1.00  0.00     0.025 C 
HETATM   11  C8  UNK     1      16.259  15.349   6.271  1.00  0.00     0.024 C 
HETATM   12  C9  UNK     1      15.321  14.172   6.508  1.00  0.00     0.042 C 
HETATM   13  C10 UNK     1      17.264  10.869   8.424  1.00  0.00     0.098 A 
HETATM   14  C11 UNK     1      15.267  12.051   7.840  1.00  0.00     0.023 A 
HETATM   15  C12 UNK     1      15.880  10.965   8.461  1.00  0.00     0.000 A 
HETATM   16  C13 UNK     1      15.110   9.935   9.143  1.00  0.00     0.038 A 
HETATM   17  C14 UNK     1      15.728   8.904   9.730  1.00  0.00     0.115 A 
HETATM   18  C15 UNK     1      17.200   8.769   9.707  1.00  0.00     0.304 A 
ENDROOT
BRANCH  17  19
HETATM   19  C17 UNK     1      14.865   7.919  10.393  1.00  0.00     0.300 C 
HETATM   20  O4  UNK     1      15.125   7.415  11.472  1.00  0.00    -0.259 OA
BRANCH  19  21
HETATM   21  O2  UNK     1      13.782   7.696   9.608  1.00  0.00    -0.307 OA
BRANCH  21  22
HETATM   22  C16 UNK     1      13.736   6.410   8.981  1.00  0.00     0.060 C 
HETATM   23  C18 UNK     1      12.678   5.563   9.686  1.00  0.00     0.046 C 
HETATM   24  C19 UNK     1      13.362   6.627   7.515  1.00  0.00     0.046 C 
HETATM   25  C20 UNK     1      15.116   5.764   9.094  1.00  0.00     0.046 C 
ENDBRANCH  21  22
ENDBRANCH  19  21
ENDBRANCH  17  19
TORSDOF 3
ENDMDL
MODEL 8
REMARK VINA RESULT:      -7.7      5.732      7.267
REMARK  3 active torsions:
REMARK  status: ('A' for Active; 'I' for Inactive)
REMARK    1  A    between atoms: C16_21  and  O2_2 
REMARK    2  A    between atoms: C17_22  and  O2_2 
REMARK    3  A    between atoms: C14_19  and  C17_22 
ROOT
HETATM    1  O1  UNK     1      29.207  -5.965  34.294  1.00  0.00    -0.273 OA
HETATM    2  O3  UNK     1      27.391  -6.051  32.909  1.00  0.00    -0.259 OA
HETATM    3  N1  UNK     1      33.046  -5.831  37.283  1.00  0.00    -0.380 N 
HETATM    4  C1  UNK     1      32.507  -5.975  36.001  1.00  0.00     0.045 A 
HETATM    5  C2  UNK     1      31.114  -5.865  35.780  1.00  0.00     0.004 A 
HETATM    6  C3  UNK     1      32.150  -5.825  38.436  1.00  0.00     0.123 C 
HETATM    7  C4  UNK     1      34.451  -6.157  37.508  1.00  0.00     0.123 C 
HETATM    8  C5  UNK     1      33.347  -6.199  34.884  1.00  0.00    -0.030 A 
HETATM    9  C6  UNK     1      30.173  -5.611  36.934  1.00  0.00     0.045 C 
HETATM   10  C7  UNK     1      30.902  -5.012  38.130  1.00  0.00     0.025 C 
HETATM   11  C8  UNK     1      35.305  -5.662  36.351  1.00  0.00     0.024 C 
HETATM   12  C9  UNK     1      34.843  -6.315  35.054  1.00  0.00     0.042 C 
HETATM   13  C10 UNK     1      30.606  -6.041  34.482  1.00  0.00     0.098 A 
HETATM   14  C11 UNK     1      32.805  -6.366  33.597  1.00  0.00     0.023 A 
HETATM   15  C12 UNK     1      31.430  -6.289  33.393  1.00  0.00     0.000 A 
HETATM   16  C13 UNK     1      30.839  -6.461  32.074  1.00  0.00     0.038 A 
HETATM   17  C14 UNK     1      29.513  -6.383  31.910  1.00  0.00     0.115 A 
HETATM   18  C15 UNK     1      28.607  -6.123  33.048  1.00  0.00     0.304 A 
ENDROOT
BRANCH  17  19
HETATM   19  C17 UNK     1      29.014  -6.569  30.542  1.00  0.00     0.300 C 
HETATM   20  O4  UNK     1      28.189  -5.838  30.021  1.00  0.00    -0.259 OA
BRANCH  19  21
HETATM   21  O2  UNK     1      29.621  -7.656  30.005  1.00  0.00    -0.307 OA
BRANCH  21  22
HETATM   22  C16 UNK     1      28.858  -8.866  30.049  1.00  0.00     0.060 C 
HETATM   23  C18 UNK     1      27.405  -8.513  30.369  1.00  0.00     0.046 C 
HETATM   24  C19 UNK     1      28.959  -9.524  28.674  1.00  0.00     0.046 C 
HETATM   25  C20 UNK     1      29.448  -9.775  31.125  1.00  0.00     0.046 C 
ENDBRANCH  21  22
ENDBRANCH  19  21
ENDBRANCH  17  19
TORSDOF 3
ENDMDL
MODEL 9
REMARK VINA RESULT:      -7.6      4.946      8.928
REMARK  3 active torsions:
REMARK  status: ('A' for Active; 'I' for Inactive)
REMARK    1  A    between atoms: C16_21  and  O2_2 
REMARK    2  A    between atoms: C17_22  and  O2_2 
REMARK    3  A    between atoms: C14_19  and  C17_22 
ROOT
HETATM    1  O1  UNK     1      32.849  -5.191  36.564  1.00  0.00    -0.273 OA
HETATM    2  O3  UNK     1      34.791  -4.576  35.528  1.00  0.00    -0.259 OA
HETATM    3  N1  UNK     1      28.678  -6.462  38.727  1.00  0.00    -0.380 N 
HETATM    4  C1  UNK     1      29.860  -6.809  38.065  1.00  0.00     0.045 A 
HETATM    5  C2  UNK     1      30.790  -5.819  37.669  1.00  0.00     0.004 A 
HETATM    6  C3  UNK     1      28.277  -5.059  38.781  1.00  0.00     0.123 C 
HETATM    7  C4  UNK     1      27.649  -7.478  38.932  1.00  0.00     0.123 C 
HETATM    8  C5  UNK     1      30.173  -8.165  37.806  1.00  0.00    -0.030 A 
HETATM    9  C6  UNK     1      30.513  -4.358  37.934  1.00  0.00     0.045 C 
HETATM   10  C7  UNK     1      29.485  -4.175  39.044  1.00  0.00     0.025 C 
HETATM   11  C8  UNK     1      28.282  -8.806  39.317  1.00  0.00     0.024 C 
HETATM   12  C9  UNK     1      29.225  -9.268  38.214  1.00  0.00     0.042 C 
HETATM   13  C10 UNK     1      31.954  -6.203  36.983  1.00  0.00     0.098 A 
HETATM   14  C11 UNK     1      31.350  -8.514  37.121  1.00  0.00     0.023 A 
HETATM   15  C12 UNK     1      32.245  -7.532  36.705  1.00  0.00     0.000 A 
HETATM   16  C13 UNK     1      33.469  -7.861  35.991  1.00  0.00     0.038 A 
HETATM   17  C14 UNK     1      34.310  -6.894  35.603  1.00  0.00     0.115 A 
HETATM   18  C15 UNK     1      34.030  -5.469  35.880  1.00  0.00     0.304 A 
ENDROOT
BRANCH  17  19
HETATM   19  C17 UNK     1      35.517  -7.327  34.891  1.00  0.00     0.300 C 
HETATM   20  O4  UNK     1      36.636  -6.916  35.150  1.00  0.00    -0.259 OA
BRANCH  19  21
HETATM   21  O2  UNK     1      35.160  -8.226  33.942  1.00  0.00    -0.307 OA
BRANCH  21  22
HETATM   22  C16 UNK     1      35.129  -7.721  32.602  1.00  0.00     0.060 C 
HETATM   23  C18 UNK     1      35.795  -6.345  32.587  1.00  0.00     0.046 C 
HETATM   24  C19 UNK     1      35.903  -8.702  31.723  1.00  0.00     0.046 C 
HETATM   25  C20 UNK     1      33.673  -7.627  32.151  1.00  0.00     0.046 C 
ENDBRANCH  21  22
ENDBRANCH  19  21
ENDBRANCH  17  19
TORSDOF 3
ENDMDL
MODEL 10
REMARK VINA RESULT:      -7.5     18.239     21.229
REMARK  3 active torsions:
REMARK  status: ('A' for Active; 'I' for Inactive)
REMARK    1  A    between atoms: C16_21  and  O2_2 
REMARK    2  A    between atoms: C17_22  and  O2_2 
REMARK    3  A    between atoms: C14_19  and  C17_22 
ROOT
HETATM    1  O1  UNK     1      14.445   8.700  32.664  1.00  0.00    -0.273 OA
HETATM    2  O3  UNK     1      14.349   6.582  31.811  1.00  0.00    -0.259 OA
HETATM    3  N1  UNK     1      14.602  13.195  34.525  1.00  0.00    -0.380 N 
HETATM    4  C1  UNK     1      15.238  11.998  34.181  1.00  0.00     0.045 A 
HETATM    5  C2  UNK     1      14.524  10.947  33.559  1.00  0.00     0.004 A 
HETATM    6  C3  UNK     1      13.144  13.266  34.480  1.00  0.00     0.123 C 
HETATM    7  C4  UNK     1      15.311  14.169  35.350  1.00  0.00     0.123 C 
HETATM    8  C5  UNK     1      16.623  11.821  34.414  1.00  0.00    -0.030 A 
HETATM    9  C6  UNK     1      13.047  11.089  33.272  1.00  0.00     0.045 C 
HETATM   10  C7  UNK     1      12.619  12.551  33.245  1.00  0.00     0.025 C 
HETATM   11  C8  UNK     1      16.768  14.269  34.923  1.00  0.00     0.024 C 
HETATM   12  C9  UNK     1      17.441  12.910  35.066  1.00  0.00     0.042 C 
HETATM   13  C10 UNK     1      15.190   9.749  33.250  1.00  0.00     0.098 A 
HETATM   14  C11 UNK     1      17.259  10.610  34.089  1.00  0.00     0.023 A 
HETATM   15  C12 UNK     1      16.542   9.568  33.507  1.00  0.00     0.000 A 
HETATM   16  C13 UNK     1      17.171   8.301  33.162  1.00  0.00     0.038 A 
HETATM   17  C14 UNK     1      16.456   7.318  32.604  1.00  0.00     0.115 A 
HETATM   18  C15 UNK     1      15.014   7.477  32.320  1.00  0.00     0.304 A 
ENDROOT
BRANCH  17  19
HETATM   19  C17 UNK     1      17.181   6.081  32.293  1.00  0.00     0.300 C 
HETATM   20  O4  UNK     1      17.129   5.078  32.985  1.00  0.00    -0.259 OA
BRANCH  19  21
HETATM   21  O2  UNK     1      17.879   6.266  31.145  1.00  0.00    -0.307 OA
BRANCH  21  22
HETATM   22  C16 UNK     1      19.141   5.594  31.083  1.00  0.00     0.060 C 
HETATM   23  C18 UNK     1      18.889   4.086  31.081  1.00  0.00     0.046 C 
HETATM   24  C19 UNK     1      19.829   6.026  29.789  1.00  0.00     0.046 C 
HETATM   25  C20 UNK     1      19.972   6.006  32.297  1.00  0.00     0.046 C 
ENDBRANCH  21  22
ENDBRANCH  19  21
ENDBRANCH  17  19
TORSDOF 3
ENDMDL
