MODEL 1
REMARK VINA RESULT:      -9.7      0.000      0.000
REMARK  4 active torsions:
REMARK  status: ('A' for Active; 'I' for Inactive)
REMARK    1  A    between atoms: C4_11  and  O1_1 
REMARK    2  A    between atoms: C6_13  and  O1_1 
REMARK    3  A    between atoms: C10_17  and  O4_4 
REMARK    4  A    between atoms: C11_18  and  O5_5 
ROOT
HETATM    1  O2  UNK     1      18.983   0.565  28.630  1.00  0.00    -0.272 OA
HETATM    2  O6  UNK     1      17.889   2.454  27.950  1.00  0.00    -0.257 OA
HETATM    3  C1  UNK     1      19.300   0.154  31.004  1.00  0.00     0.004 A 
HETATM    4  C2  UNK     1      19.473  -0.234  29.681  1.00  0.00     0.092 A 
HETATM    5  C3  UNK     1      18.605   1.401  31.283  1.00  0.00     0.058 A 
HETATM    6  C4  UNK     1      18.140   2.160  30.285  1.00  0.00     0.152 A 
HETATM    7  C5  UNK     1      19.799  -0.664  32.019  1.00  0.00     0.054 A 
HETATM    8  C9  UNK     1      20.130  -1.416  29.344  1.00  0.00     0.077 A 
HETATM    9  C10 UNK     1      20.460  -1.853  31.696  1.00  0.00     0.102 A 
HETATM   10  C11 UNK     1      20.625  -2.228  30.361  1.00  0.00     0.101 A 
HETATM   11  C13 UNK     1      18.315   1.763  28.870  1.00  0.00     0.322 A 
ENDROOT
BRANCH   6  12
HETATM   12  O1  UNK     1      17.475   3.348  30.511  1.00  0.00    -0.304 OA
BRANCH  12  13
HETATM   13  C6  UNK     1      18.163   4.324  31.173  1.00  0.00     0.079 A 
HETATM   14  C12 UNK     1      17.583   4.961  32.267  1.00  0.00     0.075 A 
HETATM   15  C8  UNK     1      18.305   5.953  32.926  1.00  0.00     0.092 A 
HETATM   16  C7  UNK     1      19.586   6.321  32.521  1.00  0.00    -0.002 A 
HETATM   17  O3  UNK     1      17.694   6.582  34.030  1.00  0.00    -0.275 OA
HETATM   18  C15 UNK     1      20.157   5.675  31.423  1.00  0.00     0.017 A 
HETATM   19  C16 UNK     1      20.280   7.365  33.255  1.00  0.00     0.020 A 
HETATM   20  C14 UNK     1      19.445   4.677  30.750  1.00  0.00     0.038 A 
HETATM   21  C17 UNK     1      19.696   7.955  34.299  1.00  0.00     0.083 A 
HETATM   22  C18 UNK     1      18.340   7.583  34.748  1.00  0.00     0.288 A 
HETATM   23  O7  UNK     1      17.817   8.135  35.710  1.00  0.00    -0.260 OA
ENDBRANCH  12  13
ENDBRANCH   6  12
BRANCH   9  24
HETATM   24  O4  UNK     1      20.943  -2.641  32.699  1.00  0.00    -0.353 OA
HETATM   25  C19 UNK     1      20.295  -2.545  33.966  1.00  0.00     0.210 C 
ENDBRANCH   9  24
BRANCH  10  26
HETATM   26  O5  UNK     1      21.270  -3.384  30.042  1.00  0.00    -0.358 OA
HETATM   27  H9  UNK     1      21.526  -3.356  29.104  1.00  0.00     0.217 HD
ENDBRANCH  10  26
TORSDOF 4
ENDMDL
MODEL 2
REMARK VINA RESULT:      -9.1      2.766      3.469
REMARK  4 active torsions:
REMARK  status: ('A' for Active; 'I' for Inactive)
REMARK    1  A    between atoms: C4_11  and  O1_1 
REMARK    2  A    between atoms: C6_13  and  O1_1 
REMARK    3  A    between atoms: C10_17  and  O4_4 
REMARK    4  A    between atoms: C11_18  and  O5_5 
ROOT
HETATM    1  O2  UNK     1      18.831   0.391  31.706  1.00  0.00    -0.272 OA
HETATM    2  O6  UNK     1      18.963   1.623  29.785  1.00  0.00    -0.257 OA
HETATM    3  C1  UNK     1      18.262   1.491  33.797  1.00  0.00     0.004 A 
HETATM    4  C2  UNK     1      18.589   0.338  33.092  1.00  0.00     0.092 A 
HETATM    5  C3  UNK     1      18.174   2.751  33.077  1.00  0.00     0.058 A 
HETATM    6  C4  UNK     1      18.403   2.801  31.760  1.00  0.00     0.152 A 
HETATM    7  C5  UNK     1      18.029   1.400  35.171  1.00  0.00     0.054 A 
HETATM    8  C9  UNK     1      18.691  -0.901  33.721  1.00  0.00     0.077 A 
HETATM    9  C10 UNK     1      18.127   0.163  35.815  1.00  0.00     0.102 A 
HETATM   10  C11 UNK     1      18.458  -0.985  35.092  1.00  0.00     0.101 A 
HETATM   11  C13 UNK     1      18.754   1.584  30.993  1.00  0.00     0.322 A 
ENDROOT
BRANCH   6  12
HETATM   12  O1  UNK     1      18.328   3.978  31.043  1.00  0.00    -0.304 OA
BRANCH  12  13
HETATM   13  C6  UNK     1      18.337   5.140  31.761  1.00  0.00     0.079 A 
HETATM   14  C12 UNK     1      17.137   5.695  32.195  1.00  0.00     0.075 A 
HETATM   15  C8  UNK     1      17.172   6.880  32.926  1.00  0.00     0.092 A 
HETATM   16  C7  UNK     1      18.371   7.519  33.232  1.00  0.00    -0.002 A 
HETATM   17  O3  UNK     1      15.942   7.422  33.353  1.00  0.00    -0.275 OA
HETATM   18  C15 UNK     1      19.569   6.951  32.791  1.00  0.00     0.017 A 
HETATM   19  C16 UNK     1      18.333   8.752  33.998  1.00  0.00     0.020 A 
HETATM   20  C14 UNK     1      19.550   5.762  32.056  1.00  0.00     0.038 A 
HETATM   21  C17 UNK     1      17.165   9.259  34.400  1.00  0.00     0.083 A 
HETATM   22  C18 UNK     1      15.881   8.601  34.089  1.00  0.00     0.288 A 
HETATM   23  O7  UNK     1      14.817   9.079  34.465  1.00  0.00    -0.260 OA
ENDBRANCH  12  13
ENDBRANCH   6  12
BRANCH   9  24
HETATM   24  O4  UNK     1      17.898   0.091  37.157  1.00  0.00    -0.353 OA
HETATM   25  C19 UNK     1      17.378   1.259  37.789  1.00  0.00     0.210 C 
ENDBRANCH   9  24
BRANCH  10  26
HETATM   26  O5  UNK     1      18.556  -2.192  35.716  1.00  0.00    -0.358 OA
HETATM   27  H9  UNK     1      19.483  -2.486  35.692  1.00  0.00     0.217 HD
ENDBRANCH  10  26
TORSDOF 4
ENDMDL
MODEL 3
REMARK VINA RESULT:      -8.7     21.869     24.936
REMARK  4 active torsions:
REMARK  status: ('A' for Active; 'I' for Inactive)
REMARK    1  A    between atoms: C4_11  and  O1_1 
REMARK    2  A    between atoms: C6_13  and  O1_1 
REMARK    3  A    between atoms: C10_17  and  O4_4 
REMARK    4  A    between atoms: C11_18  and  O5_5 
ROOT
HETATM    1  O2  UNK     1      11.926   5.569   6.902  1.00  0.00    -0.272 OA
HETATM    2  O6  UNK     1       9.893   5.608   5.858  1.00  0.00    -0.257 OA
HETATM    3  C1  UNK     1      12.212   6.742   9.011  1.00  0.00     0.004 A 
HETATM    4  C2  UNK     1      12.733   5.957   7.989  1.00  0.00     0.092 A 
HETATM    5  C3  UNK     1      10.819   7.155   8.937  1.00  0.00     0.058 A 
HETATM    6  C4  UNK     1      10.054   6.786   7.904  1.00  0.00     0.152 A 
HETATM    7  C5  UNK     1      13.042   7.108  10.073  1.00  0.00     0.054 A 
HETATM    8  C9  UNK     1      14.059   5.528   7.998  1.00  0.00     0.077 A 
HETATM    9  C10 UNK     1      14.374   6.684  10.096  1.00  0.00     0.102 A 
HETATM   10  C11 UNK     1      14.881   5.896   9.060  1.00  0.00     0.101 A 
HETATM   11  C13 UNK     1      10.591   5.951   6.806  1.00  0.00     0.322 A 
ENDROOT
BRANCH   6  12
HETATM   12  O1  UNK     1       8.728   7.157   7.800  1.00  0.00    -0.304 OA
BRANCH  12  13
HETATM   13  C6  UNK     1       7.875   6.672   8.750  1.00  0.00     0.079 A 
HETATM   14  C12 UNK     1       7.670   5.300   8.860  1.00  0.00     0.075 A 
HETATM   15  C8  UNK     1       6.796   4.828   9.837  1.00  0.00     0.092 A 
HETATM   16  C7  UNK     1       6.126   5.692  10.700  1.00  0.00    -0.002 A 
HETATM   17  O3  UNK     1       6.606   3.435   9.927  1.00  0.00    -0.275 OA
HETATM   18  C15 UNK     1       6.340   7.067  10.579  1.00  0.00     0.017 A 
HETATM   19  C16 UNK     1       5.228   5.131  11.695  1.00  0.00     0.020 A 
HETATM   20  C14 UNK     1       7.215   7.555   9.604  1.00  0.00     0.038 A 
HETATM   21  C17 UNK     1       5.054   3.810  11.775  1.00  0.00     0.083 A 
HETATM   22  C18 UNK     1       5.752   2.875  10.872  1.00  0.00     0.288 A 
HETATM   23  O7  UNK     1       5.581   1.664  10.958  1.00  0.00    -0.260 OA
ENDBRANCH  12  13
ENDBRANCH   6  12
BRANCH   9  24
HETATM   24  O4  UNK     1      15.172   7.050  11.139  1.00  0.00    -0.353 OA
HETATM   25  C19 UNK     1      15.496   8.435  11.251  1.00  0.00     0.210 C 
ENDBRANCH   9  24
BRANCH  10  26
HETATM   26  O5  UNK     1      16.179   5.483   9.078  1.00  0.00    -0.358 OA
HETATM   27  H9  UNK     1      16.394   5.080   8.219  1.00  0.00     0.217 HD
ENDBRANCH  10  26
TORSDOF 4
ENDMDL
MODEL 4
REMARK VINA RESULT:      -8.5     22.553     24.940
REMARK  4 active torsions:
REMARK  status: ('A' for Active; 'I' for Inactive)
REMARK    1  A    between atoms: C4_11  and  O1_1 
REMARK    2  A    between atoms: C6_13  and  O1_1 
REMARK    3  A    between atoms: C10_17  and  O4_4 
REMARK    4  A    between atoms: C11_18  and  O5_5 
ROOT
HETATM    1  O2  UNK     1      16.385   6.515   9.989  1.00  0.00    -0.272 OA
HETATM    2  O6  UNK     1      15.673   4.354   9.768  1.00  0.00    -0.257 OA
HETATM    3  C1  UNK     1      15.080   8.313   9.003  1.00  0.00     0.004 A 
HETATM    4  C2  UNK     1      16.186   7.885   9.728  1.00  0.00     0.092 A 
HETATM    5  C3  UNK     1      14.133   7.321   8.518  1.00  0.00     0.058 A 
HETATM    6  C4  UNK     1      14.323   6.020   8.766  1.00  0.00     0.152 A 
HETATM    7  C5  UNK     1      14.915   9.679   8.765  1.00  0.00     0.054 A 
HETATM    8  C9  UNK     1      17.131   8.783  10.221  1.00  0.00     0.077 A 
HETATM    9  C10 UNK     1      15.855  10.591   9.253  1.00  0.00     0.102 A 
HETATM   10  C11 UNK     1      16.961  10.144   9.980  1.00  0.00     0.101 A 
HETATM   11  C13 UNK     1      15.495   5.546   9.536  1.00  0.00     0.322 A 
ENDROOT
BRANCH   6  12
HETATM   12  O1  UNK     1      13.446   5.050   8.323  1.00  0.00    -0.304 OA
BRANCH  12  13
HETATM   13  C6  UNK     1      12.165   5.448   8.067  1.00  0.00     0.079 A 
HETATM   14  C12 UNK     1      11.246   5.535   9.108  1.00  0.00     0.075 A 
HETATM   15  C8  UNK     1       9.945   5.943   8.822  1.00  0.00     0.092 A 
HETATM   16  C7  UNK     1       9.544   6.264   7.527  1.00  0.00    -0.002 A 
HETATM   17  O3  UNK     1       9.033   6.022   9.894  1.00  0.00    -0.275 OA
HETATM   18  C15 UNK     1      10.476   6.173   6.491  1.00  0.00     0.017 A 
HETATM   19  C16 UNK     1       8.172   6.682   7.301  1.00  0.00     0.020 A 
HETATM   20  C14 UNK     1      11.786   5.765   6.762  1.00  0.00     0.038 A 
HETATM   21  C17 UNK     1       7.315   6.755   8.322  1.00  0.00     0.083 A 
HETATM   22  C18 UNK     1       7.714   6.421   9.702  1.00  0.00     0.288 A 
HETATM   23  O7  UNK     1       6.915   6.493  10.629  1.00  0.00    -0.260 OA
ENDBRANCH  12  13
ENDBRANCH   6  12
BRANCH   9  24
HETATM   24  O4  UNK     1      15.681  11.921   9.011  1.00  0.00    -0.353 OA
HETATM   25  C19 UNK     1      15.586  12.324   7.645  1.00  0.00     0.210 C 
ENDBRANCH   9  24
BRANCH  10  26
HETATM   26  O5  UNK     1      17.880  11.029  10.456  1.00  0.00    -0.358 OA
HETATM   27  H9  UNK     1      18.701  10.551  10.665  1.00  0.00     0.217 HD
ENDBRANCH  10  26
TORSDOF 4
ENDMDL
MODEL 5
REMARK VINA RESULT:      -8.5     22.815     26.000
REMARK  4 active torsions:
REMARK  status: ('A' for Active; 'I' for Inactive)
REMARK    1  A    between atoms: C4_11  and  O1_1 
REMARK    2  A    between atoms: C6_13  and  O1_1 
REMARK    3  A    between atoms: C10_17  and  O4_4 
REMARK    4  A    between atoms: C11_18  and  O5_5 
ROOT
HETATM    1  O2  UNK     1      17.459   9.329   9.491  1.00  0.00    -0.272 OA
HETATM    2  O6  UNK     1      16.736   7.431  10.542  1.00  0.00    -0.257 OA
HETATM    3  C1  UNK     1      15.844  10.785   8.404  1.00  0.00     0.004 A 
HETATM    4  C2  UNK     1      17.158  10.489   8.753  1.00  0.00     0.092 A 
HETATM    5  C3  UNK     1      14.789   9.873   8.816  1.00  0.00     0.058 A 
HETATM    6  C4  UNK     1      15.075   8.771   9.517  1.00  0.00     0.152 A 
HETATM    7  C5  UNK     1      15.584  11.945   7.672  1.00  0.00     0.054 A 
HETATM    8  C9  UNK     1      18.216  11.320   8.390  1.00  0.00     0.077 A 
HETATM    9  C10 UNK     1      16.636  12.787   7.301  1.00  0.00     0.102 A 
HETATM   10  C11 UNK     1      17.950  12.475   7.659  1.00  0.00     0.101 A 
HETATM   11  C13 UNK     1      16.467   8.440   9.897  1.00  0.00     0.322 A 
ENDROOT
BRANCH   6  12
HETATM   12  O1  UNK     1      14.100   7.883   9.926  1.00  0.00    -0.304 OA
BRANCH  12  13
HETATM   13  C6  UNK     1      13.217   7.456   8.975  1.00  0.00     0.079 A 
HETATM   14  C12 UNK     1      11.848   7.539   9.215  1.00  0.00     0.075 A 
HETATM   15  C8  UNK     1      10.967   7.097   8.230  1.00  0.00     0.092 A 
HETATM   16  C7  UNK     1      11.420   6.579   7.019  1.00  0.00    -0.002 A 
HETATM   17  O3  UNK     1       9.586   7.191   8.498  1.00  0.00    -0.275 OA
HETATM   18  C15 UNK     1      12.795   6.501   6.791  1.00  0.00     0.017 A 
HETATM   19  C16 UNK     1      10.445   6.137   6.038  1.00  0.00     0.020 A 
HETATM   20  C14 UNK     1      13.693   6.941   7.769  1.00  0.00     0.038 A 
HETATM   21  C17 UNK     1       9.138   6.230   6.299  1.00  0.00     0.083 A 
HETATM   22  C18 UNK     1       8.634   6.775   7.573  1.00  0.00     0.288 A 
HETATM   23  O7  UNK     1       7.432   6.854   7.798  1.00  0.00    -0.260 OA
ENDBRANCH  12  13
ENDBRANCH   6  12
BRANCH   9  24
HETATM   24  O4  UNK     1      16.366  13.915   6.585  1.00  0.00    -0.353 OA
HETATM   25  C19 UNK     1      14.995  14.292   6.463  1.00  0.00     0.210 C 
ENDBRANCH   9  24
BRANCH  10  26
HETATM   26  O5  UNK     1      18.978  13.293   7.299  1.00  0.00    -0.358 OA
HETATM   27  H9  UNK     1      18.956  14.092   7.853  1.00  0.00     0.217 HD
ENDBRANCH  10  26
TORSDOF 4
ENDMDL
MODEL 6
REMARK VINA RESULT:      -8.5      3.020      4.446
REMARK  4 active torsions:
REMARK  status: ('A' for Active; 'I' for Inactive)
REMARK    1  A    between atoms: C4_11  and  O1_1 
REMARK    2  A    between atoms: C6_13  and  O1_1 
REMARK    3  A    between atoms: C10_17  and  O4_4 
REMARK    4  A    between atoms: C11_18  and  O5_5 
ROOT
HETATM    1  O2  UNK     1      19.257   4.136  30.315  1.00  0.00    -0.272 OA
HETATM    2  O6  UNK     1      19.607   6.337  29.805  1.00  0.00    -0.257 OA
HETATM    3  C1  UNK     1      18.540   3.525  32.555  1.00  0.00     0.004 A 
HETATM    4  C2  UNK     1      18.889   3.159  31.260  1.00  0.00     0.092 A 
HETATM    5  C3  UNK     1      18.562   4.933  32.915  1.00  0.00     0.058 A 
HETATM    6  C4  UNK     1      18.912   5.861  32.017  1.00  0.00     0.152 A 
HETATM    7  C5  UNK     1      18.181   2.528  33.465  1.00  0.00     0.054 A 
HETATM    8  C9  UNK     1      18.890   1.827  30.850  1.00  0.00     0.077 A 
HETATM    9  C10 UNK     1      18.176   1.188  33.067  1.00  0.00     0.102 A 
HETATM   10  C11 UNK     1      18.530   0.839  31.762  1.00  0.00     0.101 A 
HETATM   11  C13 UNK     1      19.287   5.490  30.634  1.00  0.00     0.322 A 
ENDROOT
BRANCH   6  12
HETATM   12  O1  UNK     1      18.943   7.207  32.322  1.00  0.00    -0.304 OA
BRANCH  12  13
HETATM   13  C6  UNK     1      17.741   7.820  32.533  1.00  0.00     0.079 A 
HETATM   14  C12 UNK     1      17.514   8.507  33.722  1.00  0.00     0.075 A 
HETATM   15  C8  UNK     1      16.280   9.125  33.915  1.00  0.00     0.092 A 
HETATM   16  C7  UNK     1      15.275   9.072  32.952  1.00  0.00    -0.002 A 
HETATM   17  O3  UNK     1      16.075   9.814  35.127  1.00  0.00    -0.275 OA
HETATM   18  C15 UNK     1      15.515   8.379  31.763  1.00  0.00     0.017 A 
HETATM   19  C16 UNK     1      14.012   9.739  33.219  1.00  0.00     0.020 A 
HETATM   20  C14 UNK     1      16.749   7.754  31.555  1.00  0.00     0.038 A 
HETATM   21  C17 UNK     1      13.826  10.390  34.370  1.00  0.00     0.083 A 
HETATM   22  C18 UNK     1      14.875  10.460  35.405  1.00  0.00     0.288 A 
HETATM   23  O7  UNK     1      14.689  11.062  36.456  1.00  0.00    -0.260 OA
ENDBRANCH  12  13
ENDBRANCH   6  12
BRANCH   9  24
HETATM   24  O4  UNK     1      17.824   0.227  33.968  1.00  0.00    -0.353 OA
HETATM   25  C19 UNK     1      16.782   0.551  34.887  1.00  0.00     0.210 C 
ENDBRANCH   9  24
BRANCH  10  26
HETATM   26  O5  UNK     1      18.529  -0.466  31.371  1.00  0.00    -0.358 OA
HETATM   27  H9  UNK     1      18.171  -1.012  32.092  1.00  0.00     0.217 HD
ENDBRANCH  10  26
TORSDOF 4
ENDMDL
MODEL 7
REMARK VINA RESULT:      -8.5     22.334     24.569
REMARK  4 active torsions:
REMARK  status: ('A' for Active; 'I' for Inactive)
REMARK    1  A    between atoms: C4_11  and  O1_1 
REMARK    2  A    between atoms: C6_13  and  O1_1 
REMARK    3  A    between atoms: C10_17  and  O4_4 
REMARK    4  A    between atoms: C11_18  and  O5_5 
ROOT
HETATM    1  O2  UNK     1      13.858   5.163   8.948  1.00  0.00    -0.272 OA
HETATM    2  O6  UNK     1      11.919   4.287   8.112  1.00  0.00    -0.257 OA
HETATM    3  C1  UNK     1      14.170   7.573   8.974  1.00  0.00     0.004 A 
HETATM    4  C2  UNK     1      14.641   6.294   9.249  1.00  0.00     0.092 A 
HETATM    5  C3  UNK     1      12.856   7.721   8.371  1.00  0.00     0.058 A 
HETATM    6  C4  UNK     1      12.112   6.646   8.085  1.00  0.00     0.152 A 
HETATM    7  C5  UNK     1      14.975   8.670   9.286  1.00  0.00     0.054 A 
HETATM    8  C9  UNK     1      15.892   6.082   9.826  1.00  0.00     0.077 A 
HETATM    9  C10 UNK     1      16.232   8.472   9.866  1.00  0.00     0.102 A 
HETATM   10  C11 UNK     1      16.689   7.181  10.135  1.00  0.00     0.101 A 
HETATM   11  C13 UNK     1      12.597   5.276   8.370  1.00  0.00     0.322 A 
ENDROOT
BRANCH   6  12
HETATM   12  O1  UNK     1      10.860   6.747   7.513  1.00  0.00    -0.304 OA
BRANCH  12  13
HETATM   13  C6  UNK     1       9.808   6.943   8.362  1.00  0.00     0.079 A 
HETATM   14  C12 UNK     1       8.878   5.926   8.558  1.00  0.00     0.075 A 
HETATM   15  C8  UNK     1       7.813   6.149   9.429  1.00  0.00     0.092 A 
HETATM   16  C7  UNK     1       7.659   7.357  10.105  1.00  0.00    -0.002 A 
HETATM   17  O3  UNK     1       6.885   5.104   9.608  1.00  0.00    -0.275 OA
HETATM   18  C15 UNK     1       8.600   8.369   9.900  1.00  0.00     0.017 A 
HETATM   19  C16 UNK     1       6.526   7.521  10.998  1.00  0.00     0.020 A 
HETATM   20  C14 UNK     1       9.674   8.161   9.029  1.00  0.00     0.038 A 
HETATM   21  C17 UNK     1       5.651   6.526  11.164  1.00  0.00     0.083 A 
HETATM   22  C18 UNK     1       5.792   5.237  10.459  1.00  0.00     0.288 A 
HETATM   23  O7  UNK     1       4.981   4.333  10.622  1.00  0.00    -0.260 OA
ENDBRANCH  12  13
ENDBRANCH   6  12
BRANCH   9  24
HETATM   24  O4  UNK     1      17.006   9.555  10.164  1.00  0.00    -0.353 OA
HETATM   25  C19 UNK     1      17.419  10.375   9.072  1.00  0.00     0.210 C 
ENDBRANCH   9  24
BRANCH  10  26
HETATM   26  O5  UNK     1      17.914   6.984  10.698  1.00  0.00    -0.358 OA
HETATM   27  H9  UNK     1      17.798   6.573  11.572  1.00  0.00     0.217 HD
ENDBRANCH  10  26
TORSDOF 4
ENDMDL
MODEL 8
REMARK VINA RESULT:      -8.4      3.252      4.334
REMARK  4 active torsions:
REMARK  status: ('A' for Active; 'I' for Inactive)
REMARK    1  A    between atoms: C4_11  and  O1_1 
REMARK    2  A    between atoms: C6_13  and  O1_1 
REMARK    3  A    between atoms: C10_17  and  O4_4 
REMARK    4  A    between atoms: C11_18  and  O5_5 
ROOT
HETATM    1  O2  UNK     1      18.303   1.755  31.788  1.00  0.00    -0.272 OA
HETATM    2  O6  UNK     1      18.260   3.125  29.958  1.00  0.00    -0.257 OA
HETATM    3  C1  UNK     1      18.350   2.731  34.014  1.00  0.00     0.004 A 
HETATM    4  C2  UNK     1      18.333   1.612  33.189  1.00  0.00     0.092 A 
HETATM    5  C3  UNK     1      18.335   4.051  33.404  1.00  0.00     0.058 A 
HETATM    6  C4  UNK     1      18.306   4.186  32.073  1.00  0.00     0.152 A 
HETATM    7  C5  UNK     1      18.380   2.550  35.398  1.00  0.00     0.054 A 
HETATM    8  C9  UNK     1      18.347   0.319  33.708  1.00  0.00     0.077 A 
HETATM    9  C10 UNK     1      18.393   1.258  35.933  1.00  0.00     0.102 A 
HETATM   10  C11 UNK     1      18.377   0.145  35.090  1.00  0.00     0.101 A 
HETATM   11  C13 UNK     1      18.289   3.006  31.179  1.00  0.00     0.322 A 
ENDROOT
BRANCH   6  12
HETATM   12  O1  UNK     1      18.291   5.422  31.459  1.00  0.00    -0.304 OA
BRANCH  12  13
HETATM   13  C6  UNK     1      17.586   6.412  32.082  1.00  0.00     0.079 A 
HETATM   14  C12 UNK     1      18.230   7.586  32.462  1.00  0.00     0.075 A 
HETATM   15  C8  UNK     1      17.490   8.582  33.096  1.00  0.00     0.092 A 
HETATM   16  C7  UNK     1      16.130   8.432  33.356  1.00  0.00    -0.002 A 
HETATM   17  O3  UNK     1      18.166   9.760  33.472  1.00  0.00    -0.275 OA
HETATM   18  C15 UNK     1      15.496   7.250  32.970  1.00  0.00     0.017 A 
HETATM   19  C16 UNK     1      15.421   9.511  34.022  1.00  0.00     0.020 A 
HETATM   20  C14 UNK     1      16.224   6.241  32.332  1.00  0.00     0.038 A 
HETATM   21  C17 UNK     1      16.067  10.625  34.373  1.00  0.00     0.083 A 
HETATM   22  C18 UNK     1      17.508  10.807  34.109  1.00  0.00     0.288 A 
HETATM   23  O7  UNK     1      18.088  11.836  34.438  1.00  0.00    -0.260 OA
ENDBRANCH  12  13
ENDBRANCH   6  12
BRANCH   9  24
HETATM   24  O4  UNK     1      18.424   1.098  37.287  1.00  0.00    -0.353 OA
HETATM   25  C19 UNK     1      17.204   1.317  37.992  1.00  0.00     0.210 C 
ENDBRANCH   9  24
BRANCH  10  26
HETATM   26  O5  UNK     1      18.391  -1.115  35.607  1.00  0.00    -0.358 OA
HETATM   27  H9  UNK     1      18.307  -1.756  34.880  1.00  0.00     0.217 HD
ENDBRANCH  10  26
TORSDOF 4
ENDMDL
MODEL 9
REMARK VINA RESULT:      -8.4     14.466     16.877
REMARK  4 active torsions:
REMARK  status: ('A' for Active; 'I' for Inactive)
REMARK    1  A    between atoms: C4_11  and  O1_1 
REMARK    2  A    between atoms: C6_13  and  O1_1 
REMARK    3  A    between atoms: C10_17  and  O4_4 
REMARK    4  A    between atoms: C11_18  and  O5_5 
ROOT
HETATM    1  O2  UNK     1      27.987  -5.081  39.329  1.00  0.00    -0.272 OA
HETATM    2  O6  UNK     1      29.531  -3.444  39.727  1.00  0.00    -0.257 OA
HETATM    3  C1  UNK     1      28.715  -7.224  38.441  1.00  0.00     0.004 A 
HETATM    4  C2  UNK     1      27.698  -6.386  38.886  1.00  0.00     0.092 A 
HETATM    5  C3  UNK     1      30.081  -6.727  38.441  1.00  0.00     0.058 A 
HETATM    6  C4  UNK     1      30.355  -5.487  38.861  1.00  0.00     0.152 A 
HETATM    7  C5  UNK     1      28.390  -8.511  38.010  1.00  0.00     0.054 A 
HETATM    8  C9  UNK     1      26.367  -6.800  38.911  1.00  0.00     0.077 A 
HETATM    9  C10 UNK     1      27.059  -8.940  38.030  1.00  0.00     0.102 A 
HETATM   10  C11 UNK     1      26.050  -8.086  38.480  1.00  0.00     0.101 A 
HETATM   11  C13 UNK     1      29.286  -4.581  39.338  1.00  0.00     0.322 A 
ENDROOT
BRANCH   6  12
HETATM   12  O1  UNK     1      31.639  -4.981  38.877  1.00  0.00    -0.304 OA
BRANCH  12  13
HETATM   13  C6  UNK     1      32.325  -5.001  37.695  1.00  0.00     0.079 A 
HETATM   14  C12 UNK     1      33.420  -5.846  37.545  1.00  0.00     0.075 A 
HETATM   15  C8  UNK     1      34.103  -5.849  36.330  1.00  0.00     0.092 A 
HETATM   16  C7  UNK     1      33.718  -5.033  35.270  1.00  0.00    -0.002 A 
HETATM   17  O3  UNK     1      35.210  -6.713  36.204  1.00  0.00    -0.275 OA
HETATM   18  C15 UNK     1      32.617  -4.190  35.433  1.00  0.00     0.017 A 
HETATM   19  C16 UNK     1      34.476  -5.087  34.032  1.00  0.00     0.020 A 
HETATM   20  C14 UNK     1      31.921  -4.175  36.646  1.00  0.00     0.038 A 
HETATM   21  C17 UNK     1      35.522  -5.909  33.919  1.00  0.00     0.083 A 
HETATM   22  C18 UNK     1      35.950  -6.783  35.028  1.00  0.00     0.288 A 
HETATM   23  O7  UNK     1      36.913  -7.532  34.910  1.00  0.00    -0.260 OA
ENDBRANCH  12  13
ENDBRANCH   6  12
BRANCH   9  24
HETATM   24  O4  UNK     1      26.758 -10.199  37.605  1.00  0.00    -0.353 OA
HETATM   25  C19 UNK     1      26.557 -10.379  36.204  1.00  0.00     0.210 C 
ENDBRANCH   9  24
BRANCH  10  26
HETATM   26  O5  UNK     1      24.752  -8.499  38.500  1.00  0.00    -0.358 OA
HETATM   27  H9  UNK     1      24.538  -8.826  39.390  1.00  0.00     0.217 HD
ENDBRANCH  10  26
TORSDOF 4
ENDMDL
MODEL 10
REMARK VINA RESULT:      -8.4     13.468     16.893
REMARK  4 active torsions:
REMARK  status: ('A' for Active; 'I' for Inactive)
REMARK    1  A    between atoms: C4_11  and  O1_1 
REMARK    2  A    between atoms: C6_13  and  O1_1 
REMARK    3  A    between atoms: C10_17  and  O4_4 
REMARK    4  A    between atoms: C11_18  and  O5_5 
ROOT
HETATM    1  O2  UNK     1      30.399  -6.874  35.777  1.00  0.00    -0.272 OA
HETATM    2  O6  UNK     1      28.308  -6.609  34.891  1.00  0.00    -0.257 OA
HETATM    3  C1  UNK     1      32.343  -6.215  34.475  1.00  0.00     0.004 A 
HETATM    4  C2  UNK     1      31.794  -6.740  35.640  1.00  0.00     0.092 A 
HETATM    5  C3  UNK     1      31.451  -5.807  33.402  1.00  0.00     0.058 A 
HETATM    6  C4  UNK     1      30.125  -5.934  33.533  1.00  0.00     0.152 A 
HETATM    7  C5  UNK     1      33.731  -6.097  34.376  1.00  0.00     0.054 A 
HETATM    8  C9  UNK     1      32.593  -7.151  36.705  1.00  0.00     0.077 A 
HETATM    9  C10 UNK     1      34.544  -6.505  35.437  1.00  0.00     0.102 A 
HETATM   10  C11 UNK     1      33.976  -7.031  36.599  1.00  0.00     0.101 A 
HETATM   11  C13 UNK     1      29.523  -6.492  34.765  1.00  0.00     0.322 A 
ENDROOT
BRANCH   6  12
HETATM   12  O1  UNK     1      29.247  -5.557  32.537  1.00  0.00    -0.304 OA
BRANCH  12  13
HETATM   13  C6  UNK     1      28.874  -6.522  31.645  1.00  0.00     0.079 A 
HETATM   14  C12 UNK     1      29.822  -7.081  30.792  1.00  0.00     0.075 A 
HETATM   15  C8  UNK     1      29.418  -8.064  29.892  1.00  0.00     0.092 A 
HETATM   16  C7  UNK     1      28.096  -8.499  29.825  1.00  0.00    -0.002 A 
HETATM   17  O3  UNK     1      30.397  -8.612  29.039  1.00  0.00    -0.275 OA
HETATM   18  C15 UNK     1      27.155  -7.931  30.686  1.00  0.00     0.017 A 
HETATM   19  C16 UNK     1      27.745  -9.527  28.861  1.00  0.00     0.020 A 
HETATM   20  C14 UNK     1      27.545  -6.943  31.595  1.00  0.00     0.038 A 
HETATM   21  C17 UNK     1      28.678 -10.043  28.057  1.00  0.00     0.083 A 
HETATM   22  C18 UNK     1      30.085  -9.599  28.109  1.00  0.00     0.288 A 
HETATM   23  O7  UNK     1      30.930 -10.082  27.365  1.00  0.00    -0.260 OA
ENDBRANCH  12  13
ENDBRANCH   6  12
BRANCH   9  24
HETATM   24  O4  UNK     1      35.897  -6.385  35.324  1.00  0.00    -0.353 OA
HETATM   25  C19 UNK     1      36.567  -7.343  34.506  1.00  0.00     0.210 C 
ENDBRANCH   9  24
BRANCH  10  26
HETATM   26  O5  UNK     1      34.765  -7.431  37.635  1.00  0.00    -0.358 OA
HETATM   27  H9  UNK     1      34.752  -6.745  38.325  1.00  0.00     0.217 HD
ENDBRANCH  10  26
TORSDOF 4
ENDMDL
