MODEL 1
REMARK VINA RESULT:      -9.2      0.000      0.000
REMARK  6 active torsions:
REMARK  status: ('A' for Active; 'I' for Inactive)
REMARK    1  A    between atoms: C21_28  and  O3_3 
REMARK    2  A    between atoms: C23_30  and  O3_3 
REMARK       I    between atoms: C11_18  and  N1_5 
REMARK    3  A    between atoms: C10_17  and  N2_6 
REMARK    4  A    between atoms: C13_20  and  N3_7 
REMARK    5  A    between atoms: C10_17  and  C11_18 
REMARK    6  A    between atoms: C13_20  and  C14_21 
ROOT
HETATM    1  N2  UNK     1      19.020   6.015  32.274  1.00  0.00     0.100 N 
HETATM    2  N3  UNK     1      18.852   3.304  31.281  1.00  0.00     0.096 N 
HETATM    3  C6  UNK     1      18.692   4.895  33.166  1.00  0.00     0.303 C 
HETATM    4  C7  UNK     1      19.866   5.555  31.166  1.00  0.00     0.303 C 
HETATM    5  C8  UNK     1      18.007   3.764  32.390  1.00  0.00     0.303 C 
HETATM    6  C9  UNK     1      19.183   4.424  30.390  1.00  0.00     0.303 C 
ENDROOT
BRANCH   2   7
HETATM    7  C13 UNK     1      18.196   2.227  30.540  1.00  0.00     0.312 C 
BRANCH   7   8
HETATM    8  C14 UNK     1      19.046   1.008  30.454  1.00  0.00    -0.011 A 
HETATM    9  C15 UNK     1      19.147   0.102  31.606  1.00  0.00     0.009 A 
HETATM   10  C17 UNK     1      19.950  -1.035  31.495  1.00  0.00     0.090 A 
HETATM   11  C18 UNK     1      18.480   0.309  32.821  1.00  0.00     0.051 A 
HETATM   12  O2  UNK     1      20.654  -1.315  30.307  1.00  0.00    -0.275 OA
HETATM   13  C20 UNK     1      20.101  -1.946  32.542  1.00  0.00     0.041 A 
HETATM   14  C19 UNK     1      20.577  -0.480  29.204  1.00  0.00     0.288 A 
HETATM   15  C16 UNK     1      19.725   0.714  29.337  1.00  0.00     0.092 A 
HETATM   16  O4  UNK     1      21.184  -0.716  28.165  1.00  0.00    -0.260 OA
HETATM   17  C22 UNK     1      19.431  -1.721  33.739  1.00  0.00     0.039 A 
HETATM   18  C21 UNK     1      18.621  -0.596  33.879  1.00  0.00     0.069 A 
BRANCH  18  19
HETATM   19  O3  UNK     1      17.963  -0.376  35.051  1.00  0.00    -0.351 OA
BRANCH  19  20
HETATM   20  C23 UNK     1      17.035   0.707  35.080  1.00  0.00     0.171 C 
HETATM   21  C24 UNK     1      15.665   0.171  35.437  1.00  0.00     0.034 C 
ENDBRANCH  19  20
ENDBRANCH  18  19
ENDBRANCH   7   8
ENDBRANCH   2   7
BRANCH   1  22
HETATM   22  C10 UNK     1      19.674   7.092  33.015  1.00  0.00     0.374 C 
BRANCH  22  23
HETATM   23  C11 UNK     1      18.722   7.756  33.978  1.00  0.00     0.248 C 
HETATM   24  O1  UNK     1      19.040   7.859  35.165  1.00  0.00    -0.271 OA
HETATM   25  N1  UNK     1      17.517   8.216  33.448  1.00  0.00    -0.351 N 
HETATM   26  C4  UNK     1      16.557   8.906  34.311  1.00  0.00     0.126 C 
HETATM   27  C5  UNK     1      17.111   8.107  32.041  1.00  0.00     0.126 C 
HETATM   28  C2  UNK     1      15.185   8.240  34.240  1.00  0.00     0.024 C 
HETATM   29  C1  UNK     1      14.694   8.133  32.788  1.00  0.00    -0.015 C 
HETATM   30  C3  UNK     1      15.748   7.427  31.922  1.00  0.00     0.024 C 
HETATM   31  C12 UNK     1      13.355   7.402  32.720  1.00  0.00     0.010 C 
ENDBRANCH  22  23
ENDBRANCH   1  22
TORSDOF 6
ENDMDL
MODEL 2
REMARK VINA RESULT:      -8.8      2.097      3.251
REMARK  6 active torsions:
REMARK  status: ('A' for Active; 'I' for Inactive)
REMARK    1  A    between atoms: C21_28  and  O3_3 
REMARK    2  A    between atoms: C23_30  and  O3_3 
REMARK       I    between atoms: C11_18  and  N1_5 
REMARK    3  A    between atoms: C10_17  and  N2_6 
REMARK    4  A    between atoms: C13_20  and  N3_7 
REMARK    5  A    between atoms: C10_17  and  C11_18 
REMARK    6  A    between atoms: C13_20  and  C14_21 
ROOT
HETATM    1  N2  UNK     1      18.533   6.682  32.745  1.00  0.00     0.100 N 
HETATM    2  N3  UNK     1      18.202   3.871  32.152  1.00  0.00     0.096 N 
HETATM    3  C6  UNK     1      18.771   6.154  31.395  1.00  0.00     0.303 C 
HETATM    4  C7  UNK     1      17.530   5.870  33.443  1.00  0.00     0.303 C 
HETATM    5  C8  UNK     1      19.205   4.685  31.454  1.00  0.00     0.303 C 
HETATM    6  C9  UNK     1      17.962   4.400  33.501  1.00  0.00     0.303 C 
ENDROOT
BRANCH   2   7
HETATM    7  C13 UNK     1      18.618   2.471  32.209  1.00  0.00     0.312 C 
BRANCH   7   8
HETATM    8  C14 UNK     1      18.667   1.845  30.860  1.00  0.00    -0.011 A 
HETATM    9  C15 UNK     1      19.371   0.569  30.669  1.00  0.00     0.009 A 
HETATM   10  C17 UNK     1      19.399   0.005  29.392  1.00  0.00     0.090 A 
HETATM   11  C18 UNK     1      20.021  -0.123  31.699  1.00  0.00     0.051 A 
HETATM   12  O2  UNK     1      18.768   0.639  28.303  1.00  0.00    -0.275 OA
HETATM   13  C20 UNK     1      20.046  -1.203  29.124  1.00  0.00     0.041 A 
HETATM   14  C19 UNK     1      18.096   1.841  28.453  1.00  0.00     0.288 A 
HETATM   15  C16 UNK     1      18.075   2.423  29.805  1.00  0.00     0.092 A 
HETATM   16  O4  UNK     1      17.543   2.400  27.511  1.00  0.00    -0.260 OA
HETATM   17  C22 UNK     1      20.685  -1.874  30.161  1.00  0.00     0.039 A 
HETATM   18  C21 UNK     1      20.673  -1.336  31.445  1.00  0.00     0.069 A 
BRANCH  18  19
HETATM   19  O3  UNK     1      21.299  -1.993  32.461  1.00  0.00    -0.351 OA
BRANCH  19  20
HETATM   20  C23 UNK     1      20.519  -2.928  33.206  1.00  0.00     0.171 C 
HETATM   21  C24 UNK     1      20.290  -2.379  34.598  1.00  0.00     0.034 C 
ENDBRANCH  19  20
ENDBRANCH  18  19
ENDBRANCH   7   8
ENDBRANCH   2   7
BRANCH   1  22
HETATM   22  C10 UNK     1      18.119   8.083  32.688  1.00  0.00     0.374 C 
BRANCH  22  23
HETATM   23  C11 UNK     1      16.676   8.215  32.268  1.00  0.00     0.248 C 
HETATM   24  O1  UNK     1      16.364   7.974  31.100  1.00  0.00    -0.271 OA
HETATM   25  N1  UNK     1      15.773   8.612  33.254  1.00  0.00    -0.351 N 
HETATM   26  C4  UNK     1      14.349   8.725  32.935  1.00  0.00     0.126 C 
HETATM   27  C5  UNK     1      16.115   8.906  34.651  1.00  0.00     0.126 C 
HETATM   28  C2  UNK     1      13.819  10.110  33.296  1.00  0.00     0.024 C 
HETATM   29  C1  UNK     1      14.118  10.455  34.763  1.00  0.00    -0.015 C 
HETATM   30  C3  UNK     1      15.619  10.295  35.049  1.00  0.00     0.024 C 
HETATM   31  C12 UNK     1      13.650  11.870  35.095  1.00  0.00     0.010 C 
ENDBRANCH  22  23
ENDBRANCH   1  22
TORSDOF 6
ENDMDL
MODEL 3
REMARK VINA RESULT:      -8.6     10.794     15.751
REMARK  6 active torsions:
REMARK  status: ('A' for Active; 'I' for Inactive)
REMARK    1  A    between atoms: C21_28  and  O3_3 
REMARK    2  A    between atoms: C23_30  and  O3_3 
REMARK       I    between atoms: C11_18  and  N1_5 
REMARK    3  A    between atoms: C10_17  and  N2_6 
REMARK    4  A    between atoms: C13_20  and  N3_7 
REMARK    5  A    between atoms: C10_17  and  C11_18 
REMARK    6  A    between atoms: C13_20  and  C14_21 
ROOT
HETATM    1  N2  UNK     1      26.324  -8.575  38.495  1.00  0.00     0.100 N 
HETATM    2  N3  UNK     1      23.829  -9.365  37.263  1.00  0.00     0.096 N 
HETATM    3  C6  UNK     1      25.031  -8.188  39.074  1.00  0.00     0.303 C 
HETATM    4  C7  UNK     1      26.200  -9.847  37.771  1.00  0.00     0.303 C 
HETATM    5  C8  UNK     1      23.954  -8.094  37.988  1.00  0.00     0.303 C 
HETATM    6  C9  UNK     1      25.122  -9.754  36.685  1.00  0.00     0.303 C 
ENDROOT
BRANCH   2   7
HETATM    7  C13 UNK     1      22.804  -9.273  36.225  1.00  0.00     0.312 C 
BRANCH   7   8
HETATM    8  C14 UNK     1      21.429  -9.398  36.783  1.00  0.00    -0.011 A 
HETATM    9  C15 UNK     1      20.514  -8.250  36.743  1.00  0.00     0.009 A 
HETATM   10  C17 UNK     1      19.231  -8.398  37.273  1.00  0.00     0.090 A 
HETATM   11  C18 UNK     1      20.853  -7.003  36.201  1.00  0.00     0.051 A 
HETATM   12  O2  UNK     1      18.812  -9.620  37.836  1.00  0.00    -0.275 OA
HETATM   13  C20 UNK     1      18.300  -7.356  37.275  1.00  0.00     0.041 A 
HETATM   14  C19 UNK     1      19.653 -10.721  37.886  1.00  0.00     0.288 A 
HETATM   15  C16 UNK     1      21.003 -10.548  37.324  1.00  0.00     0.092 A 
HETATM   16  O4  UNK     1      19.298 -11.789  38.373  1.00  0.00    -0.260 OA
HETATM   17  C22 UNK     1      18.657  -6.127  36.732  1.00  0.00     0.039 A 
HETATM   18  C21 UNK     1      19.930  -5.950  36.196  1.00  0.00     0.069 A 
BRANCH  18  19
HETATM   19  O3  UNK     1      20.279  -4.746  35.662  1.00  0.00    -0.351 OA
BRANCH  19  20
HETATM   20  C23 UNK     1      19.813  -3.578  36.337  1.00  0.00     0.171 C 
HETATM   21  C24 UNK     1      20.621  -2.386  35.872  1.00  0.00     0.034 C 
ENDBRANCH  19  20
ENDBRANCH  18  19
ENDBRANCH   7   8
ENDBRANCH   2   7
BRANCH   1  22
HETATM   22  C10 UNK     1      27.350  -8.666  39.531  1.00  0.00     0.374 C 
BRANCH  22  23
HETATM   23  C11 UNK     1      28.674  -9.109  38.960  1.00  0.00     0.248 C 
HETATM   24  O1  UNK     1      29.041 -10.274  39.122  1.00  0.00    -0.271 OA
HETATM   25  N1  UNK     1      29.411  -8.144  38.272  1.00  0.00    -0.351 N 
HETATM   26  C4  UNK     1      30.688  -8.506  37.654  1.00  0.00     0.126 C 
HETATM   27  C5  UNK     1      29.000  -6.750  38.063  1.00  0.00     0.126 C 
HETATM   28  C2  UNK     1      31.805  -7.582  38.133  1.00  0.00     0.024 C 
HETATM   29  C1  UNK     1      31.442  -6.107  37.903  1.00  0.00    -0.015 C 
HETATM   30  C3  UNK     1      30.084  -5.788  38.548  1.00  0.00     0.024 C 
HETATM   31  C12 UNK     1      32.531  -5.187  38.450  1.00  0.00     0.010 C 
ENDBRANCH  22  23
ENDBRANCH   1  22
TORSDOF 6
ENDMDL
MODEL 4
REMARK VINA RESULT:      -8.6      6.900     13.046
REMARK  6 active torsions:
REMARK  status: ('A' for Active; 'I' for Inactive)
REMARK    1  A    between atoms: C21_28  and  O3_3 
REMARK    2  A    between atoms: C23_30  and  O3_3 
REMARK       I    between atoms: C11_18  and  N1_5 
REMARK    3  A    between atoms: C10_17  and  N2_6 
REMARK    4  A    between atoms: C13_20  and  N3_7 
REMARK    5  A    between atoms: C10_17  and  C11_18 
REMARK    6  A    between atoms: C13_20  and  C14_21 
ROOT
HETATM    1  N2  UNK     1      20.363  -7.259  37.548  1.00  0.00     0.100 N 
HETATM    2  N3  UNK     1      20.272  -4.403  37.106  1.00  0.00     0.096 N 
HETATM    3  C6  UNK     1      20.786  -6.313  38.589  1.00  0.00     0.303 C 
HETATM    4  C7  UNK     1      19.337  -6.654  36.691  1.00  0.00     0.303 C 
HETATM    5  C8  UNK     1      21.298  -5.010  37.964  1.00  0.00     0.303 C 
HETATM    6  C9  UNK     1      19.848  -5.350  36.066  1.00  0.00     0.303 C 
ENDROOT
BRANCH   2   7
HETATM    7  C13 UNK     1      20.762  -3.162  36.509  1.00  0.00     0.312 C 
BRANCH   7   8
HETATM    8  C14 UNK     1      19.655  -2.226  36.171  1.00  0.00    -0.011 A 
HETATM    9  C15 UNK     1      19.439  -1.817  34.777  1.00  0.00     0.009 A 
HETATM   10  C17 UNK     1      18.392  -0.939  34.491  1.00  0.00     0.090 A 
HETATM   11  C18 UNK     1      20.227  -2.258  33.705  1.00  0.00     0.051 A 
HETATM   12  O2  UNK     1      17.553  -0.450  35.512  1.00  0.00    -0.275 OA
HETATM   13  C20 UNK     1      18.119  -0.501  33.194  1.00  0.00     0.041 A 
HETATM   14  C19 UNK     1      17.731  -0.819  36.836  1.00  0.00     0.288 A 
HETATM   15  C16 UNK     1      18.840  -1.746  37.121  1.00  0.00     0.092 A 
HETATM   16  O4  UNK     1      17.006  -0.400  37.732  1.00  0.00    -0.260 OA
HETATM   17  C22 UNK     1      18.914  -0.951  32.145  1.00  0.00     0.039 A 
HETATM   18  C21 UNK     1      19.965  -1.828  32.400  1.00  0.00     0.069 A 
BRANCH  18  19
HETATM   19  O3  UNK     1      20.743  -2.269  31.372  1.00  0.00    -0.351 OA
BRANCH  19  20
HETATM   20  C23 UNK     1      20.220  -2.124  30.053  1.00  0.00     0.171 C 
HETATM   21  C24 UNK     1      20.941  -0.989  29.359  1.00  0.00     0.034 C 
ENDBRANCH  19  20
ENDBRANCH  18  19
ENDBRANCH   7   8
ENDBRANCH   2   7
BRANCH   1  22
HETATM   22  C10 UNK     1      19.875  -8.501  38.145  1.00  0.00     0.374 C 
BRANCH  22  23
HETATM   23  C11 UNK     1      20.019  -9.663  37.194  1.00  0.00     0.248 C 
HETATM   24  O1  UNK     1      19.089 -10.464  37.076  1.00  0.00    -0.271 OA
HETATM   25  N1  UNK     1      21.225  -9.756  36.499  1.00  0.00    -0.351 N 
HETATM   26  C4  UNK     1      21.426 -10.834  35.530  1.00  0.00     0.126 C 
HETATM   27  C5  UNK     1      22.349  -8.819  36.619  1.00  0.00     0.126 C 
HETATM   28  C2  UNK     1      22.696 -11.620  35.845  1.00  0.00     0.024 C 
HETATM   29  C1  UNK     1      23.915 -10.689  35.946  1.00  0.00    -0.015 C 
HETATM   30  C3  UNK     1      23.640  -9.564  36.956  1.00  0.00     0.024 C 
HETATM   31  C12 UNK     1      25.166 -11.473  36.334  1.00  0.00     0.010 C 
ENDBRANCH  22  23
ENDBRANCH   1  22
TORSDOF 6
ENDMDL
MODEL 5
REMARK VINA RESULT:      -8.6     22.982     25.175
REMARK  6 active torsions:
REMARK  status: ('A' for Active; 'I' for Inactive)
REMARK    1  A    between atoms: C21_28  and  O3_3 
REMARK    2  A    between atoms: C23_30  and  O3_3 
REMARK       I    between atoms: C11_18  and  N1_5 
REMARK    3  A    between atoms: C10_17  and  N2_6 
REMARK    4  A    between atoms: C13_20  and  N3_7 
REMARK    5  A    between atoms: C10_17  and  C11_18 
REMARK    6  A    between atoms: C13_20  and  C14_21 
ROOT
HETATM    1  N2  UNK     1       9.013   7.088   7.589  1.00  0.00     0.100 N 
HETATM    2  N3  UNK     1      11.862   6.598   7.517  1.00  0.00     0.096 N 
HETATM    3  C6  UNK     1       9.595   6.110   6.661  1.00  0.00     0.303 C 
HETATM    4  C7  UNK     1       9.836   7.197   8.800  1.00  0.00     0.303 C 
HETATM    5  C8  UNK     1      11.038   6.489   6.306  1.00  0.00     0.303 C 
HETATM    6  C9  UNK     1      11.279   7.574   8.447  1.00  0.00     0.303 C 
ENDROOT
BRANCH   2   7
HETATM    7  C13 UNK     1      13.237   6.961   7.178  1.00  0.00     0.312 C 
BRANCH   7   8
HETATM    8  C14 UNK     1      14.189   6.638   8.275  1.00  0.00    -0.011 A 
HETATM    9  C15 UNK     1      14.880   7.720   8.989  1.00  0.00     0.009 A 
HETATM   10  C17 UNK     1      15.767   7.386  10.014  1.00  0.00     0.090 A 
HETATM   11  C18 UNK     1      14.702   9.080   8.702  1.00  0.00     0.051 A 
HETATM   12  O2  UNK     1      16.001   6.041  10.365  1.00  0.00    -0.275 OA
HETATM   13  C20 UNK     1      16.464   8.353  10.742  1.00  0.00     0.041 A 
HETATM   14  C19 UNK     1      15.363   4.999   9.710  1.00  0.00     0.288 A 
HETATM   15  C16 UNK     1      14.431   5.368   8.632  1.00  0.00     0.092 A 
HETATM   16  O4  UNK     1      15.558   3.826  10.008  1.00  0.00    -0.260 OA
HETATM   17  C22 UNK     1      16.273   9.696  10.441  1.00  0.00     0.039 A 
HETATM   18  C21 UNK     1      15.394  10.060   9.424  1.00  0.00     0.069 A 
BRANCH  18  19
HETATM   19  O3  UNK     1      15.206  11.377   9.129  1.00  0.00    -0.351 OA
BRANCH  19  20
HETATM   20  C23 UNK     1      15.450  11.782   7.783  1.00  0.00     0.171 C 
HETATM   21  C24 UNK     1      16.935  12.004   7.597  1.00  0.00     0.034 C 
ENDBRANCH  19  20
ENDBRANCH  18  19
ENDBRANCH   7   8
ENDBRANCH   2   7
BRANCH   1  22
HETATM   22  C10 UNK     1       7.637   6.726   7.927  1.00  0.00     0.374 C 
BRANCH  22  23
HETATM   23  C11 UNK     1       7.593   5.684   9.017  1.00  0.00     0.248 C 
HETATM   24  O1  UNK     1       7.917   4.524   8.755  1.00  0.00    -0.271 OA
HETATM   25  N1  UNK     1       7.176   6.115  10.276  1.00  0.00    -0.351 N 
HETATM   26  C4  UNK     1       7.144   5.172  11.395  1.00  0.00     0.126 C 
HETATM   27  C5  UNK     1       6.784   7.488  10.618  1.00  0.00     0.126 C 
HETATM   28  C2  UNK     1       5.763   5.148  12.046  1.00  0.00     0.024 C 
HETATM   29  C1  UNK     1       5.317   6.559  12.458  1.00  0.00    -0.015 C 
HETATM   30  C3  UNK     1       5.396   7.512  11.255  1.00  0.00     0.024 C 
HETATM   31  C12 UNK     1       3.906   6.536  13.041  1.00  0.00     0.010 C 
ENDBRANCH  22  23
ENDBRANCH   1  22
TORSDOF 6
ENDMDL
MODEL 6
REMARK VINA RESULT:      -8.5     14.289     17.635
REMARK  6 active torsions:
REMARK  status: ('A' for Active; 'I' for Inactive)
REMARK    1  A    between atoms: C21_28  and  O3_3 
REMARK    2  A    between atoms: C23_30  and  O3_3 
REMARK       I    between atoms: C11_18  and  N1_5 
REMARK    3  A    between atoms: C10_17  and  N2_6 
REMARK    4  A    between atoms: C13_20  and  N3_7 
REMARK    5  A    between atoms: C10_17  and  C11_18 
REMARK    6  A    between atoms: C13_20  and  C14_21 
ROOT
HETATM    1  N2  UNK     1      31.322  -8.988  33.893  1.00  0.00     0.100 N 
HETATM    2  N3  UNK     1      31.159  -9.821  36.658  1.00  0.00     0.096 N 
HETATM    3  C6  UNK     1      32.494  -9.520  34.599  1.00  0.00     0.303 C 
HETATM    4  C7  UNK     1      30.088  -9.562  34.445  1.00  0.00     0.303 C 
HETATM    5  C8  UNK     1      32.393  -9.248  36.104  1.00  0.00     0.303 C 
HETATM    6  C9  UNK     1      29.986  -9.291  35.950  1.00  0.00     0.303 C 
ENDROOT
BRANCH   2   7
HETATM    7  C13 UNK     1      31.063  -9.558  38.092  1.00  0.00     0.312 C 
BRANCH   7   8
HETATM    8  C14 UNK     1      29.866  -8.740  38.433  1.00  0.00    -0.011 A 
HETATM    9  C15 UNK     1      29.946  -7.274  38.396  1.00  0.00     0.009 A 
HETATM   10  C17 UNK     1      28.807  -6.534  38.720  1.00  0.00     0.090 A 
HETATM   11  C18 UNK     1      31.104  -6.565  38.052  1.00  0.00     0.051 A 
HETATM   12  O2  UNK     1      27.602  -7.171  39.076  1.00  0.00    -0.275 OA
HETATM   13  C20 UNK     1      28.797  -5.137  38.709  1.00  0.00     0.041 A 
HETATM   14  C19 UNK     1      27.497  -8.552  39.119  1.00  0.00     0.288 A 
HETATM   15  C16 UNK     1      28.706  -9.318  38.774  1.00  0.00     0.092 A 
HETATM   16  O4  UNK     1      26.452  -9.116  39.426  1.00  0.00    -0.260 OA
HETATM   17  C22 UNK     1      29.958  -4.453  38.365  1.00  0.00     0.039 A 
HETATM   18  C21 UNK     1      31.109  -5.165  38.037  1.00  0.00     0.069 A 
BRANCH  18  19
HETATM   19  O3  UNK     1      32.247  -4.496  37.699  1.00  0.00    -0.351 OA
BRANCH  19  20
HETATM   20  C23 UNK     1      32.177  -3.629  36.567  1.00  0.00     0.171 C 
HETATM   21  C24 UNK     1      32.333  -4.451  35.306  1.00  0.00     0.034 C 
ENDBRANCH  19  20
ENDBRANCH  18  19
ENDBRANCH   7   8
ENDBRANCH   2   7
BRANCH   1  22
HETATM   22  C10 UNK     1      31.419  -9.249  32.458  1.00  0.00     0.374 C 
BRANCH  22  23
HETATM   23  C11 UNK     1      31.226  -7.988  31.654  1.00  0.00     0.248 C 
HETATM   24  O1  UNK     1      32.052  -7.078  31.753  1.00  0.00    -0.271 OA
HETATM   25  N1  UNK     1      30.098  -7.935  30.835  1.00  0.00    -0.351 N 
HETATM   26  C4  UNK     1      29.862  -6.760  29.995  1.00  0.00     0.126 C 
HETATM   27  C5  UNK     1      29.098  -9.001  30.697  1.00  0.00     0.126 C 
HETATM   28  C2  UNK     1      28.474  -6.176  30.252  1.00  0.00     0.024 C 
HETATM   29  C1  UNK     1      27.383  -7.244  30.084  1.00  0.00    -0.015 C 
HETATM   30  C3  UNK     1      27.693  -8.463  30.967  1.00  0.00     0.024 C 
HETATM   31  C12 UNK     1      26.007  -6.671  30.415  1.00  0.00     0.010 C 
ENDBRANCH  22  23
ENDBRANCH   1  22
TORSDOF 6
ENDMDL
MODEL 7
REMARK VINA RESULT:      -8.4      5.198     10.691
REMARK  6 active torsions:
REMARK  status: ('A' for Active; 'I' for Inactive)
REMARK    1  A    between atoms: C21_28  and  O3_3 
REMARK    2  A    between atoms: C23_30  and  O3_3 
REMARK       I    between atoms: C11_18  and  N1_5 
REMARK    3  A    between atoms: C10_17  and  N2_6 
REMARK    4  A    between atoms: C13_20  and  N3_7 
REMARK    5  A    between atoms: C10_17  and  C11_18 
REMARK    6  A    between atoms: C13_20  and  C14_21 
ROOT
HETATM    1  N2  UNK     1      19.737  -3.703  36.591  1.00  0.00     0.100 N 
HETATM    2  N3  UNK     1      18.978  -1.698  34.650  1.00  0.00     0.096 N 
HETATM    3  C6  UNK     1      18.482  -2.951  36.722  1.00  0.00     0.303 C 
HETATM    4  C7  UNK     1      20.113  -3.830  35.178  1.00  0.00     0.303 C 
HETATM    5  C8  UNK     1      18.602  -1.572  36.064  1.00  0.00     0.303 C 
HETATM    6  C9  UNK     1      20.232  -2.451  34.518  1.00  0.00     0.303 C 
ENDROOT
BRANCH   2   7
HETATM    7  C13 UNK     1      19.094  -0.382  34.024  1.00  0.00     0.312 C 
BRANCH   7   8
HETATM    8  C14 UNK     1      19.352  -0.478  32.561  1.00  0.00    -0.011 A 
HETATM    9  C15 UNK     1      19.029   0.656  31.684  1.00  0.00     0.009 A 
HETATM   10  C17 UNK     1      19.283   0.537  30.316  1.00  0.00     0.090 A 
HETATM   11  C18 UNK     1      18.477   1.860  32.140  1.00  0.00     0.051 A 
HETATM   12  O2  UNK     1      19.838  -0.641  29.778  1.00  0.00    -0.275 OA
HETATM   13  C20 UNK     1      19.005   1.566  29.414  1.00  0.00     0.041 A 
HETATM   14  C19 UNK     1      20.154  -1.726  30.581  1.00  0.00     0.288 A 
HETATM   15  C16 UNK     1      19.881  -1.585  32.021  1.00  0.00     0.092 A 
HETATM   16  O4  UNK     1      20.638  -2.756  30.123  1.00  0.00    -0.260 OA
HETATM   17  C22 UNK     1      18.457   2.753  29.887  1.00  0.00     0.039 A 
HETATM   18  C21 UNK     1      18.193   2.900  31.247  1.00  0.00     0.069 A 
BRANCH  18  19
HETATM   19  O3  UNK     1      17.657   4.063  31.711  1.00  0.00    -0.351 OA
BRANCH  19  20
HETATM   20  C23 UNK     1      18.398   4.767  32.707  1.00  0.00     0.171 C 
HETATM   21  C24 UNK     1      19.167   5.892  32.047  1.00  0.00     0.034 C 
ENDBRANCH  19  20
ENDBRANCH  18  19
ENDBRANCH   7   8
ENDBRANCH   2   7
BRANCH   1  22
HETATM   22  C10 UNK     1      19.622  -5.018  37.218  1.00  0.00     0.374 C 
BRANCH  22  23
HETATM   23  C11 UNK     1      20.976  -5.638  37.452  1.00  0.00     0.248 C 
HETATM   24  O1  UNK     1      21.965  -4.908  37.551  1.00  0.00    -0.271 OA
HETATM   25  N1  UNK     1      21.019  -7.030  37.538  1.00  0.00    -0.351 N 
HETATM   26  C4  UNK     1      22.291  -7.705  37.802  1.00  0.00     0.126 C 
HETATM   27  C5  UNK     1      19.861  -7.925  37.423  1.00  0.00     0.126 C 
HETATM   28  C2  UNK     1      22.580  -8.758  36.735  1.00  0.00     0.024 C 
HETATM   29  C1  UNK     1      21.411  -9.746  36.598  1.00  0.00    -0.015 C 
HETATM   30  C3  UNK     1      20.100  -8.984  36.349  1.00  0.00     0.024 C 
HETATM   31  C12 UNK     1      21.677 -10.750  35.479  1.00  0.00     0.010 C 
ENDBRANCH  22  23
ENDBRANCH   1  22
TORSDOF 6
ENDMDL
MODEL 8
REMARK VINA RESULT:      -8.4     14.886     17.831
REMARK  6 active torsions:
REMARK  status: ('A' for Active; 'I' for Inactive)
REMARK    1  A    between atoms: C21_28  and  O3_3 
REMARK    2  A    between atoms: C23_30  and  O3_3 
REMARK       I    between atoms: C11_18  and  N1_5 
REMARK    3  A    between atoms: C10_17  and  N2_6 
REMARK    4  A    between atoms: C13_20  and  N3_7 
REMARK    5  A    between atoms: C10_17  and  C11_18 
REMARK    6  A    between atoms: C13_20  and  C14_21 
ROOT
HETATM    1  N2  UNK     1      29.481  -9.188  34.355  1.00  0.00     0.100 N 
HETATM    2  N3  UNK     1      30.388  -8.707  37.059  1.00  0.00     0.096 N 
HETATM    3  C6  UNK     1      30.549  -9.997  34.956  1.00  0.00     0.303 C 
HETATM    4  C7  UNK     1      28.563  -8.701  35.391  1.00  0.00     0.303 C 
HETATM    5  C8  UNK     1      31.306  -9.195  36.021  1.00  0.00     0.303 C 
HETATM    6  C9  UNK     1      29.318  -7.900  36.458  1.00  0.00     0.303 C 
ENDROOT
BRANCH   2   7
HETATM    7  C13 UNK     1      31.110  -7.940  38.072  1.00  0.00     0.312 C 
BRANCH   7   8
HETATM    8  C14 UNK     1      30.786  -6.488  38.012  1.00  0.00    -0.011 A 
HETATM    9  C15 UNK     1      31.627  -5.582  37.218  1.00  0.00     0.009 A 
HETATM   10  C17 UNK     1      31.298  -4.226  37.180  1.00  0.00     0.090 A 
HETATM   11  C18 UNK     1      32.749  -5.999  36.489  1.00  0.00     0.051 A 
HETATM   12  O2  UNK     1      30.185  -3.726  37.885  1.00  0.00    -0.275 OA
HETATM   13  C20 UNK     1      32.045  -3.298  36.450  1.00  0.00     0.041 A 
HETATM   14  C19 UNK     1      29.374  -4.557  38.641  1.00  0.00     0.288 A 
HETATM   15  C16 UNK     1      29.733  -5.985  38.671  1.00  0.00     0.092 A 
HETATM   16  O4  UNK     1      28.402  -4.133  39.258  1.00  0.00    -0.260 OA
HETATM   17  C22 UNK     1      33.154  -3.733  35.734  1.00  0.00     0.039 A 
HETATM   18  C21 UNK     1      33.506  -5.080  35.752  1.00  0.00     0.069 A 
BRANCH  18  19
HETATM   19  O3  UNK     1      34.592  -5.507  35.050  1.00  0.00    -0.351 OA
BRANCH  19  20
HETATM   20  C23 UNK     1      35.659  -6.091  35.796  1.00  0.00     0.171 C 
HETATM   21  C24 UNK     1      36.373  -7.102  34.925  1.00  0.00     0.034 C 
ENDBRANCH  19  20
ENDBRANCH  18  19
ENDBRANCH   7   8
ENDBRANCH   2   7
BRANCH   1  22
HETATM   22  C10 UNK     1      28.760  -9.954  33.340  1.00  0.00     0.374 C 
BRANCH  22  23
HETATM   23  C11 UNK     1      29.275  -9.656  31.954  1.00  0.00     0.248 C 
HETATM   24  O1  UNK     1      30.017 -10.469  31.399  1.00  0.00    -0.271 OA
HETATM   25  N1  UNK     1      28.870  -8.449  31.384  1.00  0.00    -0.351 N 
HETATM   26  C4  UNK     1      29.296  -8.105  30.027  1.00  0.00     0.126 C 
HETATM   27  C5  UNK     1      27.989  -7.461  32.021  1.00  0.00     0.126 C 
HETATM   28  C2  UNK     1      29.979  -6.740  30.000  1.00  0.00     0.024 C 
HETATM   29  C1  UNK     1      29.083  -5.658  30.624  1.00  0.00    -0.015 C 
HETATM   30  C3  UNK     1      28.644  -6.081  32.034  1.00  0.00     0.024 C 
HETATM   31  C12 UNK     1      29.802  -4.312  30.660  1.00  0.00     0.010 C 
ENDBRANCH  22  23
ENDBRANCH   1  22
TORSDOF 6
ENDMDL
MODEL 9
REMARK VINA RESULT:      -8.4     13.105     17.088
REMARK  6 active torsions:
REMARK  status: ('A' for Active; 'I' for Inactive)
REMARK    1  A    between atoms: C21_28  and  O3_3 
REMARK    2  A    between atoms: C23_30  and  O3_3 
REMARK       I    between atoms: C11_18  and  N1_5 
REMARK    3  A    between atoms: C10_17  and  N2_6 
REMARK    4  A    between atoms: C13_20  and  N3_7 
REMARK    5  A    between atoms: C10_17  and  C11_18 
REMARK    6  A    between atoms: C13_20  and  C14_21 
ROOT
HETATM    1  N2  UNK     1      29.630  -9.002  38.153  1.00  0.00     0.100 N 
HETATM    2  N3  UNK     1      26.828  -9.350  37.529  1.00  0.00     0.096 N 
HETATM    3  C6  UNK     1      28.787  -9.925  38.923  1.00  0.00     0.303 C 
HETATM    4  C7  UNK     1      29.136  -8.884  36.776  1.00  0.00     0.303 C 
HETATM    5  C8  UNK     1      27.324  -9.468  38.907  1.00  0.00     0.303 C 
HETATM    6  C9  UNK     1      27.672  -8.429  36.758  1.00  0.00     0.303 C 
ENDROOT
BRANCH   2   7
HETATM    7  C13 UNK     1      25.434  -8.912  37.515  1.00  0.00     0.312 C 
BRANCH   7   8
HETATM    8  C14 UNK     1      24.553  -9.868  36.789  1.00  0.00    -0.011 A 
HETATM    9  C15 UNK     1      23.146  -9.526  36.541  1.00  0.00     0.009 A 
HETATM   10  C17 UNK     1      22.345 -10.441  35.857  1.00  0.00     0.090 A 
HETATM   11  C18 UNK     1      22.553  -8.325  36.954  1.00  0.00     0.051 A 
HETATM   12  O2  UNK     1      22.866 -11.671  35.409  1.00  0.00    -0.275 OA
HETATM   13  C20 UNK     1      20.998 -10.194  35.582  1.00  0.00     0.041 A 
HETATM   14  C19 UNK     1      24.189 -12.021  35.626  1.00  0.00     0.288 A 
HETATM   15  C16 UNK     1      25.021 -11.045  36.349  1.00  0.00     0.092 A 
HETATM   16  O4  UNK     1      24.652 -13.089  35.239  1.00  0.00    -0.260 OA
HETATM   17  C22 UNK     1      20.429  -8.997  36.000  1.00  0.00     0.039 A 
HETATM   18  C21 UNK     1      21.204  -8.064  36.684  1.00  0.00     0.069 A 
BRANCH  18  19
HETATM   19  O3  UNK     1      20.647  -6.889  37.093  1.00  0.00    -0.351 OA
BRANCH  19  20
HETATM   20  C23 UNK     1      19.564  -6.973  38.018  1.00  0.00     0.171 C 
HETATM   21  C24 UNK     1      20.072  -6.638  39.404  1.00  0.00     0.034 C 
ENDBRANCH  19  20
ENDBRANCH  18  19
ENDBRANCH   7   8
ENDBRANCH   2   7
BRANCH   1  22
HETATM   22  C10 UNK     1      31.025  -9.438  38.169  1.00  0.00     0.374 C 
BRANCH  22  23
HETATM   23  C11 UNK     1      31.959  -8.315  37.793  1.00  0.00     0.248 C 
HETATM   24  O1  UNK     1      32.097  -7.363  38.563  1.00  0.00    -0.271 OA
HETATM   25  N1  UNK     1      32.616  -8.434  36.568  1.00  0.00    -0.351 N 
HETATM   26  C4  UNK     1      33.568  -7.404  36.150  1.00  0.00     0.126 C 
HETATM   27  C5  UNK     1      32.472  -9.554  35.631  1.00  0.00     0.126 C 
HETATM   28  C2  UNK     1      33.206  -6.855  34.771  1.00  0.00     0.024 C 
HETATM   29  C1  UNK     1      33.078  -7.987  33.740  1.00  0.00    -0.015 C 
HETATM   30  C3  UNK     1      32.089  -9.051  34.240  1.00  0.00     0.024 C 
HETATM   31  C12 UNK     1      32.644  -7.438  32.382  1.00  0.00     0.010 C 
ENDBRANCH  22  23
ENDBRANCH   1  22
TORSDOF 6
ENDMDL
MODEL 10
REMARK VINA RESULT:      -8.3     14.599     17.534
REMARK  6 active torsions:
REMARK  status: ('A' for Active; 'I' for Inactive)
REMARK    1  A    between atoms: C21_28  and  O3_3 
REMARK    2  A    between atoms: C23_30  and  O3_3 
REMARK       I    between atoms: C11_18  and  N1_5 
REMARK    3  A    between atoms: C10_17  and  N2_6 
REMARK    4  A    between atoms: C13_20  and  N3_7 
REMARK    5  A    between atoms: C10_17  and  C11_18 
REMARK    6  A    between atoms: C13_20  and  C14_21 
ROOT
HETATM    1  N2  UNK     1      32.006  -9.431  33.119  1.00  0.00     0.100 N 
HETATM    2  N3  UNK     1      32.360  -7.560  35.296  1.00  0.00     0.096 N 
HETATM    3  C6  UNK     1      30.981  -8.428  33.437  1.00  0.00     0.303 C 
HETATM    4  C7  UNK     1      33.337  -8.938  33.491  1.00  0.00     0.303 C 
HETATM    5  C8  UNK     1      31.028  -8.054  34.923  1.00  0.00     0.303 C 
HETATM    6  C9  UNK     1      33.385  -8.562  34.977  1.00  0.00     0.303 C 
ENDROOT
BRANCH   2   7
HETATM    7  C13 UNK     1      32.404  -7.206  36.714  1.00  0.00     0.312 C 
BRANCH   7   8
HETATM    8  C14 UNK     1      31.758  -5.893  36.984  1.00  0.00    -0.011 A 
HETATM    9  C15 UNK     1      30.508  -5.836  37.754  1.00  0.00     0.009 A 
HETATM   10  C17 UNK     1      29.925  -4.590  37.993  1.00  0.00     0.090 A 
HETATM   11  C18 UNK     1      29.858  -6.965  38.269  1.00  0.00     0.051 A 
HETATM   12  O2  UNK     1      30.517  -3.405  37.510  1.00  0.00    -0.275 OA
HETATM   13  C20 UNK     1      28.738  -4.447  38.715  1.00  0.00     0.041 A 
HETATM   14  C19 UNK     1      31.696  -3.428  36.782  1.00  0.00     0.288 A 
HETATM   15  C16 UNK     1      32.297  -4.750  36.539  1.00  0.00     0.092 A 
HETATM   16  O4  UNK     1      32.219  -2.403  36.358  1.00  0.00    -0.260 OA
HETATM   17  C22 UNK     1      28.110  -5.581  39.217  1.00  0.00     0.039 A 
HETATM   18  C21 UNK     1      28.668  -6.838  38.995  1.00  0.00     0.069 A 
BRANCH  18  19
HETATM   19  O3  UNK     1      28.053  -7.949  39.488  1.00  0.00    -0.351 OA
BRANCH  19  20
HETATM   20  C23 UNK     1      28.122  -9.134  38.696  1.00  0.00     0.171 C 
HETATM   21  C24 UNK     1      27.534 -10.286  39.481  1.00  0.00     0.034 C 
ENDBRANCH  19  20
ENDBRANCH  18  19
ENDBRANCH   7   8
ENDBRANCH   2   7
BRANCH   1  22
HETATM   22  C10 UNK     1      31.961  -9.787  31.702  1.00  0.00     0.374 C 
BRANCH  22  23
HETATM   23  C11 UNK     1      31.691  -8.580  30.839  1.00  0.00     0.248 C 
HETATM   24  O1  UNK     1      32.581  -7.743  30.678  1.00  0.00    -0.271 OA
HETATM   25  N1  UNK     1      30.420  -8.491  30.270  1.00  0.00    -0.351 N 
HETATM   26  C4  UNK     1      30.093  -7.369  29.389  1.00  0.00     0.126 C 
HETATM   27  C5  UNK     1      29.340  -9.471  30.444  1.00  0.00     0.126 C 
HETATM   28  C2  UNK     1      28.838  -6.645  29.871  1.00  0.00     0.024 C 
HETATM   29  C1  UNK     1      27.663  -7.621  30.035  1.00  0.00    -0.015 C 
HETATM   30  C3  UNK     1      28.068  -8.791  30.946  1.00  0.00     0.024 C 
HETATM   31  C12 UNK     1      26.433  -6.904  30.587  1.00  0.00     0.010 C 
ENDBRANCH  22  23
ENDBRANCH   1  22
TORSDOF 6
ENDMDL
