MODEL 1
REMARK VINA RESULT:      -8.8      0.000      0.000
REMARK  6 active torsions:
REMARK  status: ('A' for Active; 'I' for Inactive)
REMARK    1  A    between atoms: C13_17  and  O2_2 
REMARK    2  A    between atoms: C15_19  and  O2_2 
REMARK    3  A    between atoms: C1_5  and  C2_6 
REMARK    4  A    between atoms: C2_6  and  C3_7 
REMARK    5  A    between atoms: C15_19  and  C16_20 
REMARK    6  A    between atoms: C16_20  and  C17_21 
ROOT
HETATM    1  O1  UNK     1      16.611   7.875  31.543  1.00  0.00    -0.274 OA
HETATM    2  O3  UNK     1      15.189   9.443  32.363  1.00  0.00    -0.259 OA
HETATM    3  C3  UNK     1      17.180   9.065  33.617  1.00  0.00     0.025 A 
HETATM    4  C4  UNK     1      18.320   8.354  33.748  1.00  0.00    -0.037 A 
HETATM    5  C5  UNK     1      18.680   7.361  32.715  1.00  0.00     0.005 A 
HETATM    6  C8  UNK     1      17.810   7.154  31.648  1.00  0.00     0.092 A 
HETATM    7  C9  UNK     1      16.246   8.830  32.477  1.00  0.00     0.295 A 
HETATM    8  C10 UNK     1      19.267   8.500  34.913  1.00  0.00     0.050 C 
HETATM    9  C11 UNK     1      19.862   6.605  32.731  1.00  0.00     0.017 A 
HETATM   10  C12 UNK     1      18.074   6.234  30.630  1.00  0.00     0.075 A 
HETATM   11  C13 UNK     1      19.248   5.493  30.670  1.00  0.00     0.072 A 
HETATM   12  C14 UNK     1      20.143   5.680  31.719  1.00  0.00     0.038 A 
ENDROOT
BRANCH  11  13
HETATM   13  O2  UNK     1      19.524   4.593  29.688  1.00  0.00    -0.344 OA
BRANCH  13  14
HETATM   14  C15 UNK     1      18.482   3.689  29.324  1.00  0.00     0.259 C 
BRANCH  14  15
HETATM   15  C16 UNK     1      18.279   2.661  30.419  1.00  0.00     0.183 C 
HETATM   16  O4  UNK     1      17.590   2.897  31.408  1.00  0.00    -0.290 OA
BRANCH  15  17
HETATM   17  C17 UNK     1      18.943   1.331  30.286  1.00  0.00     0.012 A 
HETATM   18  C18 UNK     1      19.184   0.595  31.425  1.00  0.00     0.016 A 
HETATM   19  C21 UNK     1      19.807  -0.647  31.298  1.00  0.00     0.007 A 
HETATM   20  C20 UNK     1      20.172  -1.120  30.038  1.00  0.00    -0.062 A 
HETATM   21  C22 UNK     1      19.914  -0.351  28.904  1.00  0.00     0.007 A 
HETATM   22  C23 UNK     1      20.835  -2.449  29.903  1.00  0.00     0.048 C 
HETATM   23  C19 UNK     1      19.291   0.891  29.028  1.00  0.00     0.016 A 
ENDBRANCH  15  17
ENDBRANCH  14  15
ENDBRANCH  13  14
ENDBRANCH  11  13
BRANCH   3  24
HETATM   24  C2  UNK     1      16.726  10.150  34.560  1.00  0.00     0.049 C 
BRANCH  24  25
HETATM   25  C1  UNK     1      16.969  11.557  34.002  1.00  0.00    -0.018 C 
HETATM   26  C6  UNK     1      18.399  12.043  34.254  1.00  0.00     0.010 C 
HETATM   27  C7  UNK     1      15.973  12.532  34.632  1.00  0.00     0.010 C 
ENDBRANCH  24  25
ENDBRANCH   3  24
TORSDOF 6
ENDMDL
MODEL 2
REMARK VINA RESULT:      -8.8      5.434      7.881
REMARK  6 active torsions:
REMARK  status: ('A' for Active; 'I' for Inactive)
REMARK    1  A    between atoms: C13_17  and  O2_2 
REMARK    2  A    between atoms: C15_19  and  O2_2 
REMARK    3  A    between atoms: C1_5  and  C2_6 
REMARK    4  A    between atoms: C2_6  and  C3_7 
REMARK    5  A    between atoms: C15_19  and  C16_20 
REMARK    6  A    between atoms: C16_20  and  C17_21 
ROOT
HETATM    1  O1  UNK     1      18.371   1.147  31.974  1.00  0.00    -0.274 OA
HETATM    2  O3  UNK     1      18.411   2.444  30.112  1.00  0.00    -0.259 OA
HETATM    3  C3  UNK     1      18.336   3.594  32.197  1.00  0.00     0.025 A 
HETATM    4  C4  UNK     1      18.262   3.502  33.542  1.00  0.00    -0.037 A 
HETATM    5  C5  UNK     1      18.278   2.169  34.180  1.00  0.00     0.005 A 
HETATM    6  C8  UNK     1      18.330   1.037  33.372  1.00  0.00     0.092 A 
HETATM    7  C9  UNK     1      18.378   2.376  31.336  1.00  0.00     0.295 A 
HETATM    8  C10 UNK     1      18.147   4.695  34.458  1.00  0.00     0.050 C 
HETATM    9  C11 UNK     1      18.254   1.963  35.568  1.00  0.00     0.017 A 
HETATM   10  C12 UNK     1      18.348  -0.260  33.893  1.00  0.00     0.075 A 
HETATM   11  C13 UNK     1      18.318  -0.439  35.271  1.00  0.00     0.072 A 
HETATM   12  C14 UNK     1      18.272   0.672  36.108  1.00  0.00     0.038 A 
ENDROOT
BRANCH  11  13
HETATM   13  O2  UNK     1      18.336  -1.692  35.799  1.00  0.00    -0.344 OA
BRANCH  13  14
HETATM   14  C15 UNK     1      19.530  -2.099  36.466  1.00  0.00     0.259 C 
BRANCH  14  15
HETATM   15  C16 UNK     1      20.022  -3.415  35.895  1.00  0.00     0.183 C 
HETATM   16  O4  UNK     1      20.435  -3.504  34.742  1.00  0.00    -0.290 OA
BRANCH  15  17
HETATM   17  C17 UNK     1      19.996  -4.628  36.764  1.00  0.00     0.012 A 
HETATM   18  C18 UNK     1      18.974  -5.536  36.600  1.00  0.00     0.016 A 
HETATM   19  C21 UNK     1      18.949  -6.669  37.415  1.00  0.00     0.007 A 
HETATM   20  C20 UNK     1      19.946  -6.863  38.370  1.00  0.00    -0.062 A 
HETATM   21  C22 UNK     1      20.969  -5.924  38.511  1.00  0.00     0.007 A 
HETATM   22  C23 UNK     1      19.922  -8.075  39.239  1.00  0.00     0.048 C 
HETATM   23  C19 UNK     1      20.994  -4.791  37.697  1.00  0.00     0.016 A 
ENDBRANCH  15  17
ENDBRANCH  14  15
ENDBRANCH  13  14
ENDBRANCH  11  13
BRANCH   3  24
HETATM   24  C2  UNK     1      18.393   4.887  31.423  1.00  0.00     0.049 C 
BRANCH  24  25
HETATM   25  C1  UNK     1      19.826   5.390  31.217  1.00  0.00    -0.018 C 
HETATM   26  C6  UNK     1      20.226   6.444  32.253  1.00  0.00     0.010 C 
HETATM   27  C7  UNK     1      19.962   5.972  29.809  1.00  0.00     0.010 C 
ENDBRANCH  24  25
ENDBRANCH   3  24
TORSDOF 6
ENDMDL
MODEL 3
REMARK VINA RESULT:      -8.5      8.139     14.794
REMARK  6 active torsions:
REMARK  status: ('A' for Active; 'I' for Inactive)
REMARK    1  A    between atoms: C13_17  and  O2_2 
REMARK    2  A    between atoms: C15_19  and  O2_2 
REMARK    3  A    between atoms: C1_5  and  C2_6 
REMARK    4  A    between atoms: C2_6  and  C3_7 
REMARK    5  A    between atoms: C15_19  and  C16_20 
REMARK    6  A    between atoms: C16_20  and  C17_21 
ROOT
HETATM    1  O1  UNK     1      20.896  -8.008  34.826  1.00  0.00    -0.274 OA
HETATM    2  O3  UNK     1      21.679  -9.993  34.052  1.00  0.00    -0.259 OA
HETATM    3  C3  UNK     1      21.925  -9.602  36.389  1.00  0.00     0.025 A 
HETATM    4  C4  UNK     1      21.757  -8.747  37.420  1.00  0.00    -0.037 A 
HETATM    5  C5  UNK     1      21.087  -7.450  37.186  1.00  0.00     0.005 A 
HETATM    6  C8  UNK     1      20.682  -7.125  35.895  1.00  0.00     0.092 A 
HETATM    7  C9  UNK     1      21.500  -9.242  35.005  1.00  0.00     0.295 A 
HETATM    8  C10 UNK     1      22.228  -9.028  38.825  1.00  0.00     0.050 C 
HETATM    9  C11 UNK     1      20.821  -6.512  38.195  1.00  0.00     0.017 A 
HETATM   10  C12 UNK     1      20.044  -5.921  35.588  1.00  0.00     0.075 A 
HETATM   11  C13 UNK     1      19.795  -5.005  36.602  1.00  0.00     0.072 A 
HETATM   12  C14 UNK     1      20.182  -5.301  37.906  1.00  0.00     0.038 A 
ENDROOT
BRANCH  11  13
HETATM   13  O2  UNK     1      19.175  -3.827  36.325  1.00  0.00    -0.344 OA
BRANCH  13  14
HETATM   14  C15 UNK     1      19.976  -2.646  36.360  1.00  0.00     0.259 C 
BRANCH  14  15
HETATM   15  C16 UNK     1      19.384  -1.589  35.448  1.00  0.00     0.183 C 
HETATM   16  O4  UNK     1      18.702  -0.667  35.888  1.00  0.00    -0.290 OA
BRANCH  15  17
HETATM   17  C17 UNK     1      19.639  -1.682  33.981  1.00  0.00     0.012 A 
HETATM   18  C18 UNK     1      18.845  -0.954  33.125  1.00  0.00     0.016 A 
HETATM   19  C21 UNK     1      19.083  -1.044  31.753  1.00  0.00     0.007 A 
HETATM   20  C20 UNK     1      20.109  -1.860  31.275  1.00  0.00    -0.062 A 
HETATM   21  C22 UNK     1      20.896  -2.585  32.169  1.00  0.00     0.007 A 
HETATM   22  C23 UNK     1      20.365  -1.954  29.808  1.00  0.00     0.048 C 
HETATM   23  C19 UNK     1      20.659  -2.496  33.540  1.00  0.00     0.016 A 
ENDBRANCH  15  17
ENDBRANCH  14  15
ENDBRANCH  13  14
ENDBRANCH  11  13
BRANCH   3  24
HETATM   24  C2  UNK     1      22.532 -10.978  36.499  1.00  0.00     0.049 C 
BRANCH  24  25
HETATM   25  C1  UNK     1      23.907 -11.073  35.831  1.00  0.00    -0.018 C 
HETATM   26  C6  UNK     1      24.419 -12.514  35.756  1.00  0.00     0.010 C 
HETATM   27  C7  UNK     1      24.907 -10.209  36.603  1.00  0.00     0.010 C 
ENDBRANCH  24  25
ENDBRANCH   3  24
TORSDOF 6
ENDMDL
MODEL 4
REMARK VINA RESULT:      -8.4      1.704      9.767
REMARK  6 active torsions:
REMARK  status: ('A' for Active; 'I' for Inactive)
REMARK    1  A    between atoms: C13_17  and  O2_2 
REMARK    2  A    between atoms: C15_19  and  O2_2 
REMARK    3  A    between atoms: C1_5  and  C2_6 
REMARK    4  A    between atoms: C2_6  and  C3_7 
REMARK    5  A    between atoms: C15_19  and  C16_20 
REMARK    6  A    between atoms: C16_20  and  C17_21 
ROOT
HETATM    1  O1  UNK     1      18.116   1.936  33.280  1.00  0.00    -0.274 OA
HETATM    2  O3  UNK     1      18.148  -0.230  33.957  1.00  0.00    -0.259 OA
HETATM    3  C3  UNK     1      18.817   0.182  31.708  1.00  0.00     0.025 A 
HETATM    4  C4  UNK     1      18.989   1.089  30.723  1.00  0.00    -0.037 A 
HETATM    5  C5  UNK     1      18.755   2.521  31.007  1.00  0.00     0.005 A 
HETATM    6  C8  UNK     1      18.324   2.894  32.276  1.00  0.00     0.092 A 
HETATM    7  C9  UNK     1      18.342   0.587  33.063  1.00  0.00     0.295 A 
HETATM    8  C10 UNK     1      19.399   0.730  29.317  1.00  0.00     0.050 C 
HETATM    9  C11 UNK     1      18.950   3.548  30.070  1.00  0.00     0.017 A 
HETATM   10  C12 UNK     1      18.080   4.225  32.627  1.00  0.00     0.075 A 
HETATM   11  C13 UNK     1      18.274   5.224  31.681  1.00  0.00     0.072 A 
HETATM   12  C14 UNK     1      18.711   4.886  30.404  1.00  0.00     0.038 A 
ENDROOT
BRANCH  11  13
HETATM   13  O2  UNK     1      18.043   6.525  32.002  1.00  0.00    -0.344 OA
BRANCH  13  14
HETATM   14  C15 UNK     1      16.792   6.830  32.618  1.00  0.00     0.259 C 
BRANCH  14  15
HETATM   15  C16 UNK     1      16.254   8.142  32.081  1.00  0.00     0.183 C 
HETATM   16  O4  UNK     1      16.218   8.381  30.877  1.00  0.00    -0.290 OA
BRANCH  15  17
HETATM   17  C17 UNK     1      15.763   9.165  33.050  1.00  0.00     0.012 A 
HETATM   18  C18 UNK     1      14.405   9.343  33.192  1.00  0.00     0.016 A 
HETATM   19  C21 UNK     1      13.947  10.302  34.096  1.00  0.00     0.007 A 
HETATM   20  C20 UNK     1      14.858  11.057  34.834  1.00  0.00    -0.062 A 
HETATM   21  C22 UNK     1      16.228  10.853  34.668  1.00  0.00     0.007 A 
HETATM   22  C23 UNK     1      14.368  12.080  35.802  1.00  0.00     0.048 C 
HETATM   23  C19 UNK     1      16.687   9.895  33.764  1.00  0.00     0.016 A 
ENDBRANCH  15  17
ENDBRANCH  14  15
ENDBRANCH  13  14
ENDBRANCH  11  13
BRANCH   3  24
HETATM   24  C2  UNK     1      19.081  -1.297  31.574  1.00  0.00     0.049 C 
BRANCH  24  25
HETATM   25  C1  UNK     1      20.569  -1.618  31.399  1.00  0.00    -0.018 C 
HETATM   26  C6  UNK     1      20.843  -2.428  30.129  1.00  0.00     0.010 C 
HETATM   27  C7  UNK     1      21.069  -2.389  32.622  1.00  0.00     0.010 C 
ENDBRANCH  24  25
ENDBRANCH   3  24
TORSDOF 6
ENDMDL
MODEL 5
REMARK VINA RESULT:      -8.3     14.807     17.506
REMARK  6 active torsions:
REMARK  status: ('A' for Active; 'I' for Inactive)
REMARK    1  A    between atoms: C13_17  and  O2_2 
REMARK    2  A    between atoms: C15_19  and  O2_2 
REMARK    3  A    between atoms: C1_5  and  C2_6 
REMARK    4  A    between atoms: C2_6  and  C3_7 
REMARK    5  A    between atoms: C15_19  and  C16_20 
REMARK    6  A    between atoms: C16_20  and  C17_21 
ROOT
HETATM    1  O1  UNK     1      28.319  -5.263  39.156  1.00  0.00    -0.274 OA
HETATM    2  O3  UNK     1      29.901  -3.639  39.268  1.00  0.00    -0.259 OA
HETATM    3  C3  UNK     1      30.639  -5.782  38.531  1.00  0.00     0.025 A 
HETATM    4  C4  UNK     1      30.318  -7.069  38.285  1.00  0.00    -0.037 A 
HETATM    5  C5  UNK     1      28.915  -7.509  38.436  1.00  0.00     0.005 A 
HETATM    6  C8  UNK     1      27.964  -6.590  38.869  1.00  0.00     0.092 A 
HETATM    7  C9  UNK     1      29.617  -4.804  39.007  1.00  0.00     0.295 A 
HETATM    8  C10 UNK     1      31.321  -8.117  37.868  1.00  0.00     0.050 C 
HETATM    9  C11 UNK     1      28.468  -8.811  38.160  1.00  0.00     0.017 A 
HETATM   10  C12 UNK     1      26.618  -6.924  39.039  1.00  0.00     0.075 A 
HETATM   11  C13 UNK     1      26.199  -8.220  38.765  1.00  0.00     0.072 A 
HETATM   12  C14 UNK     1      27.123  -9.162  38.324  1.00  0.00     0.038 A 
ENDROOT
BRANCH  11  13
HETATM   13  O2  UNK     1      24.893  -8.565  38.924  1.00  0.00    -0.344 OA
BRANCH  13  14
HETATM   14  C15 UNK     1      23.939  -7.504  38.950  1.00  0.00     0.259 C 
BRANCH  14  15
HETATM   15  C16 UNK     1      22.574  -8.042  39.332  1.00  0.00     0.183 C 
HETATM   16  O4  UNK     1      22.387  -8.634  40.392  1.00  0.00    -0.290 OA
BRANCH  15  17
HETATM   17  C17 UNK     1      21.435  -7.845  38.388  1.00  0.00     0.012 A 
HETATM   18  C18 UNK     1      20.165  -7.719  38.902  1.00  0.00     0.016 A 
HETATM   19  C21 UNK     1      19.101  -7.537  38.017  1.00  0.00     0.007 A 
HETATM   20  C20 UNK     1      19.336  -7.487  36.643  1.00  0.00    -0.062 A 
HETATM   21  C22 UNK     1      20.636  -7.618  36.154  1.00  0.00     0.007 A 
HETATM   22  C23 UNK     1      18.199  -7.290  35.698  1.00  0.00     0.048 C 
HETATM   23  C19 UNK     1      21.700  -7.800  37.037  1.00  0.00     0.016 A 
ENDBRANCH  15  17
ENDBRANCH  14  15
ENDBRANCH  13  14
ENDBRANCH  11  13
BRANCH   3  24
HETATM   24  C2  UNK     1      32.013  -5.186  38.355  1.00  0.00     0.049 C 
BRANCH  24  25
HETATM   25  C1  UNK     1      32.372  -4.954  36.883  1.00  0.00    -0.018 C 
HETATM   26  C6  UNK     1      33.803  -5.393  36.558  1.00  0.00     0.010 C 
HETATM   27  C7  UNK     1      32.197  -3.472  36.545  1.00  0.00     0.010 C 
ENDBRANCH  24  25
ENDBRANCH   3  24
TORSDOF 6
ENDMDL
MODEL 6
REMARK VINA RESULT:      -8.2     16.095     18.721
REMARK  6 active torsions:
REMARK  status: ('A' for Active; 'I' for Inactive)
REMARK    1  A    between atoms: C13_17  and  O2_2 
REMARK    2  A    between atoms: C15_19  and  O2_2 
REMARK    3  A    between atoms: C1_5  and  C2_6 
REMARK    4  A    between atoms: C2_6  and  C3_7 
REMARK    5  A    between atoms: C15_19  and  C16_20 
REMARK    6  A    between atoms: C16_20  and  C17_21 
ROOT
HETATM    1  O1  UNK     1      28.016  -6.425  33.757  1.00  0.00    -0.274 OA
HETATM    2  O3  UNK     1      27.611  -6.190  31.536  1.00  0.00    -0.259 OA
HETATM    3  C3  UNK     1      28.361  -8.336  32.249  1.00  0.00     0.025 A 
HETATM    4  C4  UNK     1      28.784  -9.107  33.273  1.00  0.00    -0.037 A 
HETATM    5  C5  UNK     1      28.803  -8.550  34.642  1.00  0.00     0.005 A 
HETATM    6  C8  UNK     1      28.420  -7.226  34.835  1.00  0.00     0.092 A 
HETATM    7  C9  UNK     1      27.964  -6.913  32.461  1.00  0.00     0.295 A 
HETATM    8  C10 UNK     1      29.263 -10.528  33.108  1.00  0.00     0.050 C 
HETATM    9  C11 UNK     1      29.179  -9.280  35.780  1.00  0.00     0.017 A 
HETATM   10  C12 UNK     1      28.409  -6.622  36.095  1.00  0.00     0.075 A 
HETATM   11  C13 UNK     1      28.790  -7.363  37.208  1.00  0.00     0.072 A 
HETATM   12  C14 UNK     1      29.173  -8.691  37.050  1.00  0.00     0.038 A 
ENDROOT
BRANCH  11  13
HETATM   13  O2  UNK     1      28.787  -6.794  38.443  1.00  0.00    -0.344 OA
BRANCH  13  14
HETATM   14  C15 UNK     1      28.431  -5.414  38.523  1.00  0.00     0.259 C 
BRANCH  14  15
HETATM   15  C16 UNK     1      29.633  -4.591  38.942  1.00  0.00     0.183 C 
HETATM   16  O4  UNK     1      29.603  -3.863  39.931  1.00  0.00    -0.290 OA
BRANCH  15  17
HETATM   17  C17 UNK     1      30.878  -4.672  38.124  1.00  0.00     0.012 A 
HETATM   18  C18 UNK     1      30.994  -3.865  37.015  1.00  0.00     0.016 A 
HETATM   19  C21 UNK     1      32.158  -3.943  36.250  1.00  0.00     0.007 A 
HETATM   20  C20 UNK     1      33.174  -4.826  36.614  1.00  0.00    -0.062 A 
HETATM   21  C22 UNK     1      33.027  -5.630  37.744  1.00  0.00     0.007 A 
HETATM   22  C23 UNK     1      34.420  -4.908  35.797  1.00  0.00     0.048 C 
HETATM   23  C19 UNK     1      31.864  -5.553  38.510  1.00  0.00     0.016 A 
ENDBRANCH  15  17
ENDBRANCH  14  15
ENDBRANCH  13  14
ENDBRANCH  11  13
BRANCH   3  24
HETATM   24  C2  UNK     1      28.231  -8.795  30.819  1.00  0.00     0.049 C 
BRANCH  24  25
HETATM   25  C1  UNK     1      29.575  -8.821  30.083  1.00  0.00    -0.018 C 
HETATM   26  C6  UNK     1      29.792  -7.570  29.227  1.00  0.00     0.010 C 
HETATM   27  C7  UNK     1      29.648 -10.069  29.201  1.00  0.00     0.010 C 
ENDBRANCH  24  25
ENDBRANCH   3  24
TORSDOF 6
ENDMDL
MODEL 7
REMARK VINA RESULT:      -8.2      7.899     14.285
REMARK  6 active torsions:
REMARK  status: ('A' for Active; 'I' for Inactive)
REMARK    1  A    between atoms: C13_17  and  O2_2 
REMARK    2  A    between atoms: C15_19  and  O2_2 
REMARK    3  A    between atoms: C1_5  and  C2_6 
REMARK    4  A    between atoms: C2_6  and  C3_7 
REMARK    5  A    between atoms: C15_19  and  C16_20 
REMARK    6  A    between atoms: C16_20  and  C17_21 
ROOT
HETATM    1  O1  UNK     1      22.167  -6.705  37.518  1.00  0.00    -0.274 OA
HETATM    2  O3  UNK     1      23.467  -8.555  37.721  1.00  0.00    -0.259 OA
HETATM    3  C3  UNK     1      21.164  -8.932  37.236  1.00  0.00     0.025 A 
HETATM    4  C4  UNK     1      19.943  -8.391  37.041  1.00  0.00    -0.037 A 
HETATM    5  C5  UNK     1      19.791  -6.921  37.041  1.00  0.00     0.005 A 
HETATM    6  C8  UNK     1      20.910  -6.129  37.282  1.00  0.00     0.092 A 
HETATM    7  C9  UNK     1      22.357  -8.077  37.507  1.00  0.00     0.295 A 
HETATM    8  C10 UNK     1      18.691  -9.206  36.832  1.00  0.00     0.050 C 
HETATM    9  C11 UNK     1      18.578  -6.258  36.802  1.00  0.00     0.017 A 
HETATM   10  C12 UNK     1      20.853  -4.733  37.300  1.00  0.00     0.075 A 
HETATM   11  C13 UNK     1      19.640  -4.098  37.066  1.00  0.00     0.072 A 
HETATM   12  C14 UNK     1      18.503  -4.860  36.815  1.00  0.00     0.038 A 
ENDROOT
BRANCH  11  13
HETATM   13  O2  UNK     1      19.563  -2.740  37.078  1.00  0.00    -0.344 OA
BRANCH  13  14
HETATM   14  C15 UNK     1      18.500  -2.143  36.337  1.00  0.00     0.259 C 
BRANCH  14  15
HETATM   15  C16 UNK     1      19.041  -1.037  35.452  1.00  0.00     0.183 C 
HETATM   16  O4  UNK     1      19.170   0.113  35.862  1.00  0.00    -0.290 OA
BRANCH  15  17
HETATM   17  C17 UNK     1      19.421  -1.364  34.047  1.00  0.00     0.012 A 
HETATM   18  C18 UNK     1      20.397  -2.311  33.829  1.00  0.00     0.016 A 
HETATM   19  C21 UNK     1      20.753  -2.614  32.514  1.00  0.00     0.007 A 
HETATM   20  C20 UNK     1      20.124  -1.964  31.453  1.00  0.00    -0.062 A 
HETATM   21  C22 UNK     1      19.138  -1.010  31.707  1.00  0.00     0.007 A 
HETATM   22  C23 UNK     1      20.502  -2.290  30.048  1.00  0.00     0.048 C 
HETATM   23  C19 UNK     1      18.782  -0.706  33.021  1.00  0.00     0.016 A 
ENDBRANCH  15  17
ENDBRANCH  14  15
ENDBRANCH  13  14
ENDBRANCH  11  13
BRANCH   3  24
HETATM   24  C2  UNK     1      21.471 -10.408  37.198  1.00  0.00     0.049 C 
BRANCH  24  25
HETATM   25  C1  UNK     1      21.844 -10.897  35.794  1.00  0.00    -0.018 C 
HETATM   26  C6  UNK     1      23.264 -11.467  35.736  1.00  0.00     0.010 C 
HETATM   27  C7  UNK     1      21.710  -9.741  34.801  1.00  0.00     0.010 C 
ENDBRANCH  24  25
ENDBRANCH   3  24
TORSDOF 6
ENDMDL
MODEL 8
REMARK VINA RESULT:      -8.2     14.660     18.320
REMARK  6 active torsions:
REMARK  status: ('A' for Active; 'I' for Inactive)
REMARK    1  A    between atoms: C13_17  and  O2_2 
REMARK    2  A    between atoms: C15_19  and  O2_2 
REMARK    3  A    between atoms: C1_5  and  C2_6 
REMARK    4  A    between atoms: C2_6  and  C3_7 
REMARK    5  A    between atoms: C15_19  and  C16_20 
REMARK    6  A    between atoms: C16_20  and  C17_21 
ROOT
HETATM    1  O1  UNK     1      29.058  -9.119  38.202  1.00  0.00    -0.274 OA
HETATM    2  O3  UNK     1      31.112 -10.055  37.959  1.00  0.00    -0.259 OA
HETATM    3  C3  UNK     1      31.057  -7.690  38.243  1.00  0.00     0.025 A 
HETATM    4  C4  UNK     1      30.300  -6.582  38.387  1.00  0.00    -0.037 A 
HETATM    5  C5  UNK     1      28.831  -6.714  38.485  1.00  0.00     0.005 A 
HETATM    6  C8  UNK     1      28.261  -7.980  38.387  1.00  0.00     0.092 A 
HETATM    7  C9  UNK     1      30.439  -9.043  38.125  1.00  0.00     0.295 A 
HETATM    8  C10 UNK     1      30.864  -5.184  38.442  1.00  0.00     0.050 C 
HETATM    9  C11 UNK     1      27.958  -5.633  38.683  1.00  0.00     0.017 A 
HETATM   10  C12 UNK     1      26.882  -8.193  38.468  1.00  0.00     0.075 A 
HETATM   11  C13 UNK     1      26.037  -7.107  38.659  1.00  0.00     0.072 A 
HETATM   12  C14 UNK     1      26.575  -5.828  38.768  1.00  0.00     0.038 A 
ENDROOT
BRANCH  11  13
HETATM   13  O2  UNK     1      24.692  -7.292  38.742  1.00  0.00    -0.344 OA
BRANCH  13  14
HETATM   14  C15 UNK     1      23.904  -6.167  39.128  1.00  0.00     0.259 C 
BRANCH  14  15
HETATM   15  C16 UNK     1      22.592  -6.166  38.369  1.00  0.00     0.183 C 
HETATM   16  O4  UNK     1      22.144  -5.144  37.855  1.00  0.00    -0.290 OA
BRANCH  15  17
HETATM   17  C17 UNK     1      21.831  -7.444  38.251  1.00  0.00     0.012 A 
HETATM   18  C18 UNK     1      21.718  -8.034  37.012  1.00  0.00     0.016 A 
HETATM   19  C21 UNK     1      21.004  -9.228  36.903  1.00  0.00     0.007 A 
HETATM   20  C20 UNK     1      20.422  -9.799  38.034  1.00  0.00    -0.062 A 
HETATM   21  C22 UNK     1      20.555  -9.177  39.275  1.00  0.00     0.007 A 
HETATM   22  C23 UNK     1      19.661 -11.077  37.918  1.00  0.00     0.048 C 
HETATM   23  C19 UNK     1      21.269  -7.983  39.386  1.00  0.00     0.016 A 
ENDBRANCH  15  17
ENDBRANCH  14  15
ENDBRANCH  13  14
ENDBRANCH  11  13
BRANCH   3  24
HETATM   24  C2  UNK     1      32.564  -7.705  38.194  1.00  0.00     0.049 C 
BRANCH  24  25
HETATM   25  C1  UNK     1      33.118  -7.174  36.868  1.00  0.00    -0.018 C 
HETATM   26  C6  UNK     1      33.303  -8.284  35.829  1.00  0.00     0.010 C 
HETATM   27  C7  UNK     1      34.454  -6.472  37.119  1.00  0.00     0.010 C 
ENDBRANCH  24  25
ENDBRANCH   3  24
TORSDOF 6
ENDMDL
MODEL 9
REMARK VINA RESULT:      -8.2     22.408     24.451
REMARK  6 active torsions:
REMARK  status: ('A' for Active; 'I' for Inactive)
REMARK    1  A    between atoms: C13_17  and  O2_2 
REMARK    2  A    between atoms: C15_19  and  O2_2 
REMARK    3  A    between atoms: C1_5  and  C2_6 
REMARK    4  A    between atoms: C2_6  and  C3_7 
REMARK    5  A    between atoms: C15_19  and  C16_20 
REMARK    6  A    between atoms: C16_20  and  C17_21 
ROOT
HETATM    1  O1  UNK     1      14.933  11.063   8.091  1.00  0.00    -0.274 OA
HETATM    2  O3  UNK     1      15.379  12.926   6.874  1.00  0.00    -0.259 OA
HETATM    3  C3  UNK     1      17.117  12.167   8.316  1.00  0.00     0.025 A 
HETATM    4  C4  UNK     1      17.509  11.272   9.248  1.00  0.00    -0.037 A 
HETATM    5  C5  UNK     1      16.599  10.170   9.623  1.00  0.00     0.005 A 
HETATM    6  C8  UNK     1      15.340  10.105   9.032  1.00  0.00     0.092 A 
HETATM    7  C9  UNK     1      15.762  12.100   7.696  1.00  0.00     0.295 A 
HETATM    8  C10 UNK     1      18.839  11.331   9.958  1.00  0.00     0.050 C 
HETATM    9  C11 UNK     1      16.926   9.162  10.543  1.00  0.00     0.017 A 
HETATM   10  C12 UNK     1      14.420   9.097   9.331  1.00  0.00     0.075 A 
HETATM   11  C13 UNK     1      14.763   8.113  10.249  1.00  0.00     0.072 A 
HETATM   12  C14 UNK     1      16.016   8.144  10.854  1.00  0.00     0.038 A 
ENDROOT
BRANCH  11  13
HETATM   13  O2  UNK     1      13.882   7.123  10.554  1.00  0.00    -0.344 OA
BRANCH  13  14
HETATM   14  C15 UNK     1      14.222   5.800  10.139  1.00  0.00     0.259 C 
BRANCH  14  15
HETATM   15  C16 UNK     1      14.046   5.665   8.639  1.00  0.00     0.183 C 
HETATM   16  O4  UNK     1      14.990   5.396   7.900  1.00  0.00    -0.290 OA
BRANCH  15  17
HETATM   17  C17 UNK     1      12.689   5.871   8.054  1.00  0.00     0.012 A 
HETATM   18  C18 UNK     1      12.584   6.493   6.831  1.00  0.00     0.016 A 
HETATM   19  C21 UNK     1      11.314   6.687   6.287  1.00  0.00     0.007 A 
HETATM   20  C20 UNK     1      10.184   6.254   6.980  1.00  0.00    -0.062 A 
HETATM   21  C22 UNK     1      10.324   5.626   8.217  1.00  0.00     0.007 A 
HETATM   22  C23 UNK     1       8.826   6.459   6.397  1.00  0.00     0.048 C 
HETATM   23  C19 UNK     1      11.593   5.432   8.763  1.00  0.00     0.016 A 
ENDBRANCH  15  17
ENDBRANCH  14  15
ENDBRANCH  13  14
ENDBRANCH  11  13
BRANCH   3  24
HETATM   24  C2  UNK     1      17.968  13.298   7.795  1.00  0.00     0.049 C 
BRANCH  24  25
HETATM   25  C1  UNK     1      18.929  12.854   6.688  1.00  0.00    -0.018 C 
HETATM   26  C6  UNK     1      20.396  13.069   7.071  1.00  0.00     0.010 C 
HETATM   27  C7  UNK     1      18.613  13.620   5.402  1.00  0.00     0.010 C 
ENDBRANCH  24  25
ENDBRANCH   3  24
TORSDOF 6
ENDMDL
MODEL 10
REMARK VINA RESULT:      -8.1      1.942      9.588
REMARK  6 active torsions:
REMARK  status: ('A' for Active; 'I' for Inactive)
REMARK    1  A    between atoms: C13_17  and  O2_2 
REMARK    2  A    between atoms: C15_19  and  O2_2 
REMARK    3  A    between atoms: C1_5  and  C2_6 
REMARK    4  A    between atoms: C2_6  and  C3_7 
REMARK    5  A    between atoms: C15_19  and  C16_20 
REMARK    6  A    between atoms: C16_20  and  C17_21 
ROOT
HETATM    1  O1  UNK     1      18.589   4.649  30.027  1.00  0.00    -0.274 OA
HETATM    2  O3  UNK     1      18.793   2.904  28.589  1.00  0.00    -0.259 OA
HETATM    3  C3  UNK     1      18.495   2.348  30.886  1.00  0.00     0.025 A 
HETATM    4  C4  UNK     1      18.360   2.794  32.153  1.00  0.00    -0.037 A 
HETATM    5  C5  UNK     1      18.294   4.248  32.408  1.00  0.00     0.005 A 
HETATM    6  C8  UNK     1      18.413   5.126  31.335  1.00  0.00     0.092 A 
HETATM    7  C9  UNK     1      18.635   3.294  29.741  1.00  0.00     0.295 A 
HETATM    8  C10 UNK     1      18.283   1.886  33.356  1.00  0.00     0.050 C 
HETATM    9  C11 UNK     1      18.108   4.814  33.679  1.00  0.00     0.017 A 
HETATM   10  C12 UNK     1      18.363   6.514  31.488  1.00  0.00     0.075 A 
HETATM   11  C13 UNK     1      18.183   7.051  32.756  1.00  0.00     0.072 A 
HETATM   12  C14 UNK     1      18.054   6.202  33.851  1.00  0.00     0.038 A 
ENDROOT
BRANCH  11  13
HETATM   13  O2  UNK     1      18.131   8.400  32.928  1.00  0.00    -0.344 OA
BRANCH  13  14
HETATM   14  C15 UNK     1      17.139   8.903  33.823  1.00  0.00     0.259 C 
BRANCH  14  15
HETATM   15  C16 UNK     1      15.920   9.358  33.045  1.00  0.00     0.183 C 
HETATM   16  O4  UNK     1      15.745   9.036  31.873  1.00  0.00    -0.290 OA
BRANCH  15  17
HETATM   17  C17 UNK     1      14.914  10.222  33.730  1.00  0.00     0.012 A 
HETATM   18  C18 UNK     1      14.998  10.379  35.095  1.00  0.00     0.016 A 
HETATM   19  C21 UNK     1      14.055  11.186  35.734  1.00  0.00     0.007 A 
HETATM   20  C20 UNK     1      13.055  11.813  34.991  1.00  0.00    -0.062 A 
HETATM   21  C22 UNK     1      12.997  11.634  33.609  1.00  0.00     0.007 A 
HETATM   22  C23 UNK     1      12.049  12.677  35.674  1.00  0.00     0.048 C 
HETATM   23  C19 UNK     1      13.939  10.827  32.969  1.00  0.00     0.016 A 
ENDBRANCH  15  17
ENDBRANCH  14  15
ENDBRANCH  13  14
ENDBRANCH  11  13
BRANCH   3  24
HETATM   24  C2  UNK     1      18.511   0.896  30.480  1.00  0.00     0.049 C 
BRANCH  24  25
HETATM   25  C1  UNK     1      19.900   0.263  30.607  1.00  0.00    -0.018 C 
HETATM   26  C6  UNK     1      20.483  -0.137  29.248  1.00  0.00     0.010 C 
HETATM   27  C7  UNK     1      19.817  -0.966  31.515  1.00  0.00     0.010 C 
ENDBRANCH  24  25
ENDBRANCH   3  24
TORSDOF 6
ENDMDL
