MODEL 1
REMARK VINA RESULT:      -7.4      0.000      0.000
REMARK  4 active torsions:
REMARK  status: ('A' for Active; 'I' for Inactive)
REMARK    1  A    between atoms: C1_7  and  N1_5 
REMARK    2  A    between atoms: C2_8  and  N2_6 
REMARK       I    between atoms: C5_11  and  N2_6 
REMARK    3  A    between atoms: C1_7  and  C2_8 
REMARK    4  A    between atoms: C3_9  and  C5_11 
ROOT
HETATM    1 Br1  UNK     1      21.141  -3.406  31.926  1.00  0.00    -0.051 Br
HETATM    2  O1  UNK     1      19.023   1.233  28.640  1.00  0.00    -0.274 OA
HETATM    3  O3  UNK     1      18.179   3.352  28.513  1.00  0.00    -0.259 OA
HETATM    4  C3  UNK     1      18.690   2.541  30.679  1.00  0.00     0.108 A 
HETATM    5  C4  UNK     1      19.586   0.294  30.810  1.00  0.00     0.000 A 
HETATM    6  C6  UNK     1      19.153   1.536  31.431  1.00  0.00     0.037 A 
HETATM    7  C7  UNK     1      19.511   0.171  29.427  1.00  0.00     0.089 A 
HETATM    8  C10 UNK     1      18.601   2.432  29.205  1.00  0.00     0.304 A 
HETATM    9  C11 UNK     1      20.075  -0.782  31.557  1.00  0.00     0.033 A 
HETATM   10  C12 UNK     1      19.910  -0.991  28.770  1.00  0.00     0.039 A 
HETATM   11  C13 UNK     1      20.479  -1.955  30.912  1.00  0.00     0.011 A 
HETATM   12  C14 UNK     1      20.397  -2.059  29.521  1.00  0.00     0.022 A 
ENDROOT
BRANCH   4  13
HETATM   13  C5  UNK     1      18.278   3.752  31.397  1.00  0.00     0.257 C 
HETATM   14  O2  UNK     1      17.564   3.682  32.396  1.00  0.00    -0.267 OA
HETATM   15  N2  UNK     1      18.773   4.911  30.826  1.00  0.00    -0.355 N 
HETATM   16  H5  UNK     1      19.388   4.860  30.019  1.00  0.00     0.162 HD
BRANCH  15  17
HETATM   17  C2  UNK     1      18.500   6.229  31.354  1.00  0.00     0.153 C 
BRANCH  17  18
HETATM   18  C1  UNK     1      19.443   6.569  32.499  1.00  0.00     0.291 C 
BRANCH  18  19
HETATM   19  N1  UNK     1      18.692   6.770  33.732  1.00  0.00     0.081 N 
HETATM   20  C8  UNK     1      19.259   7.873  34.508  1.00  0.00     0.309 C 
HETATM   21  C9  UNK     1      17.280   7.027  33.440  1.00  0.00     0.309 C 
ENDBRANCH  18  19
ENDBRANCH  17  18
ENDBRANCH  15  17
ENDBRANCH   4  13
TORSDOF 4
ENDMDL
MODEL 2
REMARK VINA RESULT:      -7.2      5.616      8.380
REMARK  4 active torsions:
REMARK  status: ('A' for Active; 'I' for Inactive)
REMARK    1  A    between atoms: C1_7  and  N1_5 
REMARK    2  A    between atoms: C2_8  and  N2_6 
REMARK       I    between atoms: C5_11  and  N2_6 
REMARK    3  A    between atoms: C1_7  and  C2_8 
REMARK    4  A    between atoms: C3_9  and  C5_11 
ROOT
HETATM    1 Br1  UNK     1      18.199   2.290  28.959  1.00  0.00    -0.051 Br
HETATM    2  O1  UNK     1      20.876  -2.817  30.847  1.00  0.00    -0.274 OA
HETATM    3  O3  UNK     1      21.502  -4.221  32.537  1.00  0.00    -0.259 OA
HETATM    4  C3  UNK     1      20.344  -2.252  33.166  1.00  0.00     0.108 A 
HETATM    5  C4  UNK     1      19.681  -0.766  31.371  1.00  0.00     0.000 A 
HETATM    6  C6  UNK     1      19.746  -1.119  32.781  1.00  0.00     0.037 A 
HETATM    7  C7  UNK     1      20.248  -1.624  30.436  1.00  0.00     0.089 A 
HETATM    8  C10 UNK     1      20.954  -3.181  32.188  1.00  0.00     0.304 A 
HETATM    9  C11 UNK     1      19.068   0.408  30.925  1.00  0.00     0.033 A 
HETATM   10  C12 UNK     1      20.220  -1.345  29.071  1.00  0.00     0.039 A 
HETATM   11  C13 UNK     1      19.031   0.702  29.558  1.00  0.00     0.011 A 
HETATM   12  C14 UNK     1      19.606  -0.174  28.633  1.00  0.00     0.022 A 
ENDROOT
BRANCH   4  13
HETATM   13  C5  UNK     1      20.358  -2.521  34.608  1.00  0.00     0.257 C 
HETATM   14  O2  UNK     1      20.771  -1.678  35.403  1.00  0.00    -0.267 OA
HETATM   15  N2  UNK     1      19.874  -3.776  34.927  1.00  0.00    -0.355 N 
HETATM   16  H5  UNK     1      19.520  -4.388  34.197  1.00  0.00     0.162 HD
BRANCH  15  17
HETATM   17  C2  UNK     1      19.792  -4.269  36.283  1.00  0.00     0.153 C 
BRANCH  17  18
HETATM   18  C1  UNK     1      20.315  -5.695  36.384  1.00  0.00     0.291 C 
BRANCH  18  19
HETATM   19  N1  UNK     1      19.568  -6.573  35.492  1.00  0.00     0.081 N 
HETATM   20  C8  UNK     1      20.479  -7.417  34.717  1.00  0.00     0.309 C 
HETATM   21  C9  UNK     1      18.629  -7.401  36.250  1.00  0.00     0.309 C 
ENDBRANCH  18  19
ENDBRANCH  17  18
ENDBRANCH  15  17
ENDBRANCH   4  13
TORSDOF 4
ENDMDL
MODEL 3
REMARK VINA RESULT:      -7.0      8.702     10.469
REMARK  4 active torsions:
REMARK  status: ('A' for Active; 'I' for Inactive)
REMARK    1  A    between atoms: C1_7  and  N1_5 
REMARK    2  A    between atoms: C2_8  and  N2_6 
REMARK       I    between atoms: C5_11  and  N2_6 
REMARK    3  A    between atoms: C1_7  and  C2_8 
REMARK    4  A    between atoms: C3_9  and  C5_11 
ROOT
HETATM    1 Br1  UNK     1      23.544 -11.481  35.889  1.00  0.00    -0.051 Br
HETATM    2  O1  UNK     1      18.576  -8.215  37.100  1.00  0.00    -0.274 OA
HETATM    3  O3  UNK     1      17.487  -6.207  37.157  1.00  0.00    -0.259 OA
HETATM    4  C3  UNK     1      19.722  -6.181  36.373  1.00  0.00     0.108 A 
HETATM    5  C4  UNK     1      20.874  -8.311  36.313  1.00  0.00     0.000 A 
HETATM    6  C6  UNK     1      20.832  -6.873  36.096  1.00  0.00     0.037 A 
HETATM    7  C7  UNK     1      19.743  -8.949  36.810  1.00  0.00     0.089 A 
HETATM    8  C10 UNK     1      18.507  -6.839  36.903  1.00  0.00     0.304 A 
HETATM    9  C11 UNK     1      22.013  -9.073  36.038  1.00  0.00     0.033 A 
HETATM   10  C12 UNK     1      19.716 -10.323  37.040  1.00  0.00     0.039 A 
HETATM   11  C13 UNK     1      22.001 -10.453  36.263  1.00  0.00     0.011 A 
HETATM   12  C14 UNK     1      20.855 -11.077  36.763  1.00  0.00     0.022 A 
ENDROOT
BRANCH   4  13
HETATM   13  C5  UNK     1      19.778  -4.736  36.121  1.00  0.00     0.257 C 
HETATM   14  O2  UNK     1      20.212  -4.298  35.058  1.00  0.00    -0.267 OA
HETATM   15  N2  UNK     1      19.306  -3.985  37.182  1.00  0.00    -0.355 N 
HETATM   16  H5  UNK     1      18.932  -4.446  38.007  1.00  0.00     0.162 HD
BRANCH  15  17
HETATM   17  C2  UNK     1      19.263  -2.541  37.169  1.00  0.00     0.153 C 
BRANCH  17  18
HETATM   18  C1  UNK     1      17.876  -2.033  36.803  1.00  0.00     0.291 C 
BRANCH  18  19
HETATM   19  N1  UNK     1      17.942  -0.642  36.375  1.00  0.00     0.081 N 
HETATM   20  C8  UNK     1      17.236  -0.458  35.106  1.00  0.00     0.309 C 
HETATM   21  C9  UNK     1      17.381   0.241  37.400  1.00  0.00     0.309 C 
ENDBRANCH  18  19
ENDBRANCH  17  18
ENDBRANCH  15  17
ENDBRANCH   4  13
TORSDOF 4
ENDMDL
MODEL 4
REMARK VINA RESULT:      -7.0     13.781     16.676
REMARK  4 active torsions:
REMARK  status: ('A' for Active; 'I' for Inactive)
REMARK    1  A    between atoms: C1_7  and  N1_5 
REMARK    2  A    between atoms: C2_8  and  N2_6 
REMARK       I    between atoms: C5_11  and  N2_6 
REMARK    3  A    between atoms: C1_7  and  C2_8 
REMARK    4  A    between atoms: C3_9  and  C5_11 
ROOT
HETATM    1 Br1  UNK     1      19.023   1.976  21.031  1.00  0.00    -0.051 Br
HETATM    2  O1  UNK     1      19.192   0.772  15.087  1.00  0.00    -0.274 OA
HETATM    3  O3  UNK     1      19.202  -0.732  13.367  1.00  0.00    -0.259 OA
HETATM    4  C3  UNK     1      19.098  -1.626  15.558  1.00  0.00     0.108 A 
HETATM    5  C4  UNK     1      19.086  -0.029  17.380  1.00  0.00     0.000 A 
HETATM    6  C6  UNK     1      19.059  -1.393  16.875  1.00  0.00     0.037 A 
HETATM    7  C7  UNK     1      19.152   1.023  16.473  1.00  0.00     0.089 A 
HETATM    8  C10 UNK     1      19.168  -0.522  14.575  1.00  0.00     0.304 A 
HETATM    9  C11 UNK     1      19.049   0.261  18.746  1.00  0.00     0.033 A 
HETATM   10  C12 UNK     1      19.180   2.352  16.890  1.00  0.00     0.039 A 
HETATM   11  C13 UNK     1      19.076   1.589  19.181  1.00  0.00     0.011 A 
HETATM   12  C14 UNK     1      19.142   2.633  18.254  1.00  0.00     0.022 A 
ENDROOT
BRANCH   4  13
HETATM   13  C5  UNK     1      19.066  -3.034  15.147  1.00  0.00     0.257 C 
HETATM   14  O2  UNK     1      20.079  -3.594  14.732  1.00  0.00    -0.267 OA
HETATM   15  N2  UNK     1      17.814  -3.606  15.281  1.00  0.00    -0.355 N 
HETATM   16  H5  UNK     1      17.045  -3.067  15.670  1.00  0.00     0.162 HD
BRANCH  15  17
HETATM   17  C2  UNK     1      17.534  -4.982  14.937  1.00  0.00     0.153 C 
BRANCH  17  18
HETATM   18  C1  UNK     1      17.788  -5.908  16.117  1.00  0.00     0.291 C 
BRANCH  18  19
HETATM   19  N1  UNK     1      16.560  -6.596  16.495  1.00  0.00     0.081 N 
HETATM   20  C8  UNK     1      15.757  -5.763  17.392  1.00  0.00     0.309 C 
HETATM   21  C9  UNK     1      15.784  -6.957  15.307  1.00  0.00     0.309 C 
ENDBRANCH  18  19
ENDBRANCH  17  18
ENDBRANCH  15  17
ENDBRANCH   4  13
TORSDOF 4
ENDMDL
MODEL 5
REMARK VINA RESULT:      -7.0     14.740     16.866
REMARK  4 active torsions:
REMARK  status: ('A' for Active; 'I' for Inactive)
REMARK    1  A    between atoms: C1_7  and  N1_5 
REMARK    2  A    between atoms: C2_8  and  N2_6 
REMARK       I    between atoms: C5_11  and  N2_6 
REMARK    3  A    between atoms: C1_7  and  C2_8 
REMARK    4  A    between atoms: C3_9  and  C5_11 
ROOT
HETATM    1 Br1  UNK     1      18.708  -8.062  11.702  1.00  0.00    -0.051 Br
HETATM    2  O1  UNK     1      19.489  -2.138  12.749  1.00  0.00    -0.274 OA
HETATM    3  O3  UNK     1      19.317  -0.328  14.133  1.00  0.00    -0.259 OA
HETATM    4  C3  UNK     1      18.567  -2.402  14.999  1.00  0.00     0.108 A 
HETATM    5  C4  UNK     1      18.751  -4.319  13.529  1.00  0.00     0.000 A 
HETATM    6  C6  UNK     1      18.383  -3.712  14.798  1.00  0.00     0.037 A 
HETATM    7  C7  UNK     1      19.297  -3.517  12.532  1.00  0.00     0.089 A 
HETATM    8  C10 UNK     1      19.146  -1.529  13.952  1.00  0.00     0.304 A 
HETATM    9  C11 UNK     1      18.575  -5.682  13.276  1.00  0.00     0.033 A 
HETATM   10  C12 UNK     1      19.671  -4.035  11.295  1.00  0.00     0.039 A 
HETATM   11  C13 UNK     1      18.947  -6.218  12.039  1.00  0.00     0.011 A 
HETATM   12  C14 UNK     1      19.493  -5.395  11.050  1.00  0.00     0.022 A 
ENDROOT
BRANCH   4  13
HETATM   13  C5  UNK     1      18.165  -1.883  16.311  1.00  0.00     0.257 C 
HETATM   14  O2  UNK     1      17.028  -2.068  16.741  1.00  0.00    -0.267 OA
HETATM   15  N2  UNK     1      19.180  -1.199  16.953  1.00  0.00    -0.355 N 
HETATM   16  H5  UNK     1      20.100  -1.132  16.528  1.00  0.00     0.162 HD
BRANCH  15  17
HETATM   17  C2  UNK     1      19.022  -0.595  18.257  1.00  0.00     0.153 C 
BRANCH  17  18
HETATM   18  C1  UNK     1      19.103   0.923  18.175  1.00  0.00     0.291 C 
BRANCH  18  19
HETATM   19  N1  UNK     1      18.977   1.509  19.503  1.00  0.00     0.081 N 
HETATM   20  C8  UNK     1      19.369   0.545  20.533  1.00  0.00     0.309 C 
HETATM   21  C9  UNK     1      19.789   2.723  19.610  1.00  0.00     0.309 C 
ENDBRANCH  18  19
ENDBRANCH  17  18
ENDBRANCH  15  17
ENDBRANCH   4  13
TORSDOF 4
ENDMDL
MODEL 6
REMARK VINA RESULT:      -6.9      4.756      6.224
REMARK  4 active torsions:
REMARK  status: ('A' for Active; 'I' for Inactive)
REMARK    1  A    between atoms: C1_7  and  N1_5 
REMARK    2  A    between atoms: C2_8  and  N2_6 
REMARK       I    between atoms: C5_11  and  N2_6 
REMARK    3  A    between atoms: C1_7  and  C2_8 
REMARK    4  A    between atoms: C3_9  and  C5_11 
ROOT
HETATM    1 Br1  UNK     1      18.111   2.489  28.951  1.00  0.00    -0.051 Br
HETATM    2  O1  UNK     1      20.831  -2.571  30.901  1.00  0.00    -0.274 OA
HETATM    3  O3  UNK     1      21.362  -4.012  32.593  1.00  0.00    -0.259 OA
HETATM    4  C3  UNK     1      20.065  -2.119  33.180  1.00  0.00     0.108 A 
HETATM    5  C4  UNK     1      19.502  -0.593  31.383  1.00  0.00     0.000 A 
HETATM    6  C6  UNK     1      19.454  -0.997  32.780  1.00  0.00     0.037 A 
HETATM    7  C7  UNK     1      20.190  -1.391  30.475  1.00  0.00     0.089 A 
HETATM    8  C10 UNK     1      20.802  -2.983  32.231  1.00  0.00     0.304 A 
HETATM    9  C11 UNK     1      18.881   0.570  30.923  1.00  0.00     0.033 A 
HETATM   10  C12 UNK     1      20.274  -1.061  29.124  1.00  0.00     0.039 A 
HETATM   11  C13 UNK     1      18.955   0.915  29.570  1.00  0.00     0.011 A 
HETATM   12  C14 UNK     1      19.651   0.100  28.672  1.00  0.00     0.022 A 
ENDROOT
BRANCH   4  13
HETATM   13  C5  UNK     1      19.959  -2.442  34.607  1.00  0.00     0.257 C 
HETATM   14  O2  UNK     1      20.694  -3.285  35.119  1.00  0.00    -0.267 OA
HETATM   15  N2  UNK     1      18.978  -1.713  35.253  1.00  0.00    -0.355 N 
HETATM   16  H5  UNK     1      18.447  -1.010  34.747  1.00  0.00     0.162 HD
BRANCH  15  17
HETATM   17  C2  UNK     1      18.686  -1.859  36.662  1.00  0.00     0.153 C 
BRANCH  17  18
HETATM   18  C1  UNK     1      17.839  -0.702  37.172  1.00  0.00     0.291 C 
BRANCH  18  19
HETATM   19  N1  UNK     1      17.584   0.250  36.099  1.00  0.00     0.081 N 
HETATM   20  C8  UNK     1      16.160   0.279  35.762  1.00  0.00     0.309 C 
HETATM   21  C9  UNK     1      18.043   1.589  36.476  1.00  0.00     0.309 C 
ENDBRANCH  18  19
ENDBRANCH  17  18
ENDBRANCH  15  17
ENDBRANCH   4  13
TORSDOF 4
ENDMDL
MODEL 7
REMARK VINA RESULT:      -6.8      2.265      3.147
REMARK  4 active torsions:
REMARK  status: ('A' for Active; 'I' for Inactive)
REMARK    1  A    between atoms: C1_7  and  N1_5 
REMARK    2  A    between atoms: C2_8  and  N2_6 
REMARK       I    between atoms: C5_11  and  N2_6 
REMARK    3  A    between atoms: C1_7  and  C2_8 
REMARK    4  A    between atoms: C3_9  and  C5_11 
ROOT
HETATM    1 Br1  UNK     1      18.827  -2.089  36.625  1.00  0.00    -0.051 Br
HETATM    2  O1  UNK     1      20.447  -1.175  30.850  1.00  0.00    -0.274 OA
HETATM    3  O3  UNK     1      20.348   0.067  28.935  1.00  0.00    -0.259 OA
HETATM    4  C3  UNK     1      19.091   0.860  30.780  1.00  0.00     0.108 A 
HETATM    5  C4  UNK     1      19.199  -0.458  32.810  1.00  0.00     0.000 A 
HETATM    6  C6  UNK     1      18.716   0.685  32.052  1.00  0.00     0.037 A 
HETATM    7  C7  UNK     1      20.055  -1.363  32.191  1.00  0.00     0.089 A 
HETATM    8  C10 UNK     1      20.001  -0.090  30.100  1.00  0.00     0.304 A 
HETATM    9  C11 UNK     1      18.832  -0.680  34.140  1.00  0.00     0.033 A 
HETATM   10  C12 UNK     1      20.554  -2.478  32.860  1.00  0.00     0.039 A 
HETATM   11  C13 UNK     1      19.325  -1.794  34.826  1.00  0.00     0.011 A 
HETATM   12  C14 UNK     1      20.184  -2.692  34.186  1.00  0.00     0.022 A 
ENDROOT
BRANCH   4  13
HETATM   13  C5  UNK     1      18.552   2.043  30.100  1.00  0.00     0.257 C 
HETATM   14  O2  UNK     1      17.547   1.962  29.396  1.00  0.00    -0.267 OA
HETATM   15  N2  UNK     1      19.289   3.187  30.345  1.00  0.00    -0.355 N 
HETATM   16  H5  UNK     1      20.086   3.157  30.974  1.00  0.00     0.162 HD
BRANCH  15  17
HETATM   17  C2  UNK     1      18.954   4.476  29.782  1.00  0.00     0.153 C 
BRANCH  17  18
HETATM   18  C1  UNK     1      19.724   5.594  30.469  1.00  0.00     0.291 C 
BRANCH  18  19
HETATM   19  N1  UNK     1      19.181   5.842  31.798  1.00  0.00     0.081 N 
HETATM   20  C8  UNK     1      20.168   6.518  32.641  1.00  0.00     0.309 C 
HETATM   21  C9  UNK     1      17.954   6.637  31.714  1.00  0.00     0.309 C 
ENDBRANCH  18  19
ENDBRANCH  17  18
ENDBRANCH  15  17
ENDBRANCH   4  13
TORSDOF 4
ENDMDL
MODEL 8
REMARK VINA RESULT:      -6.8      3.034      3.949
REMARK  4 active torsions:
REMARK  status: ('A' for Active; 'I' for Inactive)
REMARK    1  A    between atoms: C1_7  and  N1_5 
REMARK    2  A    between atoms: C2_8  and  N2_6 
REMARK       I    between atoms: C5_11  and  N2_6 
REMARK    3  A    between atoms: C1_7  and  C2_8 
REMARK    4  A    between atoms: C3_9  and  C5_11 
ROOT
HETATM    1 Br1  UNK     1      17.400   1.111  37.790  1.00  0.00    -0.051 Br
HETATM    2  O1  UNK     1      19.195  -0.445  32.207  1.00  0.00    -0.274 OA
HETATM    3  O3  UNK     1      19.557   0.095  30.017  1.00  0.00    -0.259 OA
HETATM    4  C3  UNK     1      18.710   1.815  31.409  1.00  0.00     0.108 A 
HETATM    5  C4  UNK     1      18.329   1.239  33.731  1.00  0.00     0.000 A 
HETATM    6  C6  UNK     1      18.309   2.188  32.629  1.00  0.00     0.037 A 
HETATM    7  C7  UNK     1      18.773  -0.057  33.494  1.00  0.00     0.089 A 
HETATM    8  C10 UNK     1      19.186   0.440  31.134  1.00  0.00     0.304 A 
HETATM    9  C11 UNK     1      17.917   1.586  35.021  1.00  0.00     0.033 A 
HETATM   10  C12 UNK     1      18.817  -1.014  34.506  1.00  0.00     0.039 A 
HETATM   11  C13 UNK     1      17.957   0.637  36.047  1.00  0.00     0.011 A 
HETATM   12  C14 UNK     1      18.406  -0.661  35.789  1.00  0.00     0.022 A 
ENDROOT
BRANCH   4  13
HETATM   13  C5  UNK     1      18.654   2.843  30.363  1.00  0.00     0.257 C 
HETATM   14  O2  UNK     1      18.140   2.605  29.272  1.00  0.00    -0.267 OA
HETATM   15  N2  UNK     1      19.226   4.040  30.753  1.00  0.00    -0.355 N 
HETATM   16  H5  UNK     1      19.592   4.148  31.695  1.00  0.00     0.162 HD
BRANCH  15  17
HETATM   17  C2  UNK     1      19.291   5.200  29.893  1.00  0.00     0.153 C 
BRANCH  17  18
HETATM   18  C1  UNK     1      18.615   6.402  30.536  1.00  0.00     0.291 C 
BRANCH  18  19
HETATM   19  N1  UNK     1      18.368   6.148  31.950  1.00  0.00     0.081 N 
HETATM   20  C8  UNK     1      19.197   7.020  32.783  1.00  0.00     0.309 C 
HETATM   21  C9  UNK     1      16.952   6.338  32.269  1.00  0.00     0.309 C 
ENDBRANCH  18  19
ENDBRANCH  17  18
ENDBRANCH  15  17
ENDBRANCH   4  13
TORSDOF 4
ENDMDL
MODEL 9
REMARK VINA RESULT:      -6.8      3.183      3.946
REMARK  4 active torsions:
REMARK  status: ('A' for Active; 'I' for Inactive)
REMARK    1  A    between atoms: C1_7  and  N1_5 
REMARK    2  A    between atoms: C2_8  and  N2_6 
REMARK       I    between atoms: C5_11  and  N2_6 
REMARK    3  A    between atoms: C1_7  and  C2_8 
REMARK    4  A    between atoms: C3_9  and  C5_11 
ROOT
HETATM    1 Br1  UNK     1      18.229  -1.004  37.893  1.00  0.00    -0.051 Br
HETATM    2  O1  UNK     1      18.383   1.283  32.275  1.00  0.00    -0.274 OA
HETATM    3  O3  UNK     1      18.384   3.080  30.864  1.00  0.00    -0.259 OA
HETATM    4  C3  UNK     1      18.273   3.551  33.183  1.00  0.00     0.108 A 
HETATM    5  C4  UNK     1      18.274   1.644  34.677  1.00  0.00     0.000 A 
HETATM    6  C6  UNK     1      18.238   3.077  34.433  1.00  0.00     0.037 A 
HETATM    7  C7  UNK     1      18.346   0.779  33.590  1.00  0.00     0.089 A 
HETATM    8  C10 UNK     1      18.350   2.649  32.012  1.00  0.00     0.304 A 
HETATM    9  C11 UNK     1      18.238   1.106  35.966  1.00  0.00     0.033 A 
HETATM   10  C12 UNK     1      18.384  -0.604  33.754  1.00  0.00     0.039 A 
HETATM   11  C13 UNK     1      18.276  -0.280  36.147  1.00  0.00     0.011 A 
HETATM   12  C14 UNK     1      18.349  -1.133  35.042  1.00  0.00     0.022 A 
ENDROOT
BRANCH   4  13
HETATM   13  C5  UNK     1      18.233   5.011  33.040  1.00  0.00     0.257 C 
HETATM   14  O2  UNK     1      19.133   5.714  33.495  1.00  0.00    -0.267 OA
HETATM   15  N2  UNK     1      17.110   5.456  32.367  1.00  0.00    -0.355 N 
HETATM   16  H5  UNK     1      16.439   4.788  31.996  1.00  0.00     0.162 HD
BRANCH  15  17
HETATM   17  C2  UNK     1      16.848   6.853  32.106  1.00  0.00     0.153 C 
BRANCH  17  18
HETATM   18  C1  UNK     1      15.848   7.422  33.103  1.00  0.00     0.291 C 
BRANCH  18  19
HETATM   19  N1  UNK     1      16.507   8.363  34.000  1.00  0.00     0.081 N 
HETATM   20  C8  UNK     1      16.886   7.704  35.251  1.00  0.00     0.309 C 
HETATM   21  C9  UNK     1      17.684   8.950  33.358  1.00  0.00     0.309 C 
ENDBRANCH  18  19
ENDBRANCH  17  18
ENDBRANCH  15  17
ENDBRANCH   4  13
TORSDOF 4
ENDMDL
MODEL 10
REMARK VINA RESULT:      -6.8     22.477     24.400
REMARK  4 active torsions:
REMARK  status: ('A' for Active; 'I' for Inactive)
REMARK    1  A    between atoms: C1_7  and  N1_5 
REMARK    2  A    between atoms: C2_8  and  N2_6 
REMARK       I    between atoms: C5_11  and  N2_6 
REMARK    3  A    between atoms: C1_7  and  C2_8 
REMARK    4  A    between atoms: C3_9  and  C5_11 
ROOT
HETATM    1 Br1  UNK     1      17.189  10.357  10.105  1.00  0.00    -0.051 Br
HETATM    2  O1  UNK     1      14.150   5.200   9.118  1.00  0.00    -0.274 OA
HETATM    3  O3  UNK     1      12.393   4.081   8.178  1.00  0.00    -0.259 OA
HETATM    4  C3  UNK     1      12.497   6.415   7.787  1.00  0.00     0.108 A 
HETATM    5  C4  UNK     1      14.361   7.598   8.784  1.00  0.00     0.000 A 
HETATM    6  C6  UNK     1      13.145   7.568   7.987  1.00  0.00     0.037 A 
HETATM    7  C7  UNK     1      14.836   6.412   9.331  1.00  0.00     0.089 A 
HETATM    8  C10 UNK     1      12.984   5.140   8.360  1.00  0.00     0.304 A 
HETATM    9  C11 UNK     1      15.069   8.780   9.019  1.00  0.00     0.033 A 
HETATM   10  C12 UNK     1      15.995   6.371  10.104  1.00  0.00     0.039 A 
HETATM   11  C13 UNK     1      16.234   8.756   9.791  1.00  0.00     0.011 A 
HETATM   12  C14 UNK     1      16.696   7.553  10.333  1.00  0.00     0.022 A 
ENDROOT
BRANCH   4  13
HETATM   13  C5  UNK     1      11.281   6.487   6.969  1.00  0.00     0.257 C 
HETATM   14  O2  UNK     1      11.338   6.787   5.778  1.00  0.00    -0.267 OA
HETATM   15  N2  UNK     1      10.134   6.190   7.682  1.00  0.00    -0.355 N 
HETATM   16  H5  UNK     1      10.196   5.915   8.659  1.00  0.00     0.162 HD
BRANCH  15  17
HETATM   17  C2  UNK     1       8.814   6.197   7.092  1.00  0.00     0.153 C 
BRANCH  17  18
HETATM   18  C1  UNK     1       7.790   6.804   8.039  1.00  0.00     0.291 C 
BRANCH  18  19
HETATM   19  N1  UNK     1       7.909   6.209   9.364  1.00  0.00     0.081 N 
HETATM   20  C8  UNK     1       7.234   7.036  10.365  1.00  0.00     0.309 C 
HETATM   21  C9  UNK     1       7.359   4.852   9.372  1.00  0.00     0.309 C 
ENDBRANCH  18  19
ENDBRANCH  17  18
ENDBRANCH  15  17
ENDBRANCH   4  13
TORSDOF 4
ENDMDL
