MODEL 1
REMARK VINA RESULT:      -7.9      0.000      0.000
REMARK  6 active torsions:
REMARK  status: ('A' for Active; 'I' for Inactive)
REMARK    1  A    between atoms: C13_17  and  O3_3 
REMARK    2  A    between atoms: C12_16  and  N1_4 
REMARK    3  A    between atoms: C9_13  and  N1_4 
REMARK    4  A    between atoms: C8_12  and  C9_13 
REMARK    5  A    between atoms: C12_16  and  C14_18 
REMARK    6  A    between atoms: C14_18  and  C17_21 
ROOT
HETATM    1  O1  UNK     1      16.325   6.638  32.035  1.00  0.00    -0.274 OA
HETATM    2  O2  UNK     1      14.073   6.830  31.629  1.00  0.00    -0.259 OA
HETATM    3  C1  UNK     1      16.148   8.882  33.685  1.00  0.00    -0.033 A 
HETATM    4  C2  UNK     1      15.850  10.081  34.518  1.00  0.00     0.040 C 
HETATM    5  C3  UNK     1      14.317  10.069  34.568  1.00  0.00     0.009 C 
HETATM    6  C4  UNK     1      13.847   9.224  33.380  1.00  0.00     0.046 C 
HETATM    7  C5  UNK     1      15.059   8.418  33.070  1.00  0.00     0.025 A 
HETATM    8  C6  UNK     1      17.437   8.247  33.505  1.00  0.00     0.006 A 
HETATM    9  C7  UNK     1      17.491   7.124  32.675  1.00  0.00     0.101 A 
HETATM   10  C8  UNK     1      18.682   6.440  32.437  1.00  0.00     0.038 A 
HETATM   11  C10 UNK     1      15.079   7.247  32.190  1.00  0.00     0.295 A 
HETATM   12  C11 UNK     1      18.617   8.690  34.107  1.00  0.00     0.017 A 
HETATM   13  C13 UNK     1      19.851   6.891  33.045  1.00  0.00     0.076 A 
HETATM   14  C15 UNK     1      19.819   8.012  33.877  1.00  0.00     0.038 A 
ENDROOT
BRANCH  10  15
HETATM   15  C9  UNK     1      18.710   5.243  31.544  1.00  0.00     0.316 C 
BRANCH  15  16
HETATM   16  N1  UNK     1      17.984   4.107  32.115  1.00  0.00     0.088 N 
HETATM   17  C16 UNK     1      18.322   3.941  33.526  1.00  0.00     0.310 C 
BRANCH  16  18
HETATM   18  C12 UNK     1      18.284   2.886  31.369  1.00  0.00     0.272 C 
BRANCH  18  19
HETATM   19  C14 UNK     1      18.630   3.221  29.919  1.00  0.00     0.030 C 
BRANCH  19  20
HETATM   20  C17 UNK     1      18.058   2.176  28.959  1.00  0.00    -0.003 C 
HETATM   21  C18 UNK     1      18.916   0.921  28.929  1.00  0.00     0.005 C 
ENDBRANCH  19  20
ENDBRANCH  18  19
ENDBRANCH  16  18
ENDBRANCH  15  16
ENDBRANCH  10  15
BRANCH  13  22
HETATM   22  O3  UNK     1      21.036   6.250  32.839  1.00  0.00    -0.360 OA
HETATM   23  H23 UNK     1      20.901   5.427  32.345  1.00  0.00     0.217 HD
ENDBRANCH  13  22
TORSDOF 6
ENDMDL
MODEL 2
REMARK VINA RESULT:      -7.5      4.218      7.300
REMARK  6 active torsions:
REMARK  status: ('A' for Active; 'I' for Inactive)
REMARK    1  A    between atoms: C13_17  and  O3_3 
REMARK    2  A    between atoms: C12_16  and  N1_4 
REMARK    3  A    between atoms: C9_13  and  N1_4 
REMARK    4  A    between atoms: C8_12  and  C9_13 
REMARK    5  A    between atoms: C12_16  and  C14_18 
REMARK    6  A    between atoms: C14_18  and  C17_21 
ROOT
HETATM    1  O1  UNK     1      18.450   1.019  32.773  1.00  0.00    -0.274 OA
HETATM    2  O2  UNK     1      17.706   2.662  34.194  1.00  0.00    -0.259 OA
HETATM    3  C1  UNK     1      18.793   2.971  30.807  1.00  0.00    -0.033 A 
HETATM    4  C2  UNK     1      18.907   4.148  29.902  1.00  0.00     0.040 C 
HETATM    5  C3  UNK     1      18.751   5.323  30.875  1.00  0.00     0.009 C 
HETATM    6  C4  UNK     1      18.058   4.768  32.124  1.00  0.00     0.046 C 
HETATM    7  C5  UNK     1      18.334   3.310  32.014  1.00  0.00     0.025 A 
HETATM    8  C6  UNK     1      19.111   1.594  30.488  1.00  0.00     0.006 A 
HETATM    9  C7  UNK     1      18.931   0.642  31.495  1.00  0.00     0.101 A 
HETATM   10  C8  UNK     1      19.209  -0.709  31.290  1.00  0.00     0.038 A 
HETATM   11  C10 UNK     1      18.130   2.339  33.091  1.00  0.00     0.295 A 
HETATM   12  C11 UNK     1      19.581   1.170  29.244  1.00  0.00     0.017 A 
HETATM   13  C13 UNK     1      19.678  -1.119  30.044  1.00  0.00     0.076 A 
HETATM   14  C15 UNK     1      19.863  -0.183  29.024  1.00  0.00     0.038 A 
ENDROOT
BRANCH  10  15
HETATM   15  C9  UNK     1      19.006  -1.705  32.384  1.00  0.00     0.316 C 
BRANCH  15  16
HETATM   16  N1  UNK     1      20.107  -1.702  33.349  1.00  0.00     0.088 N 
HETATM   17  C16 UNK     1      21.163  -2.617  32.923  1.00  0.00     0.310 C 
BRANCH  16  18
HETATM   18  C12 UNK     1      19.620  -2.066  34.678  1.00  0.00     0.272 C 
BRANCH  18  19
HETATM   19  C14 UNK     1      18.991  -0.852  35.363  1.00  0.00     0.030 C 
BRANCH  19  20
HETATM   20  C17 UNK     1      17.626  -1.200  35.959  1.00  0.00    -0.003 C 
HETATM   21  C18 UNK     1      16.498  -0.862  34.997  1.00  0.00     0.005 C 
ENDBRANCH  19  20
ENDBRANCH  18  19
ENDBRANCH  16  18
ENDBRANCH  15  16
ENDBRANCH  10  15
BRANCH  13  22
HETATM   22  O3  UNK     1      19.962  -2.429  29.803  1.00  0.00    -0.360 OA
HETATM   23  H23 UNK     1      20.838  -2.524  29.399  1.00  0.00     0.217 HD
ENDBRANCH  13  22
TORSDOF 6
ENDMDL
MODEL 3
REMARK VINA RESULT:      -7.4     21.857     23.112
REMARK  6 active torsions:
REMARK  status: ('A' for Active; 'I' for Inactive)
REMARK    1  A    between atoms: C13_17  and  O3_3 
REMARK    2  A    between atoms: C12_16  and  N1_4 
REMARK    3  A    between atoms: C9_13  and  N1_4 
REMARK    4  A    between atoms: C8_12  and  C9_13 
REMARK    5  A    between atoms: C12_16  and  C14_18 
REMARK    6  A    between atoms: C14_18  and  C17_21 
ROOT
HETATM    1  O1  UNK     1      13.164   7.938  10.794  1.00  0.00    -0.274 OA
HETATM    2  O2  UNK     1      11.552   9.443  11.433  1.00  0.00    -0.259 OA
HETATM    3  C1  UNK     1      15.052   9.986  10.980  1.00  0.00    -0.033 A 
HETATM    4  C2  UNK     1      15.899  11.201  11.138  1.00  0.00     0.040 C 
HETATM    5  C3  UNK     1      14.961  12.158  11.883  1.00  0.00     0.009 C 
HETATM    6  C4  UNK     1      13.536  11.650  11.641  1.00  0.00     0.046 C 
HETATM    7  C5  UNK     1      13.770  10.232  11.256  1.00  0.00     0.025 A 
HETATM    8  C6  UNK     1      15.490   8.667  10.572  1.00  0.00     0.006 A 
HETATM    9  C7  UNK     1      14.520   7.664  10.490  1.00  0.00     0.101 A 
HETATM   10  C8  UNK     1      14.838   6.361  10.108  1.00  0.00     0.038 A 
HETATM   11  C10 UNK     1      12.727   9.206  11.179  1.00  0.00     0.295 A 
HETATM   12  C11 UNK     1      16.811   8.346  10.255  1.00  0.00     0.017 A 
HETATM   13  C13 UNK     1      16.160   6.054   9.797  1.00  0.00     0.076 A 
HETATM   14  C15 UNK     1      17.144   7.043   9.869  1.00  0.00     0.038 A 
ENDROOT
BRANCH  10  15
HETATM   15  C9  UNK     1      13.781   5.309  10.030  1.00  0.00     0.316 C 
BRANCH  15  16
HETATM   16  N1  UNK     1      12.649   5.719   9.199  1.00  0.00     0.088 N 
HETATM   17  C16 UNK     1      11.472   4.908   9.502  1.00  0.00     0.310 C 
BRANCH  16  18
HETATM   18  C12 UNK     1      12.993   5.613   7.782  1.00  0.00     0.272 C 
BRANCH  18  19
HETATM   19  C14 UNK     1      12.332   6.740   6.990  1.00  0.00     0.030 C 
BRANCH  19  20
HETATM   20  C17 UNK     1      11.362   6.186   5.945  1.00  0.00    -0.003 C 
HETATM   21  C18 UNK     1       9.919   6.299   6.411  1.00  0.00     0.005 C 
ENDBRANCH  19  20
ENDBRANCH  18  19
ENDBRANCH  16  18
ENDBRANCH  15  16
ENDBRANCH  10  15
BRANCH  13  22
HETATM   22  O3  UNK     1      16.513   4.793   9.420  1.00  0.00    -0.360 OA
HETATM   23  H23 UNK     1      17.477   4.700   9.385  1.00  0.00     0.217 HD
ENDBRANCH  13  22
TORSDOF 6
ENDMDL
MODEL 4
REMARK VINA RESULT:      -7.3      4.174      7.780
REMARK  6 active torsions:
REMARK  status: ('A' for Active; 'I' for Inactive)
REMARK    1  A    between atoms: C13_17  and  O3_3 
REMARK    2  A    between atoms: C12_16  and  N1_4 
REMARK    3  A    between atoms: C9_13  and  N1_4 
REMARK    4  A    between atoms: C8_12  and  C9_13 
REMARK    5  A    between atoms: C12_16  and  C14_18 
REMARK    6  A    between atoms: C14_18  and  C17_21 
ROOT
HETATM    1  O1  UNK     1      18.621   1.494  32.429  1.00  0.00    -0.274 OA
HETATM    2  O2  UNK     1      17.635   2.755  34.075  1.00  0.00    -0.259 OA
HETATM    3  C1  UNK     1      18.611  -0.678  34.181  1.00  0.00    -0.033 A 
HETATM    4  C2  UNK     1      18.515  -1.707  35.254  1.00  0.00     0.040 C 
HETATM    5  C3  UNK     1      17.568  -1.042  36.260  1.00  0.00     0.009 C 
HETATM    6  C4  UNK     1      17.608   0.462  35.970  1.00  0.00     0.046 C 
HETATM    7  C5  UNK     1      18.116   0.499  34.572  1.00  0.00     0.025 A 
HETATM    8  C6  UNK     1      19.169  -0.852  32.856  1.00  0.00     0.006 A 
HETATM    9  C7  UNK     1      19.157   0.254  32.003  1.00  0.00     0.101 A 
HETATM   10  C8  UNK     1      19.668   0.191  30.707  1.00  0.00     0.038 A 
HETATM   11  C10 UNK     1      18.090   1.679  33.706  1.00  0.00     0.295 A 
HETATM   12  C11 UNK     1      19.715  -2.049  32.390  1.00  0.00     0.017 A 
HETATM   13  C13 UNK     1      20.208  -1.010  30.254  1.00  0.00     0.076 A 
HETATM   14  C15 UNK     1      20.232  -2.126  31.092  1.00  0.00     0.038 A 
ENDROOT
BRANCH  10  15
HETATM   15  C9  UNK     1      19.642   1.390  29.816  1.00  0.00     0.316 C 
BRANCH  15  16
HETATM   16  N1  UNK     1      18.279   1.793  29.468  1.00  0.00     0.088 N 
HETATM   17  C16 UNK     1      17.832   1.096  28.264  1.00  0.00     0.310 C 
BRANCH  16  18
HETATM   18  C12 UNK     1      18.210   3.241  29.276  1.00  0.00     0.272 C 
BRANCH  18  19
HETATM   19  C14 UNK     1      18.920   3.962  30.422  1.00  0.00     0.030 C 
BRANCH  19  20
HETATM   20  C17 UNK     1      19.280   5.397  30.033  1.00  0.00    -0.003 C 
HETATM   21  C18 UNK     1      19.702   6.212  31.245  1.00  0.00     0.005 C 
ENDBRANCH  19  20
ENDBRANCH  18  19
ENDBRANCH  16  18
ENDBRANCH  15  16
ENDBRANCH  10  15
BRANCH  13  22
HETATM   22  O3  UNK     1      20.718  -1.113  28.995  1.00  0.00    -0.360 OA
HETATM   23  H23 UNK     1      20.023  -0.988  28.330  1.00  0.00     0.217 HD
ENDBRANCH  13  22
TORSDOF 6
ENDMDL
MODEL 5
REMARK VINA RESULT:      -7.3      4.366      8.705
REMARK  6 active torsions:
REMARK  status: ('A' for Active; 'I' for Inactive)
REMARK    1  A    between atoms: C13_17  and  O3_3 
REMARK    2  A    between atoms: C12_16  and  N1_4 
REMARK    3  A    between atoms: C9_13  and  N1_4 
REMARK    4  A    between atoms: C8_12  and  C9_13 
REMARK    5  A    between atoms: C12_16  and  C14_18 
REMARK    6  A    between atoms: C14_18  and  C17_21 
ROOT
HETATM    1  O1  UNK     1      18.391   0.731  32.469  1.00  0.00    -0.274 OA
HETATM    2  O2  UNK     1      18.082   1.989  30.574  1.00  0.00    -0.259 OA
HETATM    3  C1  UNK     1      19.975  -1.012  30.971  1.00  0.00    -0.033 A 
HETATM    4  C2  UNK     1      20.781  -1.814  30.010  1.00  0.00     0.040 C 
HETATM    5  C3  UNK     1      20.901  -0.864  28.812  1.00  0.00     0.009 C 
HETATM    6  C4  UNK     1      19.763   0.154  28.946  1.00  0.00     0.046 C 
HETATM    7  C5  UNK     1      19.425   0.057  30.391  1.00  0.00     0.025 A 
HETATM    8  C6  UNK     1      19.757  -1.297  32.374  1.00  0.00     0.006 A 
HETATM    9  C7  UNK     1      18.961  -0.404  33.097  1.00  0.00     0.101 A 
HETATM   10  C8  UNK     1      18.692  -0.587  34.452  1.00  0.00     0.038 A 
HETATM   11  C10 UNK     1      18.583   1.012  31.116  1.00  0.00     0.295 A 
HETATM   12  C11 UNK     1      20.290  -2.404  33.038  1.00  0.00     0.017 A 
HETATM   13  C13 UNK     1      19.231  -1.694  35.102  1.00  0.00     0.076 A 
HETATM   14  C15 UNK     1      20.027  -2.600  34.398  1.00  0.00     0.038 A 
ENDROOT
BRANCH  10  15
HETATM   15  C9  UNK     1      17.838   0.384  35.199  1.00  0.00     0.316 C 
BRANCH  15  16
HETATM   16  N1  UNK     1      18.594   1.131  36.204  1.00  0.00     0.088 N 
HETATM   17  C16 UNK     1      17.748   1.443  37.354  1.00  0.00     0.310 C 
BRANCH  16  18
HETATM   18  C12 UNK     1      19.141   2.356  35.623  1.00  0.00     0.272 C 
BRANCH  18  19
HETATM   19  C14 UNK     1      18.162   2.943  34.607  1.00  0.00     0.030 C 
BRANCH  19  20
HETATM   20  C17 UNK     1      18.624   4.321  34.129  1.00  0.00    -0.003 C 
HETATM   21  C18 UNK     1      17.998   4.683  32.791  1.00  0.00     0.005 C 
ENDBRANCH  19  20
ENDBRANCH  18  19
ENDBRANCH  16  18
ENDBRANCH  15  16
ENDBRANCH  10  15
BRANCH  13  22
HETATM   22  O3  UNK     1      18.992  -1.909  36.426  1.00  0.00    -0.360 OA
HETATM   23  H23 UNK     1      19.067  -1.084  36.929  1.00  0.00     0.217 HD
ENDBRANCH  13  22
TORSDOF 6
ENDMDL
MODEL 6
REMARK VINA RESULT:      -7.3     17.837     19.583
REMARK  6 active torsions:
REMARK  status: ('A' for Active; 'I' for Inactive)
REMARK    1  A    between atoms: C13_17  and  O3_3 
REMARK    2  A    between atoms: C12_16  and  N1_4 
REMARK    3  A    between atoms: C9_13  and  N1_4 
REMARK    4  A    between atoms: C8_12  and  C9_13 
REMARK    5  A    between atoms: C12_16  and  C14_18 
REMARK    6  A    between atoms: C14_18  and  C17_21 
ROOT
HETATM    1  O1  UNK     1      29.868  -7.595  36.146  1.00  0.00    -0.274 OA
HETATM    2  O2  UNK     1      29.203  -9.764  35.793  1.00  0.00    -0.259 OA
HETATM    3  C1  UNK     1      28.444  -7.622  38.547  1.00  0.00    -0.033 A 
HETATM    4  C2  UNK     1      27.635  -7.834  39.779  1.00  0.00     0.040 C 
HETATM    5  C3  UNK     1      27.438  -9.355  39.782  1.00  0.00     0.009 C 
HETATM    6  C4  UNK     1      27.675  -9.829  38.344  1.00  0.00     0.046 C 
HETATM    7  C5  UNK     1      28.466  -8.707  37.770  1.00  0.00     0.025 A 
HETATM    8  C6  UNK     1      29.142  -6.413  38.162  1.00  0.00     0.006 A 
HETATM    9  C7  UNK     1      29.847  -6.433  36.956  1.00  0.00     0.101 A 
HETATM   10  C8  UNK     1      30.553  -5.322  36.497  1.00  0.00     0.038 A 
HETATM   11  C10 UNK     1      29.191  -8.763  36.499  1.00  0.00     0.295 A 
HETATM   12  C11 UNK     1      29.148  -5.240  38.920  1.00  0.00     0.017 A 
HETATM   13  C13 UNK     1      30.552  -4.159  37.263  1.00  0.00     0.076 A 
HETATM   14  C15 UNK     1      29.852  -4.118  38.470  1.00  0.00     0.038 A 
ENDROOT
BRANCH  10  15
HETATM   15  C9  UNK     1      31.298  -5.372  35.203  1.00  0.00     0.316 C 
BRANCH  15  16
HETATM   16  N1  UNK     1      32.710  -5.709  35.388  1.00  0.00     0.088 N 
HETATM   17  C16 UNK     1      33.563  -4.674  34.807  1.00  0.00     0.310 C 
BRANCH  16  18
HETATM   18  C12 UNK     1      33.006  -7.010  34.790  1.00  0.00     0.272 C 
BRANCH  18  19
HETATM   19  C14 UNK     1      33.249  -8.052  35.882  1.00  0.00     0.030 C 
BRANCH  19  20
HETATM   20  C17 UNK     1      33.536  -7.383  37.228  1.00  0.00    -0.003 C 
HETATM   21  C18 UNK     1      32.588  -7.880  38.308  1.00  0.00     0.005 C 
ENDBRANCH  19  20
ENDBRANCH  18  19
ENDBRANCH  16  18
ENDBRANCH  15  16
ENDBRANCH  10  15
BRANCH  13  22
HETATM   22  O3  UNK     1      31.230  -3.052  36.850  1.00  0.00    -0.360 OA
HETATM   23  H23 UNK     1      32.156  -3.088  37.134  1.00  0.00     0.217 HD
ENDBRANCH  13  22
TORSDOF 6
ENDMDL
MODEL 7
REMARK VINA RESULT:      -7.3      4.045      6.624
REMARK  6 active torsions:
REMARK  status: ('A' for Active; 'I' for Inactive)
REMARK    1  A    between atoms: C13_17  and  O3_3 
REMARK    2  A    between atoms: C12_16  and  N1_4 
REMARK    3  A    between atoms: C9_13  and  N1_4 
REMARK    4  A    between atoms: C8_12  and  C9_13 
REMARK    5  A    between atoms: C12_16  and  C14_18 
REMARK    6  A    between atoms: C14_18  and  C17_21 
ROOT
HETATM    1  O1  UNK     1      18.082   3.164  33.670  1.00  0.00    -0.274 OA
HETATM    2  O2  UNK     1      17.687   5.395  34.043  1.00  0.00    -0.259 OA
HETATM    3  C1  UNK     1      18.696   3.787  31.019  1.00  0.00    -0.033 A 
HETATM    4  C2  UNK     1      18.984   4.319  29.658  1.00  0.00     0.040 C 
HETATM    5  C3  UNK     1      19.070   5.829  29.909  1.00  0.00     0.009 C 
HETATM    6  C4  UNK     1      18.333   6.096  31.226  1.00  0.00     0.046 C 
HETATM    7  C5  UNK     1      18.345   4.755  31.869  1.00  0.00     0.025 A 
HETATM    8  C6  UNK     1      18.756   2.404  31.444  1.00  0.00     0.006 A 
HETATM    9  C7  UNK     1      18.445   2.126  32.778  1.00  0.00     0.101 A 
HETATM   10  C8  UNK     1      18.475   0.828  33.286  1.00  0.00     0.038 A 
HETATM   11  C10 UNK     1      18.009   4.500  33.272  1.00  0.00     0.295 A 
HETATM   12  C11 UNK     1      19.102   1.344  30.603  1.00  0.00     0.017 A 
HETATM   13  C13 UNK     1      18.822  -0.220  32.437  1.00  0.00     0.076 A 
HETATM   14  C15 UNK     1      19.134   0.036  31.100  1.00  0.00     0.038 A 
ENDROOT
BRANCH  10  15
HETATM   15  C9  UNK     1      18.138   0.560  34.716  1.00  0.00     0.316 C 
BRANCH  15  16
HETATM   16  N1  UNK     1      16.960  -0.297  34.858  1.00  0.00     0.088 N 
HETATM   17  C16 UNK     1      15.792   0.497  35.233  1.00  0.00     0.310 C 
BRANCH  16  18
HETATM   18  C12 UNK     1      17.209  -1.342  35.851  1.00  0.00     0.272 C 
BRANCH  18  19
HETATM   19  C14 UNK     1      18.532  -1.084  36.572  1.00  0.00     0.030 C 
BRANCH  19  20
HETATM   20  C17 UNK     1      19.354  -2.369  36.692  1.00  0.00    -0.003 C 
HETATM   21  C18 UNK     1      20.642  -2.281  35.890  1.00  0.00     0.005 C 
ENDBRANCH  19  20
ENDBRANCH  18  19
ENDBRANCH  16  18
ENDBRANCH  15  16
ENDBRANCH  10  15
BRANCH  13  22
HETATM   22  O3  UNK     1      18.863  -1.502  32.895  1.00  0.00    -0.360 OA
HETATM   23  H23 UNK     1      18.835  -1.524  33.864  1.00  0.00     0.217 HD
ENDBRANCH  13  22
TORSDOF 6
ENDMDL
MODEL 8
REMARK VINA RESULT:      -7.2     13.533     17.546
REMARK  6 active torsions:
REMARK  status: ('A' for Active; 'I' for Inactive)
REMARK    1  A    between atoms: C13_17  and  O3_3 
REMARK    2  A    between atoms: C12_16  and  N1_4 
REMARK    3  A    between atoms: C9_13  and  N1_4 
REMARK    4  A    between atoms: C8_12  and  C9_13 
REMARK    5  A    between atoms: C12_16  and  C14_18 
REMARK    6  A    between atoms: C14_18  and  C17_21 
ROOT
HETATM    1  O1  UNK     1      23.172  -8.325  37.648  1.00  0.00    -0.274 OA
HETATM    2  O2  UNK     1      25.457  -8.204  37.460  1.00  0.00    -0.259 OA
HETATM    3  C1  UNK     1      23.274 -10.832  36.426  1.00  0.00    -0.033 A 
HETATM    4  C2  UNK     1      23.536 -12.142  35.767  1.00  0.00     0.040 C 
HETATM    5  C3  UNK     1      25.056 -12.283  35.915  1.00  0.00     0.009 C 
HETATM    6  C4  UNK     1      25.604 -10.872  36.156  1.00  0.00     0.046 C 
HETATM    7  C5  UNK     1      24.399 -10.146  36.638  1.00  0.00     0.025 A 
HETATM    8  C6  UNK     1      21.986 -10.295  36.811  1.00  0.00     0.006 A 
HETATM    9  C7  UNK     1      21.969  -9.038  37.422  1.00  0.00     0.101 A 
HETATM   10  C8  UNK     1      20.782  -8.433  37.831  1.00  0.00     0.038 A 
HETATM   11  C10 UNK     1      24.419  -8.826  37.273  1.00  0.00     0.295 A 
HETATM   12  C11 UNK     1      20.772 -10.953  36.606  1.00  0.00     0.017 A 
HETATM   13  C13 UNK     1      19.578  -9.101  37.622  1.00  0.00     0.076 A 
HETATM   14  C15 UNK     1      19.572 -10.357  37.011  1.00  0.00     0.038 A 
ENDROOT
BRANCH  10  15
HETATM   15  C9  UNK     1      20.794  -7.088  38.482  1.00  0.00     0.316 C 
BRANCH  15  16
HETATM   16  N1  UNK     1      21.067  -6.012  37.529  1.00  0.00     0.088 N 
HETATM   17  C16 UNK     1      21.913  -4.990  38.141  1.00  0.00     0.310 C 
BRANCH  16  18
HETATM   18  C12 UNK     1      19.815  -5.424  37.054  1.00  0.00     0.272 C 
BRANCH  18  19
HETATM   19  C14 UNK     1      19.784  -5.407  35.526  1.00  0.00     0.030 C 
BRANCH  19  20
HETATM   20  C17 UNK     1      19.417  -6.782  34.966  1.00  0.00    -0.003 C 
HETATM   21  C18 UNK     1      20.603  -7.436  34.275  1.00  0.00     0.005 C 
ENDBRANCH  19  20
ENDBRANCH  18  19
ENDBRANCH  16  18
ENDBRANCH  15  16
ENDBRANCH  10  15
BRANCH  13  22
HETATM   22  O3  UNK     1      18.396  -8.545  38.008  1.00  0.00    -0.360 OA
HETATM   23  H23 UNK     1      18.498  -8.058  38.840  1.00  0.00     0.217 HD
ENDBRANCH  13  22
TORSDOF 6
ENDMDL
MODEL 9
REMARK VINA RESULT:      -7.2      4.786      8.395
REMARK  6 active torsions:
REMARK  status: ('A' for Active; 'I' for Inactive)
REMARK    1  A    between atoms: C13_17  and  O3_3 
REMARK    2  A    between atoms: C12_16  and  N1_4 
REMARK    3  A    between atoms: C9_13  and  N1_4 
REMARK    4  A    between atoms: C8_12  and  C9_13 
REMARK    5  A    between atoms: C12_16  and  C14_18 
REMARK    6  A    between atoms: C14_18  and  C17_21 
ROOT
HETATM    1  O1  UNK     1      19.301  -0.571  33.176  1.00  0.00    -0.274 OA
HETATM    2  O2  UNK     1      20.096  -2.599  32.450  1.00  0.00    -0.259 OA
HETATM    3  C1  UNK     1      19.426   0.342  30.541  1.00  0.00    -0.033 A 
HETATM    4  C2  UNK     1      19.563   0.638  29.088  1.00  0.00     0.040 C 
HETATM    5  C3  UNK     1      19.765  -0.759  28.489  1.00  0.00     0.009 C 
HETATM    6  C4  UNK     1      20.243  -1.660  29.632  1.00  0.00     0.046 C 
HETATM    7  C5  UNK     1      19.794  -0.907  30.834  1.00  0.00     0.025 A 
HETATM    8  C6  UNK     1      18.967   1.248  31.574  1.00  0.00     0.006 A 
HETATM    9  C7  UNK     1      18.914   0.760  32.882  1.00  0.00     0.101 A 
HETATM   10  C8  UNK     1      18.487   1.550  33.947  1.00  0.00     0.038 A 
HETATM   11  C10 UNK     1      19.754  -1.451  32.193  1.00  0.00     0.295 A 
HETATM   12  C11 UNK     1      18.582   2.569  31.338  1.00  0.00     0.017 A 
HETATM   13  C13 UNK     1      18.103   2.866  33.699  1.00  0.00     0.076 A 
HETATM   14  C15 UNK     1      18.151   3.374  32.399  1.00  0.00     0.038 A 
ENDROOT
BRANCH  10  15
HETATM   15  C9  UNK     1      18.440   1.001  35.336  1.00  0.00     0.316 C 
BRANCH  15  16
HETATM   16  N1  UNK     1      17.128   0.445  35.670  1.00  0.00     0.088 N 
HETATM   17  C16 UNK     1      16.593   1.084  36.870  1.00  0.00     0.310 C 
BRANCH  16  18
HETATM   18  C12 UNK     1      17.222  -1.002  35.859  1.00  0.00     0.272 C 
BRANCH  18  19
HETATM   19  C14 UNK     1      18.284  -1.331  36.907  1.00  0.00     0.030 C 
BRANCH  19  20
HETATM   20  C17 UNK     1      19.077  -2.580  36.515  1.00  0.00    -0.003 C 
HETATM   21  C18 UNK     1      20.466  -2.222  36.013  1.00  0.00     0.005 C 
ENDBRANCH  19  20
ENDBRANCH  18  19
ENDBRANCH  16  18
ENDBRANCH  15  16
ENDBRANCH  10  15
BRANCH  13  22
HETATM   22  O3  UNK     1      17.679   3.671  34.712  1.00  0.00    -0.360 OA
HETATM   23  H23 UNK     1      18.431   4.009  35.223  1.00  0.00     0.217 HD
ENDBRANCH  13  22
TORSDOF 6
ENDMDL
MODEL 10
REMARK VINA RESULT:      -7.2      0.971      2.181
REMARK  6 active torsions:
REMARK  status: ('A' for Active; 'I' for Inactive)
REMARK    1  A    between atoms: C13_17  and  O3_3 
REMARK    2  A    between atoms: C12_16  and  N1_4 
REMARK    3  A    between atoms: C9_13  and  N1_4 
REMARK    4  A    between atoms: C8_12  and  C9_13 
REMARK    5  A    between atoms: C12_16  and  C14_18 
REMARK    6  A    between atoms: C14_18  and  C17_21 
ROOT
HETATM    1  O1  UNK     1      16.436   6.837  31.730  1.00  0.00    -0.274 OA
HETATM    2  O2  UNK     1      14.197   7.139  31.323  1.00  0.00    -0.259 OA
HETATM    3  C1  UNK     1      16.275   8.810  33.697  1.00  0.00    -0.033 A 
HETATM    4  C2  UNK     1      15.986   9.876  34.697  1.00  0.00     0.040 C 
HETATM    5  C3  UNK     1      14.453   9.892  34.722  1.00  0.00     0.009 C 
HETATM    6  C4  UNK     1      13.988   9.246  33.412  1.00  0.00     0.046 C 
HETATM    7  C5  UNK     1      15.188   8.469  33.002  1.00  0.00     0.025 A 
HETATM    8  C6  UNK     1      17.554   8.179  33.444  1.00  0.00     0.006 A 
HETATM    9  C7  UNK     1      17.600   7.194  32.454  1.00  0.00     0.101 A 
HETATM   10  C8  UNK     1      18.781   6.526  32.134  1.00  0.00     0.038 A 
HETATM   11  C10 UNK     1      15.200   7.443  31.956  1.00  0.00     0.295 A 
HETATM   12  C11 UNK     1      18.731   8.499  34.123  1.00  0.00     0.017 A 
HETATM   13  C13 UNK     1      19.948   6.853  32.821  1.00  0.00     0.076 A 
HETATM   14  C15 UNK     1      19.923   7.837  33.812  1.00  0.00     0.038 A 
ENDROOT
BRANCH  10  15
HETATM   15  C9  UNK     1      18.801   5.477  31.071  1.00  0.00     0.316 C 
BRANCH  15  16
HETATM   16  N1  UNK     1      18.920   4.127  31.625  1.00  0.00     0.088 N 
HETATM   17  C16 UNK     1      18.541   3.130  30.626  1.00  0.00     0.310 C 
BRANCH  16  18
HETATM   18  C12 UNK     1      18.091   3.994  32.822  1.00  0.00     0.272 C 
BRANCH  18  19
HETATM   19  C14 UNK     1      18.157   2.563  33.355  1.00  0.00     0.030 C 
BRANCH  19  20
HETATM   20  C17 UNK     1      18.438   2.547  34.859  1.00  0.00    -0.003 C 
HETATM   21  C18 UNK     1      18.505   1.127  35.397  1.00  0.00     0.005 C 
ENDBRANCH  19  20
ENDBRANCH  18  19
ENDBRANCH  16  18
ENDBRANCH  15  16
ENDBRANCH  10  15
BRANCH  13  22
HETATM   22  O3  UNK     1      21.122   6.224  32.539  1.00  0.00    -0.360 OA
HETATM   23  H23 UNK     1      20.984   5.271  32.421  1.00  0.00     0.217 HD
ENDBRANCH  13  22
TORSDOF 6
ENDMDL
