MODEL 1
REMARK VINA RESULT:      -8.3      0.000      0.000
REMARK  1 active torsions:
REMARK  status: ('A' for Active; 'I' for Inactive)
REMARK    1  A    between atoms: C1_7  and  C4_10 
ROOT
HETATM    1 Cl1  UNK     1      18.665   2.179  20.331  1.00  0.00    -0.084 Cl
HETATM    2  O1  UNK     1      19.448   0.691  14.689  1.00  0.00    -0.303 OA
HETATM    3  O2  UNK     1      19.696  -0.453  11.996  1.00  0.00    -0.265 OA
HETATM    4  O3  UNK     1      18.298  -2.252  17.316  1.00  0.00    -0.287 OA
HETATM    5  N1  UNK     1      19.098  -2.492  13.037  1.00  0.00    -0.338 N 
HETATM    6  C1  UNK     1      18.775  -2.932  14.393  1.00  0.00     0.160 A 
HETATM    7  C2  UNK     1      18.898  -1.634  15.118  1.00  0.00     0.060 A 
HETATM    8  C3  UNK     1      19.258  -0.613  14.336  1.00  0.00     0.156 A 
HETATM    9  C5  UNK     1      19.394  -1.130  12.964  1.00  0.00     0.278 A 
HETATM   10  C6  UNK     1      18.653  -1.376  16.542  1.00  0.00     0.196 A 
HETATM   11  C7  UNK     1      18.867   0.028  16.967  1.00  0.00     0.050 A 
HETATM   12  C8  UNK     1      19.026  -3.383  11.895  1.00  0.00     0.154 C 
HETATM   13  C9  UNK     1      19.254   0.988  16.021  1.00  0.00     0.090 A 
HETATM   14  C12 UNK     1      18.683   0.393  18.303  1.00  0.00     0.042 A 
HETATM   15  C13 UNK     1      19.457   2.311  16.411  1.00  0.00     0.040 A 
HETATM   16  C16 UNK     1      18.888   1.719  18.688  1.00  0.00     0.035 A 
HETATM   17  C18 UNK     1      19.274   2.675  17.744  1.00  0.00     0.026 A 
ENDROOT
BRANCH   6  18
HETATM   18  C4  UNK     1      19.728  -3.963  14.894  1.00  0.00    -0.030 A 
HETATM   19  C10 UNK     1      19.332  -5.298  14.977  1.00  0.00     0.012 A 
HETATM   20  C14 UNK     1      20.225  -6.262  15.446  1.00  0.00     0.043 A 
HETATM   21  C17 UNK     1      21.514  -5.891  15.830  1.00  0.00     0.116 A 
HETATM   22  C15 UNK     1      21.909  -4.557  15.746  1.00  0.00     0.043 A 
HETATM   23  F1  UNK     1      22.371  -6.818  16.279  1.00  0.00    -0.206 F 
HETATM   24  C11 UNK     1      21.017  -3.592  15.278  1.00  0.00     0.012 A 
ENDBRANCH   6  18
TORSDOF 1
ENDMDL
MODEL 2
REMARK VINA RESULT:      -8.2     21.238     23.018
REMARK  1 active torsions:
REMARK  status: ('A' for Active; 'I' for Inactive)
REMARK    1  A    between atoms: C1_7  and  C4_10 
ROOT
HETATM    1 Cl1  UNK     1      25.854  -6.581  30.290  1.00  0.00    -0.084 Cl
HETATM    2  O1  UNK     1      31.347  -6.397  32.401  1.00  0.00    -0.303 OA
HETATM    3  O2  UNK     1      33.907  -6.436  33.838  1.00  0.00    -0.265 OA
HETATM    4  O3  UNK     1      28.304  -7.276  35.019  1.00  0.00    -0.287 OA
HETATM    5  N1  UNK     1      32.590  -6.928  35.741  1.00  0.00    -0.338 N 
HETATM    6  C1  UNK     1      31.167  -7.109  36.024  1.00  0.00     0.160 A 
HETATM    7  C2  UNK     1      30.607  -6.907  34.656  1.00  0.00     0.060 A 
HETATM    8  C3  UNK     1      31.531  -6.627  33.733  1.00  0.00     0.156 A 
HETATM    9  C5  UNK     1      32.844  -6.636  34.400  1.00  0.00     0.278 A 
HETATM   10  C6  UNK     1      29.203  -7.000  34.239  1.00  0.00     0.196 A 
HETATM   11  C7  UNK     1      28.961  -6.739  32.801  1.00  0.00     0.050 A 
HETATM   12  C8  UNK     1      33.612  -7.122  36.751  1.00  0.00     0.154 C 
HETATM   13  C9  UNK     1      30.043  -6.449  31.956  1.00  0.00     0.090 A 
HETATM   14  C12 UNK     1      27.662  -6.781  32.288  1.00  0.00     0.042 A 
HETATM   15  C13 UNK     1      29.825  -6.203  30.601  1.00  0.00     0.040 A 
HETATM   16  C16 UNK     1      27.450  -6.532  30.931  1.00  0.00     0.035 A 
HETATM   17  C18 UNK     1      28.529  -6.245  30.091  1.00  0.00     0.026 A 
ENDROOT
BRANCH   6  18
HETATM   18  C4  UNK     1      30.656  -6.112  37.008  1.00  0.00    -0.030 A 
HETATM   19  C10 UNK     1      30.892  -4.751  36.811  1.00  0.00     0.012 A 
HETATM   20  C14 UNK     1      30.413  -3.820  37.732  1.00  0.00     0.043 A 
HETATM   21  C17 UNK     1      29.697  -4.249  38.850  1.00  0.00     0.116 A 
HETATM   22  C15 UNK     1      29.461  -5.609  39.047  1.00  0.00     0.043 A 
HETATM   23  F1  UNK     1      29.236  -3.354  39.734  1.00  0.00    -0.206 F 
HETATM   24  C11 UNK     1      29.940  -6.541  38.127  1.00  0.00     0.012 A 
ENDBRANCH   6  18
TORSDOF 1
ENDMDL
MODEL 3
REMARK VINA RESULT:      -8.1     16.694     19.553
REMARK  1 active torsions:
REMARK  status: ('A' for Active; 'I' for Inactive)
REMARK    1  A    between atoms: C1_7  and  C4_10 
ROOT
HETATM    1 Cl1  UNK     1      17.889   0.373  38.131  1.00  0.00    -0.084 Cl
HETATM    2  O1  UNK     1      17.972   1.719  32.400  1.00  0.00    -0.303 OA
HETATM    3  O2  UNK     1      18.173   2.782  29.671  1.00  0.00    -0.265 OA
HETATM    4  O3  UNK     1      19.023   4.648  35.082  1.00  0.00    -0.287 OA
HETATM    5  N1  UNK     1      18.806   4.800  30.731  1.00  0.00    -0.338 N 
HETATM    6  C1  UNK     1      18.988   5.260  32.106  1.00  0.00     0.160 A 
HETATM    7  C2  UNK     1      18.661   4.004  32.841  1.00  0.00     0.060 A 
HETATM    8  C3  UNK     1      18.318   2.989  32.043  1.00  0.00     0.156 A 
HETATM    9  C5  UNK     1      18.405   3.466  30.653  1.00  0.00     0.278 A 
HETATM   10  C6  UNK     1      18.696   3.777  34.290  1.00  0.00     0.196 A 
HETATM   11  C7  UNK     1      18.309   2.412  34.718  1.00  0.00     0.050 A 
HETATM   12  C8  UNK     1      19.101   5.642  29.587  1.00  0.00     0.154 C 
HETATM   13  C9  UNK     1      17.966   1.454  33.753  1.00  0.00     0.090 A 
HETATM   14  C12 UNK     1      18.287   2.081  36.075  1.00  0.00     0.042 A 
HETATM   15  C13 UNK     1      17.601   0.167  34.146  1.00  0.00     0.040 A 
HETATM   16  C16 UNK     1      17.920   0.791  36.462  1.00  0.00     0.035 A 
HETATM   17  C18 UNK     1      17.579  -0.163  35.500  1.00  0.00     0.026 A 
ENDROOT
BRANCH   6  18
HETATM   18  C4  UNK     1      18.071   6.384  32.452  1.00  0.00    -0.030 A 
HETATM   19  C10 UNK     1      16.692   6.232  32.304  1.00  0.00     0.012 A 
HETATM   20  C14 UNK     1      15.835   7.284  32.627  1.00  0.00     0.043 A 
HETATM   21  C17 UNK     1      16.357   8.488  33.101  1.00  0.00     0.116 A 
HETATM   22  C15 UNK     1      17.735   8.640  33.249  1.00  0.00     0.043 A 
HETATM   23  F1  UNK     1      15.533   9.497  33.413  1.00  0.00    -0.206 F 
HETATM   24  C11 UNK     1      18.593   7.589  32.925  1.00  0.00     0.012 A 
ENDBRANCH   6  18
TORSDOF 1
ENDMDL
MODEL 4
REMARK VINA RESULT:      -7.8     12.172     14.535
REMARK  1 active torsions:
REMARK  status: ('A' for Active; 'I' for Inactive)
REMARK    1  A    between atoms: C1_7  and  C4_10 
ROOT
HETATM    1 Cl1  UNK     1       7.673   7.664   8.325  1.00  0.00    -0.084 Cl
HETATM    2  O1  UNK     1      13.266   5.846   8.609  1.00  0.00    -0.303 OA
HETATM    3  O2  UNK     1      16.122   5.295   9.007  1.00  0.00    -0.265 OA
HETATM    4  O3  UNK     1      12.305   9.412  10.410  1.00  0.00    -0.287 OA
HETATM    5  N1  UNK     1      16.148   7.372  10.140  1.00  0.00    -0.338 N 
HETATM    6  C1  UNK     1      15.174   8.414  10.461  1.00  0.00     0.160 A 
HETATM    7  C2  UNK     1      13.951   7.816   9.850  1.00  0.00     0.060 A 
HETATM    8  C3  UNK     1      14.168   6.643   9.250  1.00  0.00     0.156 A 
HETATM    9  C5  UNK     1      15.593   6.313   9.421  1.00  0.00     0.278 A 
HETATM   10  C6  UNK     1      12.587   8.358   9.861  1.00  0.00     0.196 A 
HETATM   11  C7  UNK     1      11.580   7.528   9.159  1.00  0.00     0.050 A 
HETATM   12  C8  UNK     1      17.519   7.423  10.608  1.00  0.00     0.154 C 
HETATM   13  C9  UNK     1      11.970   6.317   8.569  1.00  0.00     0.090 A 
HETATM   14  C12 UNK     1      10.251   7.948   9.086  1.00  0.00     0.042 A 
HETATM   15  C13 UNK     1      11.030   5.528   7.907  1.00  0.00     0.040 A 
HETATM   16  C16 UNK     1       9.314   7.155   8.421  1.00  0.00     0.035 A 
HETATM   17  C18 UNK     1       9.703   5.948   7.834  1.00  0.00     0.026 A 
ENDROOT
BRANCH   6  18
HETATM   18  C4  UNK     1      15.535   9.728   9.857  1.00  0.00    -0.030 A 
HETATM   19  C10 UNK     1      15.257   9.980   8.513  1.00  0.00     0.012 A 
HETATM   20  C14 UNK     1      15.595  11.210   7.950  1.00  0.00     0.043 A 
HETATM   21  C17 UNK     1      16.209  12.190   8.730  1.00  0.00     0.116 A 
HETATM   22  C15 UNK     1      16.487  11.939  10.073  1.00  0.00     0.043 A 
HETATM   23  F1  UNK     1      16.532  13.372   8.188  1.00  0.00    -0.206 F 
HETATM   24  C11 UNK     1      16.150  10.709  10.637  1.00  0.00     0.012 A 
ENDBRANCH   6  18
TORSDOF 1
ENDMDL
MODEL 5
REMARK VINA RESULT:      -7.7     21.741     23.483
REMARK  1 active torsions:
REMARK  status: ('A' for Active; 'I' for Inactive)
REMARK    1  A    between atoms: C1_7  and  C4_10 
ROOT
HETATM    1 Cl1  UNK     1      27.302  -8.824  29.707  1.00  0.00    -0.084 Cl
HETATM    2  O1  UNK     1      30.070  -5.711  33.869  1.00  0.00    -0.303 OA
HETATM    3  O2  UNK     1      31.462  -4.539  36.172  1.00  0.00    -0.265 OA
HETATM    4  O3  UNK     1      29.170  -9.638  34.677  1.00  0.00    -0.287 OA
HETATM    5  N1  UNK     1      31.163  -6.665  37.166  1.00  0.00    -0.338 N 
HETATM    6  C1  UNK     1      30.554  -7.936  36.780  1.00  0.00     0.160 A 
HETATM    7  C2  UNK     1      30.092  -7.590  35.405  1.00  0.00     0.060 A 
HETATM    8  C3  UNK     1      30.355  -6.330  35.050  1.00  0.00     0.156 A 
HETATM    9  C5  UNK     1      31.060  -5.690  36.173  1.00  0.00     0.278 A 
HETATM   10  C6  UNK     1      29.423  -8.467  34.437  1.00  0.00     0.196 A 
HETATM   11  C7  UNK     1      29.081  -7.825  33.145  1.00  0.00     0.050 A 
HETATM   12  C8  UNK     1      31.866  -6.493  38.423  1.00  0.00     0.154 C 
HETATM   13  C9  UNK     1      29.420  -6.482  32.928  1.00  0.00     0.090 A 
HETATM   14  C12 UNK     1      28.425  -8.554  32.150  1.00  0.00     0.042 A 
HETATM   15  C13 UNK     1      29.104  -5.869  31.716  1.00  0.00     0.040 A 
HETATM   16  C16 UNK     1      28.110  -7.935  30.939  1.00  0.00     0.035 A 
HETATM   17  C18 UNK     1      28.449  -6.597  30.723  1.00  0.00     0.026 A 
ENDROOT
BRANCH   6  18
HETATM   18  C4  UNK     1      29.432  -8.322  37.684  1.00  0.00    -0.030 A 
HETATM   19  C10 UNK     1      28.332  -7.476  37.833  1.00  0.00     0.012 A 
HETATM   20  C14 UNK     1      27.284  -7.839  38.678  1.00  0.00     0.043 A 
HETATM   21  C17 UNK     1      27.333  -9.048  39.373  1.00  0.00     0.116 A 
HETATM   22  C15 UNK     1      28.432  -9.893  39.224  1.00  0.00     0.043 A 
HETATM   23  F1  UNK     1      26.326  -9.396  40.184  1.00  0.00    -0.206 F 
HETATM   24  C11 UNK     1      29.482  -9.531  38.380  1.00  0.00     0.012 A 
ENDBRANCH   6  18
TORSDOF 1
ENDMDL
MODEL 6
REMARK VINA RESULT:      -7.7     21.470     23.335
REMARK  1 active torsions:
REMARK  status: ('A' for Active; 'I' for Inactive)
REMARK    1  A    between atoms: C1_7  and  C4_10 
ROOT
HETATM    1 Cl1  UNK     1      26.692  -5.975  29.804  1.00  0.00    -0.084 Cl
HETATM    2  O1  UNK     1      31.131  -7.911  33.152  1.00  0.00    -0.303 OA
HETATM    3  O2  UNK     1      33.058  -8.851  35.158  1.00  0.00    -0.265 OA
HETATM    4  O3  UNK     1      27.608  -6.910  35.014  1.00  0.00    -0.287 OA
HETATM    5  N1  UNK     1      31.338  -8.391  36.717  1.00  0.00    -0.338 N 
HETATM    6  C1  UNK     1      29.972  -7.872  36.662  1.00  0.00     0.160 A 
HETATM    7  C2  UNK     1      29.836  -7.667  35.191  1.00  0.00     0.060 A 
HETATM    8  C3  UNK     1      30.936  -7.981  34.500  1.00  0.00     0.156 A 
HETATM    9  C5  UNK     1      31.942  -8.464  35.461  1.00  0.00     0.278 A 
HETATM   10  C6  UNK     1      28.657  -7.193  34.457  1.00  0.00     0.196 A 
HETATM   11  C7  UNK     1      28.836  -7.088  32.989  1.00  0.00     0.050 A 
HETATM   12  C8  UNK     1      31.942  -8.852  37.952  1.00  0.00     0.154 C 
HETATM   13  C9  UNK     1      30.062  -7.450  32.413  1.00  0.00     0.090 A 
HETATM   14  C12 UNK     1      27.790  -6.631  32.185  1.00  0.00     0.042 A 
HETATM   15  C13 UNK     1      30.240  -7.356  31.033  1.00  0.00     0.040 A 
HETATM   16  C16 UNK     1      27.975  -6.537  30.804  1.00  0.00     0.035 A 
HETATM   17  C18 UNK     1      29.196  -6.899  30.230  1.00  0.00     0.026 A 
ENDROOT
BRANCH   6  18
HETATM   18  C4  UNK     1      29.817  -6.608  37.436  1.00  0.00    -0.030 A 
HETATM   19  C10 UNK     1      29.001  -6.576  38.567  1.00  0.00     0.012 A 
HETATM   20  C14 UNK     1      28.857  -5.392  39.290  1.00  0.00     0.043 A 
HETATM   21  C17 UNK     1      29.530  -4.240  38.884  1.00  0.00     0.116 A 
HETATM   22  C15 UNK     1      30.346  -4.271  37.754  1.00  0.00     0.043 A 
HETATM   23  F1  UNK     1      29.392  -3.103  39.580  1.00  0.00    -0.206 F 
HETATM   24  C11 UNK     1      30.490  -5.454  37.029  1.00  0.00     0.012 A 
ENDBRANCH   6  18
TORSDOF 1
ENDMDL
MODEL 7
REMARK VINA RESULT:      -7.6     18.804     21.262
REMARK  1 active torsions:
REMARK  status: ('A' for Active; 'I' for Inactive)
REMARK    1  A    between atoms: C1_7  and  C4_10 
ROOT
HETATM    1 Cl1  UNK     1      30.684 -15.656  33.173  1.00  0.00    -0.084 Cl
HETATM    2  O1  UNK     1      32.281 -11.302  29.545  1.00  0.00    -0.303 OA
HETATM    3  O2  UNK     1      32.894  -8.860  28.034  1.00  0.00    -0.265 OA
HETATM    4  O3  UNK     1      30.100 -10.323  32.887  1.00  0.00    -0.287 OA
HETATM    5  N1  UNK     1      31.653  -7.759  29.721  1.00  0.00    -0.338 N 
HETATM    6  C1  UNK     1      30.929  -8.152  30.928  1.00  0.00     0.160 A 
HETATM    7  C2  UNK     1      31.171  -9.624  30.903  1.00  0.00     0.060 A 
HETATM    8  C3  UNK     1      31.888 -10.033  29.852  1.00  0.00     0.156 A 
HETATM    9  C5  UNK     1      32.228  -8.843  29.055  1.00  0.00     0.278 A 
HETATM   10  C6  UNK     1      30.736 -10.622  31.887  1.00  0.00     0.196 A 
HETATM   11  C7  UNK     1      31.131 -12.017  31.579  1.00  0.00     0.050 A 
HETATM   12  C8  UNK     1      31.811  -6.371  29.330  1.00  0.00     0.154 C 
HETATM   13  C9  UNK     1      31.881 -12.286  30.424  1.00  0.00     0.090 A 
HETATM   14  C12 UNK     1      30.758 -13.057  32.432  1.00  0.00     0.042 A 
HETATM   15  C13 UNK     1      32.258 -13.594  30.125  1.00  0.00     0.040 A 
HETATM   16  C16 UNK     1      31.138 -14.366  32.127  1.00  0.00     0.035 A 
HETATM   17  C18 UNK     1      31.885 -14.633  30.978  1.00  0.00     0.026 A 
ENDROOT
BRANCH   6  18
HETATM   18  C4  UNK     1      29.481  -7.807  30.856  1.00  0.00    -0.030 A 
HETATM   19  C10 UNK     1      28.659  -8.434  29.919  1.00  0.00     0.012 A 
HETATM   20  C14 UNK     1      27.304  -8.110  29.852  1.00  0.00     0.043 A 
HETATM   21  C17 UNK     1      26.769  -7.160  30.723  1.00  0.00     0.116 A 
HETATM   22  C15 UNK     1      27.590  -6.533  31.660  1.00  0.00     0.043 A 
HETATM   23  F1  UNK     1      25.468  -6.850  30.659  1.00  0.00    -0.206 F 
HETATM   24  C11 UNK     1      28.946  -6.856  31.727  1.00  0.00     0.012 A 
ENDBRANCH   6  18
TORSDOF 1
ENDMDL
MODEL 8
REMARK VINA RESULT:      -7.6     20.622     22.551
REMARK  1 active torsions:
REMARK  status: ('A' for Active; 'I' for Inactive)
REMARK    1  A    between atoms: C1_7  and  C4_10 
ROOT
HETATM    1 Cl1  UNK     1      25.590  -6.331  29.723  1.00  0.00    -0.084 Cl
HETATM    2  O1  UNK     1      30.146  -9.005  32.321  1.00  0.00    -0.303 OA
HETATM    3  O2  UNK     1      32.309 -10.103  33.975  1.00  0.00    -0.265 OA
HETATM    4  O3  UNK     1      28.127  -6.132  34.454  1.00  0.00    -0.287 OA
HETATM    5  N1  UNK     1      31.568  -8.551  35.600  1.00  0.00    -0.338 N 
HETATM    6  C1  UNK     1      30.522  -7.533  35.691  1.00  0.00     0.160 A 
HETATM    7  C2  UNK     1      29.894  -7.693  34.347  1.00  0.00     0.060 A 
HETATM    8  C3  UNK     1      30.481  -8.620  33.585  1.00  0.00     0.156 A 
HETATM    9  C5  UNK     1      31.579  -9.210  34.370  1.00  0.00     0.278 A 
HETATM   10  C6  UNK     1      28.732  -6.975  33.810  1.00  0.00     0.196 A 
HETATM   11  C7  UNK     1      28.347  -7.355  32.430  1.00  0.00     0.050 A 
HETATM   12  C8  UNK     1      32.431  -8.877  36.719  1.00  0.00     0.154 C 
HETATM   13  C9  UNK     1      29.074  -8.348  31.756  1.00  0.00     0.090 A 
HETATM   14  C12 UNK     1      27.268  -6.728  31.804  1.00  0.00     0.042 A 
HETATM   15  C13 UNK     1      28.719  -8.713  30.458  1.00  0.00     0.040 A 
HETATM   16  C16 UNK     1      26.918  -7.097  30.504  1.00  0.00     0.035 A 
HETATM   17  C18 UNK     1      27.642  -8.087  29.833  1.00  0.00     0.026 A 
ENDROOT
BRANCH   6  18
HETATM   18  C4  UNK     1      31.081  -6.168  35.906  1.00  0.00    -0.030 A 
HETATM   19  C10 UNK     1      30.664  -5.406  36.998  1.00  0.00     0.012 A 
HETATM   20  C14 UNK     1      31.187  -4.129  37.198  1.00  0.00     0.043 A 
HETATM   21  C17 UNK     1      32.130  -3.614  36.308  1.00  0.00     0.116 A 
HETATM   22  C15 UNK     1      32.547  -4.375  35.217  1.00  0.00     0.043 A 
HETATM   23  F1  UNK     1      32.633  -2.388  36.502  1.00  0.00    -0.206 F 
HETATM   24  C11 UNK     1      32.024  -5.652  35.015  1.00  0.00     0.012 A 
ENDBRANCH   6  18
TORSDOF 1
ENDMDL
MODEL 9
REMARK VINA RESULT:      -7.6     21.741     23.597
REMARK  1 active torsions:
REMARK  status: ('A' for Active; 'I' for Inactive)
REMARK    1  A    between atoms: C1_7  and  C4_10 
ROOT
HETATM    1 Cl1  UNK     1      27.279  -8.337  30.207  1.00  0.00    -0.084 Cl
HETATM    2  O1  UNK     1      32.359  -6.581  32.611  1.00  0.00    -0.303 OA
HETATM    3  O2  UNK     1      34.720  -5.845  34.193  1.00  0.00    -0.265 OA
HETATM    4  O3  UNK     1      29.426  -7.991  35.120  1.00  0.00    -0.287 OA
HETATM    5  N1  UNK     1      33.414  -6.500  36.055  1.00  0.00    -0.338 N 
HETATM    6  C1  UNK     1      32.063  -7.015  36.270  1.00  0.00     0.160 A 
HETATM    7  C2  UNK     1      31.586  -7.076  34.858  1.00  0.00     0.060 A 
HETATM    8  C3  UNK     1      32.484  -6.646  33.968  1.00  0.00     0.156 A 
HETATM    9  C5  UNK     1      33.697  -6.264  34.708  1.00  0.00     0.278 A 
HETATM   10  C6  UNK     1      30.289  -7.559  34.370  1.00  0.00     0.196 A 
HETATM   11  C7  UNK     1      30.108  -7.488  32.901  1.00  0.00     0.050 A 
HETATM   12  C8  UNK     1      34.365  -6.342  37.138  1.00  0.00     0.154 C 
HETATM   13  C9  UNK     1      31.150  -7.002  32.097  1.00  0.00     0.090 A 
HETATM   14  C12 UNK     1      28.908  -7.902  32.319  1.00  0.00     0.042 A 
HETATM   15  C13 UNK     1      30.991  -6.932  30.714  1.00  0.00     0.040 A 
HETATM   16  C16 UNK     1      28.754  -7.829  30.934  1.00  0.00     0.035 A 
HETATM   17  C18 UNK     1      29.792  -7.345  30.134  1.00  0.00     0.026 A 
ENDROOT
BRANCH   6  18
HETATM   18  C4  UNK     1      31.241  -6.105  37.117  1.00  0.00    -0.030 A 
HETATM   19  C10 UNK     1      30.528  -6.614  38.203  1.00  0.00     0.012 A 
HETATM   20  C14 UNK     1      29.759  -5.761  38.994  1.00  0.00     0.043 A 
HETATM   21  C17 UNK     1      29.703  -4.399  38.701  1.00  0.00     0.116 A 
HETATM   22  C15 UNK     1      30.414  -3.889  37.615  1.00  0.00     0.043 A 
HETATM   23  F1  UNK     1      28.965  -3.580  39.462  1.00  0.00    -0.206 F 
HETATM   24  C11 UNK     1      31.183  -4.741  36.823  1.00  0.00     0.012 A 
ENDBRANCH   6  18
TORSDOF 1
ENDMDL
MODEL 10
REMARK VINA RESULT:      -7.6     23.433     24.635
REMARK  1 active torsions:
REMARK  status: ('A' for Active; 'I' for Inactive)
REMARK    1  A    between atoms: C1_7  and  C4_10 
ROOT
HETATM    1 Cl1  UNK     1      25.783 -11.226  36.649  1.00  0.00    -0.084 Cl
HETATM    2  O1  UNK     1      28.615  -6.433  38.566  1.00  0.00    -0.303 OA
HETATM    3  O2  UNK     1      30.197  -4.021  39.113  1.00  0.00    -0.265 OA
HETATM    4  O3  UNK     1      29.411  -7.746  34.755  1.00  0.00    -0.287 OA
HETATM    5  N1  UNK     1      31.051  -4.342  36.931  1.00  0.00    -0.338 N 
HETATM    6  C1  UNK     1      30.859  -5.310  35.852  1.00  0.00     0.160 A 
HETATM    7  C2  UNK     1      29.841  -6.198  36.485  1.00  0.00     0.060 A 
HETATM    8  C3  UNK     1      29.511  -5.837  37.728  1.00  0.00     0.156 A 
HETATM    9  C5  UNK     1      30.276  -4.624  38.057  1.00  0.00     0.278 A 
HETATM   10  C6  UNK     1      29.181  -7.368  35.894  1.00  0.00     0.196 A 
HETATM   11  C7  UNK     1      28.212  -8.053  36.782  1.00  0.00     0.050 A 
HETATM   12  C8  UNK     1      31.900  -3.176  36.783  1.00  0.00     0.154 C 
HETATM   13  C9  UNK     1      27.980  -7.552  38.072  1.00  0.00     0.090 A 
HETATM   14  C12 UNK     1      27.534  -9.190  36.338  1.00  0.00     0.042 A 
HETATM   15  C13 UNK     1      27.069  -8.188  38.915  1.00  0.00     0.040 A 
HETATM   16  C16 UNK     1      26.625  -9.823  37.187  1.00  0.00     0.035 A 
HETATM   17  C18 UNK     1      26.393  -9.324  38.471  1.00  0.00     0.026 A 
ENDROOT
BRANCH   6  18
HETATM   18  C4  UNK     1      32.118  -6.031  35.510  1.00  0.00    -0.030 A 
HETATM   19  C10 UNK     1      32.750  -6.828  36.465  1.00  0.00     0.012 A 
HETATM   20  C14 UNK     1      33.928  -7.502  36.143  1.00  0.00     0.043 A 
HETATM   21  C17 UNK     1      34.474  -7.380  34.866  1.00  0.00     0.116 A 
HETATM   22  C15 UNK     1      33.844  -6.584  33.910  1.00  0.00     0.043 A 
HETATM   23  F1  UNK     1      35.605  -8.029  34.557  1.00  0.00    -0.206 F 
HETATM   24  C11 UNK     1      32.666  -5.909  34.231  1.00  0.00     0.012 A 
ENDBRANCH   6  18
TORSDOF 1
ENDMDL
