MODEL 1
REMARK VINA RESULT:      -7.3      0.000      0.000
REMARK  7 active torsions:
REMARK  status: ('A' for Active; 'I' for Inactive)
REMARK    1  A    between atoms: C2_8  and  N1_4 
REMARK    2  A    between atoms: C12_18  and  N2_5 
REMARK    3  A    between atoms: C3_9  and  N2_5 
REMARK    4  A    between atoms: C12_18  and  N3_6 
REMARK    5  A    between atoms: C6_12  and  N3_6 
REMARK    6  A    between atoms: C1_7  and  C2_8 
REMARK    7  A    between atoms: C1_7  and  C3_9 
ROOT
HETATM    1  O1  UNK     1      16.553   7.042  33.154  1.00  0.00    -0.275 OA
HETATM    2  O2  UNK     1      15.317   8.505  34.402  1.00  0.00    -0.260 OA
HETATM    3  C4  UNK     1      18.989   7.236  33.153  1.00  0.00     0.004 A 
HETATM    4  C5  UNK     1      17.821   6.603  32.722  1.00  0.00     0.092 A 
HETATM    5  C6  UNK     1      19.064   5.035  31.391  1.00  0.00     0.036 A 
HETATM    6  C7  UNK     1      18.873   8.376  34.072  1.00  0.00    -0.043 A 
HETATM    7  C10 UNK     1      17.842   5.513  31.850  1.00  0.00     0.067 A 
HETATM    8  C11 UNK     1      20.210   6.739  32.679  1.00  0.00     0.017 A 
HETATM    9  C13 UNK     1      20.247   5.646  31.805  1.00  0.00     0.030 A 
HETATM   10  C14 UNK     1      17.654   8.772  34.466  1.00  0.00     0.090 A 
HETATM   11  C15 UNK     1      20.110   9.078  34.554  1.00  0.00     0.049 C 
HETATM   12  C16 UNK     1      16.413   8.115  34.020  1.00  0.00     0.288 A 
ENDROOT
BRANCH   5  13
HETATM   13  N3  UNK     1      19.108   3.946  30.521  1.00  0.00    -0.333 N 
HETATM   14  H17 UNK     1      19.376   4.224  29.582  1.00  0.00     0.168 HD
BRANCH  13  15
HETATM   15  C12 UNK     1      18.579   2.645  30.596  1.00  0.00     0.172 C 
HETATM   16  S1  UNK     1      18.715   1.414  29.461  1.00  0.00    -0.041 SA
BRANCH  15  17
HETATM   17  N2  UNK     1      17.896   2.347  31.767  1.00  0.00    -0.367 N 
HETATM   18  H7  UNK     1      16.931   2.660  31.821  1.00  0.00     0.161 HD
BRANCH  17  19
HETATM   19  C3  UNK     1      18.404   1.619  32.915  1.00  0.00     0.123 C 
BRANCH  19  20
HETATM   20  C1  UNK     1      18.246   2.398  34.219  1.00  0.00     0.050 C 
BRANCH  20  21
HETATM   21  C2  UNK     1      18.485   1.567  35.484  1.00  0.00     0.273 C 
BRANCH  21  22
HETATM   22  N1  UNK     1      17.282   1.456  36.299  1.00  0.00     0.080 N 
HETATM   23  C8  UNK     1      17.629   1.253  37.706  1.00  0.00     0.309 C 
HETATM   24  C9  UNK     1      16.435   0.361  35.822  1.00  0.00     0.309 C 
ENDBRANCH  21  22
ENDBRANCH  20  21
ENDBRANCH  19  20
ENDBRANCH  17  19
ENDBRANCH  15  17
ENDBRANCH  13  15
ENDBRANCH   5  13
TORSDOF 7
ENDMDL
MODEL 2
REMARK VINA RESULT:      -7.3      3.688      7.476
REMARK  7 active torsions:
REMARK  status: ('A' for Active; 'I' for Inactive)
REMARK    1  A    between atoms: C2_8  and  N1_4 
REMARK    2  A    between atoms: C12_18  and  N2_5 
REMARK    3  A    between atoms: C3_9  and  N2_5 
REMARK    4  A    between atoms: C12_18  and  N3_6 
REMARK    5  A    between atoms: C6_12  and  N3_6 
REMARK    6  A    between atoms: C1_7  and  C2_8 
REMARK    7  A    between atoms: C1_7  and  C3_9 
ROOT
HETATM    1  O1  UNK     1      17.719  -0.173  35.728  1.00  0.00    -0.275 OA
HETATM    2  O2  UNK     1      17.167  -0.001  37.940  1.00  0.00    -0.260 OA
HETATM    3  C4  UNK     1      19.381  -1.827  35.038  1.00  0.00     0.004 A 
HETATM    4  C5  UNK     1      18.483  -0.804  34.725  1.00  0.00     0.092 A 
HETATM    5  C6  UNK     1      19.019  -0.936  32.386  1.00  0.00     0.036 A 
HETATM    6  C7  UNK     1      19.516  -2.239  36.442  1.00  0.00    -0.043 A 
HETATM    7  C10 UNK     1      18.293  -0.352  33.418  1.00  0.00     0.067 A 
HETATM    8  C11 UNK     1      20.102  -2.402  33.984  1.00  0.00     0.017 A 
HETATM    9  C13 UNK     1      19.922  -1.960  32.668  1.00  0.00     0.030 A 
HETATM   10  C14 UNK     1      18.777  -1.622  37.374  1.00  0.00     0.090 A 
HETATM   11  C15 UNK     1      20.473  -3.335  36.810  1.00  0.00     0.049 C 
HETATM   12  C16 UNK     1      17.826  -0.541  37.060  1.00  0.00     0.288 A 
ENDROOT
BRANCH   5  13
HETATM   13  N3  UNK     1      18.844  -0.501  31.073  1.00  0.00    -0.333 N 
HETATM   14  H17 UNK     1      17.990  -0.869  30.664  1.00  0.00     0.168 HD
BRANCH  13  15
HETATM   15  C12 UNK     1      19.722   0.064  30.132  1.00  0.00     0.172 C 
HETATM   16  S1  UNK     1      20.807  -0.735  29.128  1.00  0.00    -0.041 SA
BRANCH  15  17
HETATM   17  N2  UNK     1      19.649   1.445  30.003  1.00  0.00    -0.367 N 
HETATM   18  H7  UNK     1      20.533   1.942  29.945  1.00  0.00     0.161 HD
BRANCH  17  19
HETATM   19  C3  UNK     1      18.447   2.253  29.923  1.00  0.00     0.123 C 
BRANCH  19  20
HETATM   20  C1  UNK     1      18.387   3.322  31.012  1.00  0.00     0.050 C 
BRANCH  20  21
HETATM   21  C2  UNK     1      19.047   4.651  30.630  1.00  0.00     0.273 C 
BRANCH  21  22
HETATM   22  N1  UNK     1      18.777   5.696  31.610  1.00  0.00     0.080 N 
HETATM   23  C8  UNK     1      20.026   6.189  32.194  1.00  0.00     0.309 C 
HETATM   24  C9  UNK     1      17.887   5.201  32.661  1.00  0.00     0.309 C 
ENDBRANCH  21  22
ENDBRANCH  20  21
ENDBRANCH  19  20
ENDBRANCH  17  19
ENDBRANCH  15  17
ENDBRANCH  13  15
ENDBRANCH   5  13
TORSDOF 7
ENDMDL
MODEL 3
REMARK VINA RESULT:      -7.3      9.268     13.358
REMARK  7 active torsions:
REMARK  status: ('A' for Active; 'I' for Inactive)
REMARK    1  A    between atoms: C2_8  and  N1_4 
REMARK    2  A    between atoms: C12_18  and  N2_5 
REMARK    3  A    between atoms: C3_9  and  N2_5 
REMARK    4  A    between atoms: C12_18  and  N3_6 
REMARK    5  A    between atoms: C6_12  and  N3_6 
REMARK    6  A    between atoms: C1_7  and  C2_8 
REMARK    7  A    between atoms: C1_7  and  C3_9 
ROOT
HETATM    1  O1  UNK     1      18.878  -9.434  38.226  1.00  0.00    -0.275 OA
HETATM    2  O2  UNK     1      19.130 -11.533  39.096  1.00  0.00    -0.260 OA
HETATM    3  C4  UNK     1      20.203  -8.782  36.278  1.00  0.00     0.004 A 
HETATM    4  C5  UNK     1      19.248  -8.483  37.253  1.00  0.00     0.092 A 
HETATM    5  C6  UNK     1      18.938  -6.264  36.385  1.00  0.00     0.036 A 
HETATM    6  C7  UNK     1      20.820 -10.116  36.284  1.00  0.00    -0.043 A 
HETATM    7  C10 UNK     1      18.614  -7.242  37.319  1.00  0.00     0.067 A 
HETATM    8  C11 UNK     1      20.515  -7.784  35.347  1.00  0.00     0.017 A 
HETATM    9  C13 UNK     1      19.886  -6.534  35.400  1.00  0.00     0.030 A 
HETATM   10  C14 UNK     1      20.449 -10.999  37.221  1.00  0.00     0.090 A 
HETATM   11  C15 UNK     1      21.849 -10.468  35.249  1.00  0.00     0.049 C 
HETATM   12  C16 UNK     1      19.444 -10.699  38.256  1.00  0.00     0.288 A 
ENDROOT
BRANCH   5  13
HETATM   13  N3  UNK     1      18.314  -5.017  36.432  1.00  0.00    -0.333 N 
HETATM   14  H17 UNK     1      17.455  -5.004  35.891  1.00  0.00     0.168 HD
BRANCH  13  15
HETATM   15  C12 UNK     1      18.769  -3.739  36.802  1.00  0.00     0.172 C 
HETATM   16  S1  UNK     1      20.356  -3.240  37.035  1.00  0.00    -0.041 SA
BRANCH  15  17
HETATM   17  N2  UNK     1      17.780  -2.776  36.954  1.00  0.00    -0.367 N 
HETATM   18  H7  UNK     1      16.833  -3.059  36.718  1.00  0.00     0.161 HD
BRANCH  17  19
HETATM   19  C3  UNK     1      17.948  -1.417  37.433  1.00  0.00     0.123 C 
BRANCH  19  20
HETATM   20  C1  UNK     1      17.406  -0.379  36.452  1.00  0.00     0.050 C 
BRANCH  20  21
HETATM   21  C2  UNK     1      17.387  -0.841  34.991  1.00  0.00     0.273 C 
BRANCH  21  22
HETATM   22  N1  UNK     1      18.462  -0.236  34.214  1.00  0.00     0.080 N 
HETATM   23  C8  UNK     1      18.189   1.183  33.975  1.00  0.00     0.309 C 
HETATM   24  C9  UNK     1      18.638  -0.939  32.942  1.00  0.00     0.309 C 
ENDBRANCH  21  22
ENDBRANCH  20  21
ENDBRANCH  19  20
ENDBRANCH  17  19
ENDBRANCH  15  17
ENDBRANCH  13  15
ENDBRANCH   5  13
TORSDOF 7
ENDMDL
MODEL 4
REMARK VINA RESULT:      -7.3      4.476      8.074
REMARK  7 active torsions:
REMARK  status: ('A' for Active; 'I' for Inactive)
REMARK    1  A    between atoms: C2_8  and  N1_4 
REMARK    2  A    between atoms: C12_18  and  N2_5 
REMARK    3  A    between atoms: C3_9  and  N2_5 
REMARK    4  A    between atoms: C12_18  and  N3_6 
REMARK    5  A    between atoms: C6_12  and  N3_6 
REMARK    6  A    between atoms: C1_7  and  C2_8 
REMARK    7  A    between atoms: C1_7  and  C3_9 
ROOT
HETATM    1  O1  UNK     1      20.370  -3.106  35.014  1.00  0.00    -0.275 OA
HETATM    2  O2  UNK     1      21.167  -4.349  36.759  1.00  0.00    -0.260 OA
HETATM    3  C4  UNK     1      18.770  -1.313  35.457  1.00  0.00     0.004 A 
HETATM    4  C5  UNK     1      19.542  -2.058  34.563  1.00  0.00     0.092 A 
HETATM    5  C6  UNK     1      18.742  -0.788  32.687  1.00  0.00     0.036 A 
HETATM    6  C7  UNK     1      18.835  -1.644  36.888  1.00  0.00    -0.043 A 
HETATM    7  C10 UNK     1      19.539  -1.810  33.190  1.00  0.00     0.067 A 
HETATM    8  C11 UNK     1      17.974  -0.288  34.931  1.00  0.00     0.017 A 
HETATM    9  C13 UNK     1      17.961  -0.027  33.555  1.00  0.00     0.030 A 
HETATM   10  C14 UNK     1      19.631  -2.646  37.288  1.00  0.00     0.090 A 
HETATM   11  C15 UNK     1      18.017  -0.862  37.874  1.00  0.00     0.049 C 
HETATM   12  C16 UNK     1      20.451  -3.440  36.357  1.00  0.00     0.288 A 
ENDROOT
BRANCH   5  13
HETATM   13  N3  UNK     1      18.725  -0.522  31.318  1.00  0.00    -0.333 N 
HETATM   14  H17 UNK     1      17.937  -0.967  30.856  1.00  0.00     0.168 HD
BRANCH  13  15
HETATM   15  C12 UNK     1      19.704  -0.043  30.428  1.00  0.00     0.172 C 
HETATM   16  S1  UNK     1      20.768  -0.943  29.490  1.00  0.00    -0.041 SA
BRANCH  15  17
HETATM   17  N2  UNK     1      19.762   1.337  30.294  1.00  0.00    -0.367 N 
HETATM   18  H7  UNK     1      20.674   1.767  30.420  1.00  0.00     0.161 HD
BRANCH  17  19
HETATM   19  C3  UNK     1      18.665   2.233  29.976  1.00  0.00     0.123 C 
BRANCH  19  20
HETATM   20  C1  UNK     1      18.313   3.163  31.134  1.00  0.00     0.050 C 
BRANCH  20  21
HETATM   21  C2  UNK     1      18.996   4.533  31.074  1.00  0.00     0.273 C 
BRANCH  21  22
HETATM   22  N1  UNK     1      18.763   5.313  32.284  1.00  0.00     0.080 N 
HETATM   23  C8  UNK     1      17.344   5.648  32.415  1.00  0.00     0.309 C 
HETATM   24  C9  UNK     1      19.573   6.531  32.276  1.00  0.00     0.309 C 
ENDBRANCH  21  22
ENDBRANCH  20  21
ENDBRANCH  19  20
ENDBRANCH  17  19
ENDBRANCH  15  17
ENDBRANCH  13  15
ENDBRANCH   5  13
TORSDOF 7
ENDMDL
MODEL 5
REMARK VINA RESULT:      -7.2      4.047      7.541
REMARK  7 active torsions:
REMARK  status: ('A' for Active; 'I' for Inactive)
REMARK    1  A    between atoms: C2_8  and  N1_4 
REMARK    2  A    between atoms: C12_18  and  N2_5 
REMARK    3  A    between atoms: C3_9  and  N2_5 
REMARK    4  A    between atoms: C12_18  and  N3_6 
REMARK    5  A    between atoms: C6_12  and  N3_6 
REMARK    6  A    between atoms: C1_7  and  C2_8 
REMARK    7  A    between atoms: C1_7  and  C3_9 
ROOT
HETATM    1  O1  UNK     1      19.272  -0.338  32.829  1.00  0.00    -0.275 OA
HETATM    2  O2  UNK     1      20.040  -2.449  33.251  1.00  0.00    -0.260 OA
HETATM    3  C4  UNK     1      19.394   0.544  30.554  1.00  0.00     0.004 A 
HETATM    4  C5  UNK     1      19.048   0.696  31.898  1.00  0.00     0.092 A 
HETATM    5  C6  UNK     1      18.224   2.921  31.519  1.00  0.00     0.036 A 
HETATM    6  C7  UNK     1      20.000  -0.723  30.122  1.00  0.00    -0.043 A 
HETATM    7  C10 UNK     1      18.469   1.867  32.391  1.00  0.00     0.067 A 
HETATM    8  C11 UNK     1      19.139   1.619  29.692  1.00  0.00     0.017 A 
HETATM    9  C13 UNK     1      18.558   2.798  30.172  1.00  0.00     0.030 A 
HETATM   10  C14 UNK     1      20.201  -1.689  31.029  1.00  0.00     0.090 A 
HETATM   11  C15 UNK     1      20.383  -0.917  28.684  1.00  0.00     0.049 C 
HETATM   12  C16 UNK     1      19.842  -1.544  32.451  1.00  0.00     0.288 A 
ENDROOT
BRANCH   5  13
HETATM   13  N3  UNK     1      17.644   4.099  31.990  1.00  0.00    -0.333 N 
HETATM   14  H17 UNK     1      16.660   4.160  31.746  1.00  0.00     0.168 HD
BRANCH  13  15
HETATM   15  C12 UNK     1      18.189   5.313  32.445  1.00  0.00     0.172 C 
HETATM   16  S1  UNK     1      19.440   6.200  31.758  1.00  0.00    -0.041 SA
BRANCH  15  17
HETATM   17  N2  UNK     1      17.588   5.848  33.577  1.00  0.00    -0.367 N 
HETATM   18  H7  UNK     1      16.834   5.306  33.989  1.00  0.00     0.161 HD
BRANCH  17  19
HETATM   19  C3  UNK     1      17.934   7.087  34.248  1.00  0.00     0.123 C 
BRANCH  19  20
HETATM   20  C1  UNK     1      16.767   7.666  35.046  1.00  0.00     0.050 C 
BRANCH  20  21
HETATM   21  C2  UNK     1      16.269   9.024  34.540  1.00  0.00     0.273 C 
BRANCH  21  22
HETATM   22  N1  UNK     1      14.844   9.002  34.231  1.00  0.00     0.080 N 
HETATM   23  C8  UNK     1      14.410   7.644  33.898  1.00  0.00     0.309 C 
HETATM   24  C9  UNK     1      14.541   9.916  33.129  1.00  0.00     0.309 C 
ENDBRANCH  21  22
ENDBRANCH  20  21
ENDBRANCH  19  20
ENDBRANCH  17  19
ENDBRANCH  15  17
ENDBRANCH  13  15
ENDBRANCH   5  13
TORSDOF 7
ENDMDL
MODEL 6
REMARK VINA RESULT:      -7.1      8.630     12.607
REMARK  7 active torsions:
REMARK  status: ('A' for Active; 'I' for Inactive)
REMARK    1  A    between atoms: C2_8  and  N1_4 
REMARK    2  A    between atoms: C12_18  and  N2_5 
REMARK    3  A    between atoms: C3_9  and  N2_5 
REMARK    4  A    between atoms: C12_18  and  N3_6 
REMARK    5  A    between atoms: C6_12  and  N3_6 
REMARK    6  A    between atoms: C1_7  and  C2_8 
REMARK    7  A    between atoms: C1_7  and  C3_9 
ROOT
HETATM    1  O1  UNK     1      22.470  -6.991  38.007  1.00  0.00    -0.275 OA
HETATM    2  O2  UNK     1      24.289  -8.177  38.723  1.00  0.00    -0.260 OA
HETATM    3  C4  UNK     1      21.112  -7.877  36.178  1.00  0.00     0.004 A 
HETATM    4  C5  UNK     1      21.372  -6.887  37.128  1.00  0.00     0.092 A 
HETATM    5  C6  UNK     1      19.474  -5.594  36.422  1.00  0.00     0.036 A 
HETATM    6  C7  UNK     1      22.008  -9.039  36.109  1.00  0.00    -0.043 A 
HETATM    7  C10 UNK     1      20.571  -5.752  37.261  1.00  0.00     0.067 A 
HETATM    8  C11 UNK     1      20.001  -7.699  35.343  1.00  0.00     0.017 A 
HETATM    9  C13 UNK     1      19.188  -6.566  35.465  1.00  0.00     0.030 A 
HETATM   10  C14 UNK     1      23.044  -9.112  36.957  1.00  0.00     0.090 A 
HETATM   11  C15 UNK     1      21.755 -10.120  35.098  1.00  0.00     0.049 C 
HETATM   12  C16 UNK     1      23.332  -8.076  37.964  1.00  0.00     0.288 A 
ENDROOT
BRANCH   5  13
HETATM   13  N3  UNK     1      18.659  -4.468  36.539  1.00  0.00    -0.333 N 
HETATM   14  H17 UNK     1      17.697  -4.670  36.286  1.00  0.00     0.168 HD
BRANCH  13  15
HETATM   15  C12 UNK     1      18.942  -3.094  36.632  1.00  0.00     0.172 C 
HETATM   16  S1  UNK     1      20.285  -2.279  36.038  1.00  0.00    -0.041 SA
BRANCH  15  17
HETATM   17  N2  UNK     1      17.970  -2.327  37.261  1.00  0.00    -0.367 N 
HETATM   18  H7  UNK     1      17.018  -2.680  37.220  1.00  0.00     0.161 HD
BRANCH  17  19
HETATM   19  C3  UNK     1      18.168  -1.086  37.986  1.00  0.00     0.123 C 
BRANCH  19  20
HETATM   20  C1  UNK     1      17.351   0.067  37.408  1.00  0.00     0.050 C 
BRANCH  20  21
HETATM   21  C2  UNK     1      18.093   0.903  36.360  1.00  0.00     0.273 C 
BRANCH  21  22
HETATM   22  N1  UNK     1      17.350   0.996  35.110  1.00  0.00     0.080 N 
HETATM   23  C8  UNK     1      16.127   0.194  35.176  1.00  0.00     0.309 C 
HETATM   24  C9  UNK     1      18.179   0.565  33.984  1.00  0.00     0.309 C 
ENDBRANCH  21  22
ENDBRANCH  20  21
ENDBRANCH  19  20
ENDBRANCH  17  19
ENDBRANCH  15  17
ENDBRANCH  13  15
ENDBRANCH   5  13
TORSDOF 7
ENDMDL
MODEL 7
REMARK VINA RESULT:      -7.1      8.946     13.195
REMARK  7 active torsions:
REMARK  status: ('A' for Active; 'I' for Inactive)
REMARK    1  A    between atoms: C2_8  and  N1_4 
REMARK    2  A    between atoms: C12_18  and  N2_5 
REMARK    3  A    between atoms: C3_9  and  N2_5 
REMARK    4  A    between atoms: C12_18  and  N3_6 
REMARK    5  A    between atoms: C6_12  and  N3_6 
REMARK    6  A    between atoms: C1_7  and  C2_8 
REMARK    7  A    between atoms: C1_7  and  C3_9 
ROOT
HETATM    1  O1  UNK     1      21.436  -8.465  35.498  1.00  0.00    -0.275 OA
HETATM    2  O2  UNK     1      21.816 -10.433  34.398  1.00  0.00    -0.260 OA
HETATM    3  C4  UNK     1      20.259  -8.503  37.640  1.00  0.00     0.004 A 
HETATM    4  C5  UNK     1      20.899  -7.798  36.617  1.00  0.00     0.092 A 
HETATM    5  C6  UNK     1      20.531  -5.697  37.725  1.00  0.00     0.036 A 
HETATM    6  C7  UNK     1      20.155  -9.964  37.528  1.00  0.00    -0.043 A 
HETATM    7  C10 UNK     1      21.041  -6.410  36.645  1.00  0.00     0.067 A 
HETATM    8  C11 UNK     1      19.753  -7.766  38.718  1.00  0.00     0.017 A 
HETATM    9  C13 UNK     1      19.889  -6.374  38.760  1.00  0.00     0.030 A 
HETATM   10  C14 UNK     1      20.675 -10.572  36.452  1.00  0.00     0.090 A 
HETATM   11  C15 UNK     1      19.473 -10.750  38.609  1.00  0.00     0.049 C 
HETATM   12  C16 UNK     1      21.352  -9.843  35.366  1.00  0.00     0.288 A 
ENDROOT
BRANCH   5  13
HETATM   13  N3  UNK     1      20.664  -4.309  37.774  1.00  0.00    -0.333 N 
HETATM   14  H17 UNK     1      21.166  -4.007  38.602  1.00  0.00     0.168 HD
BRANCH  13  15
HETATM   15  C12 UNK     1      20.005  -3.266  37.100  1.00  0.00     0.172 C 
HETATM   16  S1  UNK     1      20.278  -2.719  35.535  1.00  0.00    -0.041 SA
BRANCH  15  17
HETATM   17  N2  UNK     1      18.987  -2.647  37.812  1.00  0.00    -0.367 N 
HETATM   18  H7  UNK     1      18.988  -2.788  38.819  1.00  0.00     0.161 HD
BRANCH  17  19
HETATM   19  C3  UNK     1      17.933  -1.803  37.280  1.00  0.00     0.123 C 
BRANCH  19  20
HETATM   20  C1  UNK     1      17.977  -0.385  37.844  1.00  0.00     0.050 C 
BRANCH  20  21
HETATM   21  C2  UNK     1      17.243   0.656  36.992  1.00  0.00     0.273 C 
BRANCH  21  22
HETATM   22  N1  UNK     1      17.290   0.329  35.572  1.00  0.00     0.080 N 
HETATM   23  C8  UNK     1      18.030   1.353  34.832  1.00  0.00     0.309 C 
HETATM   24  C9  UNK     1      15.937   0.190  35.030  1.00  0.00     0.309 C 
ENDBRANCH  21  22
ENDBRANCH  20  21
ENDBRANCH  19  20
ENDBRANCH  17  19
ENDBRANCH  15  17
ENDBRANCH  13  15
ENDBRANCH   5  13
TORSDOF 7
ENDMDL
MODEL 8
REMARK VINA RESULT:      -7.1      7.164      9.841
REMARK  7 active torsions:
REMARK  status: ('A' for Active; 'I' for Inactive)
REMARK    1  A    between atoms: C2_8  and  N1_4 
REMARK    2  A    between atoms: C12_18  and  N2_5 
REMARK    3  A    between atoms: C3_9  and  N2_5 
REMARK    4  A    between atoms: C12_18  and  N3_6 
REMARK    5  A    between atoms: C6_12  and  N3_6 
REMARK    6  A    between atoms: C1_7  and  C2_8 
REMARK    7  A    between atoms: C1_7  and  C3_9 
ROOT
HETATM    1  O1  UNK     1      19.058  -0.577  34.080  1.00  0.00    -0.275 OA
HETATM    2  O2  UNK     1      18.432   1.094  32.649  1.00  0.00    -0.260 OA
HETATM    3  C4  UNK     1      18.236  -0.549  36.380  1.00  0.00     0.004 A 
HETATM    4  C5  UNK     1      18.990  -1.144  35.368  1.00  0.00     0.092 A 
HETATM    5  C6  UNK     1      19.683  -2.928  36.821  1.00  0.00     0.036 A 
HETATM    6  C7  UNK     1      17.506   0.691  36.078  1.00  0.00    -0.043 A 
HETATM    7  C10 UNK     1      19.712  -2.322  35.571  1.00  0.00     0.067 A 
HETATM    8  C11 UNK     1      18.220  -1.175  37.633  1.00  0.00     0.017 A 
HETATM    9  C13 UNK     1      18.938  -2.357  37.851  1.00  0.00     0.030 A 
HETATM   10  C14 UNK     1      17.589   1.208  34.844  1.00  0.00     0.090 A 
HETATM   11  C15 UNK     1      16.686   1.356  37.145  1.00  0.00     0.049 C 
HETATM   12  C16 UNK     1      18.381   0.592  33.765  1.00  0.00     0.288 A 
ENDROOT
BRANCH   5  13
HETATM   13  N3  UNK     1      20.396  -4.106  37.045  1.00  0.00    -0.333 N 
HETATM   14  H17 UNK     1      21.399  -3.958  36.983  1.00  0.00     0.168 HD
BRANCH  13  15
HETATM   15  C12 UNK     1      20.023  -5.462  37.032  1.00  0.00     0.172 C 
HETATM   16  S1  UNK     1      20.096  -6.536  35.742  1.00  0.00    -0.041 SA
BRANCH  15  17
HETATM   17  N2  UNK     1      19.576  -5.968  38.245  1.00  0.00    -0.367 N 
HETATM   18  H7  UNK     1      18.581  -5.879  38.434  1.00  0.00     0.161 HD
BRANCH  17  19
HETATM   19  C3  UNK     1      20.370  -6.627  39.265  1.00  0.00     0.123 C 
BRANCH  19  20
HETATM   20  C1  UNK     1      19.987  -8.094  39.449  1.00  0.00     0.050 C 
BRANCH  20  21
HETATM   21  C2  UNK     1      21.052  -9.089  38.978  1.00  0.00     0.273 C 
BRANCH  21  22
HETATM   22  N1  UNK     1      20.492 -10.122  38.116  1.00  0.00     0.080 N 
HETATM   23  C8  UNK     1      21.337 -10.326  36.939  1.00  0.00     0.309 C 
HETATM   24  C9  UNK     1      19.130  -9.771  37.709  1.00  0.00     0.309 C 
ENDBRANCH  21  22
ENDBRANCH  20  21
ENDBRANCH  19  20
ENDBRANCH  17  19
ENDBRANCH  15  17
ENDBRANCH  13  15
ENDBRANCH   5  13
TORSDOF 7
ENDMDL
MODEL 9
REMARK VINA RESULT:      -7.1      8.571     12.475
REMARK  7 active torsions:
REMARK  status: ('A' for Active; 'I' for Inactive)
REMARK    1  A    between atoms: C2_8  and  N1_4 
REMARK    2  A    between atoms: C12_18  and  N2_5 
REMARK    3  A    between atoms: C3_9  and  N2_5 
REMARK    4  A    between atoms: C12_18  and  N3_6 
REMARK    5  A    between atoms: C6_12  and  N3_6 
REMARK    6  A    between atoms: C1_7  and  C2_8 
REMARK    7  A    between atoms: C1_7  and  C3_9 
ROOT
HETATM    1  O1  UNK     1      20.779  -8.373  35.076  1.00  0.00    -0.275 OA
HETATM    2  O2  UNK     1      21.704 -10.331  34.340  1.00  0.00    -0.260 OA
HETATM    3  C4  UNK     1      21.612  -7.361  37.138  1.00  0.00     0.004 A 
HETATM    4  C5  UNK     1      20.747  -7.348  36.042  1.00  0.00     0.092 A 
HETATM    5  C6  UNK     1      19.735  -5.290  36.761  1.00  0.00     0.036 A 
HETATM    6  C7  UNK     1      22.564  -8.472  37.269  1.00  0.00    -0.043 A 
HETATM    7  C10 UNK     1      19.813  -6.330  35.841  1.00  0.00     0.067 A 
HETATM    8  C11 UNK     1      21.517  -6.304  38.053  1.00  0.00     0.017 A 
HETATM    9  C13 UNK     1      20.585  -5.276  37.865  1.00  0.00     0.030 A 
HETATM   10  C14 UNK     1      22.572  -9.434  36.336  1.00  0.00     0.090 A 
HETATM   11  C15 UNK     1      23.506  -8.516  38.437  1.00  0.00     0.049 C 
HETATM   12  C16 UNK     1      21.667  -9.434  35.174  1.00  0.00     0.288 A 
ENDROOT
BRANCH   5  13
HETATM   13  N3  UNK     1      18.810  -4.262  36.579  1.00  0.00    -0.333 N 
HETATM   14  H17 UNK     1      17.877  -4.621  36.398  1.00  0.00     0.168 HD
BRANCH  13  15
HETATM   15  C12 UNK     1      18.952  -2.891  36.298  1.00  0.00     0.172 C 
HETATM   16  S1  UNK     1      20.314  -2.098  35.716  1.00  0.00    -0.041 SA
BRANCH  15  17
HETATM   17  N2  UNK     1      17.814  -2.122  36.497  1.00  0.00    -0.367 N 
HETATM   18  H7  UNK     1      17.008  -2.348  35.921  1.00  0.00     0.161 HD
BRANCH  17  19
HETATM   19  C3  UNK     1      17.643  -1.042  37.451  1.00  0.00     0.123 C 
BRANCH  19  20
HETATM   20  C1  UNK     1      17.086   0.226  36.808  1.00  0.00     0.050 C 
BRANCH  20  21
HETATM   21  C2  UNK     1      17.213   0.268  35.282  1.00  0.00     0.273 C 
BRANCH  21  22
HETATM   22  N1  UNK     1      18.396   1.004  34.853  1.00  0.00     0.080 N 
HETATM   23  C8  UNK     1      18.925   1.814  35.952  1.00  0.00     0.309 C 
HETATM   24  C9  UNK     1      18.086   1.852  33.701  1.00  0.00     0.309 C 
ENDBRANCH  21  22
ENDBRANCH  20  21
ENDBRANCH  19  20
ENDBRANCH  17  19
ENDBRANCH  15  17
ENDBRANCH  13  15
ENDBRANCH   5  13
TORSDOF 7
ENDMDL
MODEL 10
REMARK VINA RESULT:      -7.0      8.664     12.597
REMARK  7 active torsions:
REMARK  status: ('A' for Active; 'I' for Inactive)
REMARK    1  A    between atoms: C2_8  and  N1_4 
REMARK    2  A    between atoms: C12_18  and  N2_5 
REMARK    3  A    between atoms: C3_9  and  N2_5 
REMARK    4  A    between atoms: C12_18  and  N3_6 
REMARK    5  A    between atoms: C6_12  and  N3_6 
REMARK    6  A    between atoms: C1_7  and  C2_8 
REMARK    7  A    between atoms: C1_7  and  C3_9 
ROOT
HETATM    1  O1  UNK     1      20.695  -8.272  35.160  1.00  0.00    -0.275 OA
HETATM    2  O2  UNK     1      21.674 -10.224  34.482  1.00  0.00    -0.260 OA
HETATM    3  C4  UNK     1      21.531  -7.151  37.164  1.00  0.00     0.004 A 
HETATM    4  C5  UNK     1      20.645  -7.211  36.086  1.00  0.00     0.092 A 
HETATM    5  C6  UNK     1      19.574  -5.163  36.746  1.00  0.00     0.036 A 
HETATM    6  C7  UNK     1      22.524  -8.222  37.318  1.00  0.00    -0.043 A 
HETATM    7  C10 UNK     1      19.671  -6.235  35.866  1.00  0.00     0.067 A 
HETATM    8  C11 UNK     1      21.416  -6.063  38.039  1.00  0.00     0.017 A 
HETATM    9  C13 UNK     1      20.445  -5.076  37.831  1.00  0.00     0.030 A 
HETATM   10  C14 UNK     1      22.549  -9.219  36.423  1.00  0.00     0.090 A 
HETATM   11  C15 UNK     1      23.490  -8.186  38.467  1.00  0.00     0.049 C 
HETATM   12  C16 UNK     1      21.622  -9.296  35.281  1.00  0.00     0.288 A 
ENDROOT
BRANCH   5  13
HETATM   13  N3  UNK     1      18.609  -4.176  36.544  1.00  0.00    -0.333 N 
HETATM   14  H17 UNK     1      17.744  -4.563  36.179  1.00  0.00     0.168 HD
BRANCH  13  15
HETATM   15  C12 UNK     1      18.685  -2.775  36.452  1.00  0.00     0.172 C 
HETATM   16  S1  UNK     1      18.224  -1.643  37.604  1.00  0.00    -0.041 SA
BRANCH  15  17
HETATM   17  N2  UNK     1      19.242  -2.285  35.278  1.00  0.00    -0.367 N 
HETATM   18  H7  UNK     1      19.916  -2.885  34.812  1.00  0.00     0.161 HD
BRANCH  17  19
HETATM   19  C3  UNK     1      18.951  -1.018  34.634  1.00  0.00     0.123 C 
BRANCH  19  20
HETATM   20  C1  UNK     1      18.440  -1.191  33.205  1.00  0.00     0.050 C 
BRANCH  20  21
HETATM   21  C2  UNK     1      19.137  -0.299  32.173  1.00  0.00     0.273 C 
BRANCH  21  22
HETATM   22  N1  UNK     1      19.779  -1.078  31.122  1.00  0.00     0.080 N 
HETATM   23  C8  UNK     1      20.672  -2.085  31.699  1.00  0.00     0.309 C 
HETATM   24  C9  UNK     1      20.521  -0.205  30.212  1.00  0.00     0.309 C 
ENDBRANCH  21  22
ENDBRANCH  20  21
ENDBRANCH  19  20
ENDBRANCH  17  19
ENDBRANCH  15  17
ENDBRANCH  13  15
ENDBRANCH   5  13
TORSDOF 7
ENDMDL
