MODEL 1
REMARK VINA RESULT:      -9.0      0.000      0.000
REMARK  5 active torsions:
REMARK  status: ('A' for Active; 'I' for Inactive)
REMARK    1  A    between atoms: C13_20  and  O2_2 
REMARK    2  A    between atoms: C18_25  and  O2_2 
REMARK    3  A    between atoms: C12_19  and  C6_13 
REMARK    4  A    between atoms: C10_17  and  C13_20 
REMARK    5  A    between atoms: C14_21  and  C18_25 
ROOT
HETATM    1  O1  UNK     1      30.031  -9.189  33.986  1.00  0.00    -0.293 OA
HETATM    2  N1  UNK     1      31.301  -4.636  34.256  1.00  0.00    -0.362 N 
HETATM    3  C1  UNK     1      29.338  -6.499  31.616  1.00  0.00    -0.036 C 
HETATM    4  C2  UNK     1      30.375  -5.488  32.146  1.00  0.00     0.067 C 
HETATM    5  C3  UNK     1      29.790  -7.921  31.976  1.00  0.00     0.092 C 
HETATM    6  C4  UNK     1      30.761  -5.716  33.585  1.00  0.00     0.021 C 
HETATM    7  C5  UNK     1      30.609  -6.901  34.213  1.00  0.00     0.024 C 
HETATM    8  C6  UNK     1      30.974  -7.066  35.685  1.00  0.00     0.104 C 
HETATM    9  C7  UNK     1      30.115  -8.085  33.447  1.00  0.00     0.159 C 
HETATM   10  C8  UNK     1      29.245  -6.369  30.084  1.00  0.00     0.015 C 
HETATM   11  C9  UNK     1      27.941  -6.211  32.204  1.00  0.00     0.015 C 
HETATM   12  C10 UNK     1      31.688  -5.841  36.257  1.00  0.00     0.052 C 
HETATM   13  C11 UNK     1      31.799  -4.693  35.549  1.00  0.00     0.018 C 
HETATM   14  C15 UNK     1      32.437  -3.423  36.041  1.00  0.00     0.069 C 
HETATM   15  H12 UNK     1      31.404  -3.765  33.748  1.00  0.00     0.165 HD
ENDROOT
BRANCH   8  16
HETATM   16  C12 UNK     1      29.746  -7.376  36.498  1.00  0.00     0.029 A 
HETATM   17  C17 UNK     1      29.789  -8.525  37.437  1.00  0.00     0.194 A 
HETATM   18  O6  UNK     1      30.788  -9.221  37.570  1.00  0.00    -0.287 OA
HETATM   19  C22 UNK     1      28.559  -8.786  38.207  1.00  0.00     0.048 A 
HETATM   20  C23 UNK     1      27.450  -7.961  38.015  1.00  0.00     0.089 A 
HETATM   21  C24 UNK     1      28.499  -9.845  39.117  1.00  0.00     0.018 A 
HETATM   22  O4  UNK     1      27.454  -6.908  37.136  1.00  0.00    -0.321 OA
HETATM   23  C25 UNK     1      26.276  -8.189  38.734  1.00  0.00     0.038 A 
HETATM   24  C20 UNK     1      28.606  -6.677  36.425  1.00  0.00     0.154 A 
HETATM   25  C27 UNK     1      26.214  -9.246  39.642  1.00  0.00     0.003 A 
HETATM   26  C26 UNK     1      27.323 -10.071  39.834  1.00  0.00     0.001 A 
ENDBRANCH   8  16
BRANCH  12  27
HETATM   27  C13 UNK     1      32.296  -5.992  37.589  1.00  0.00     0.292 C 
HETATM   28  O5  UNK     1      31.852  -5.461  38.591  1.00  0.00    -0.259 OA
BRANCH  27  29
HETATM   29  O2  UNK     1      33.382  -6.793  37.475  1.00  0.00    -0.315 OA
BRANCH  29  30
HETATM   30  C18 UNK     1      34.637  -6.108  37.403  1.00  0.00     0.211 C 
BRANCH  30  31
HETATM   31  C14 UNK     1      35.294  -6.418  36.072  1.00  0.00     0.145 C 
HETATM   32  O3  UNK     1      35.224  -5.267  35.213  1.00  0.00    -0.384 OA
HETATM   33  C21 UNK     1      34.899  -5.710  33.887  1.00  0.00     0.168 C 
HETATM   34  C19 UNK     1      34.992  -7.221  33.891  1.00  0.00     0.029 C 
HETATM   35  C16 UNK     1      34.625  -7.552  35.316  1.00  0.00     0.036 C 
ENDBRANCH  30  31
ENDBRANCH  29  30
ENDBRANCH  27  29
ENDBRANCH  12  27
TORSDOF 5
ENDMDL
MODEL 2
REMARK VINA RESULT:      -8.4      1.744      5.319
REMARK  5 active torsions:
REMARK  status: ('A' for Active; 'I' for Inactive)
REMARK    1  A    between atoms: C13_20  and  O2_2 
REMARK    2  A    between atoms: C18_25  and  O2_2 
REMARK    3  A    between atoms: C12_19  and  C6_13 
REMARK    4  A    between atoms: C10_17  and  C13_20 
REMARK    5  A    between atoms: C14_21  and  C18_25 
ROOT
HETATM    1  O1  UNK     1      30.316  -5.106  36.243  1.00  0.00    -0.293 OA
HETATM    2  N1  UNK     1      32.440  -8.051  33.207  1.00  0.00    -0.362 N 
HETATM    3  C1  UNK     1      33.891  -5.569  35.662  1.00  0.00    -0.036 C 
HETATM    4  C2  UNK     1      33.783  -6.321  34.320  1.00  0.00     0.067 C 
HETATM    5  C3  UNK     1      32.638  -4.703  35.857  1.00  0.00     0.092 C 
HETATM    6  C4  UNK     1      32.460  -7.015  34.121  1.00  0.00     0.021 C 
HETATM    7  C5  UNK     1      31.334  -6.664  34.776  1.00  0.00     0.024 C 
HETATM    8  C6  UNK     1      30.030  -7.429  34.571  1.00  0.00     0.104 C 
HETATM    9  C7  UNK     1      31.348  -5.480  35.687  1.00  0.00     0.159 C 
HETATM   10  C8  UNK     1      35.135  -4.662  35.632  1.00  0.00     0.015 C 
HETATM   11  C9  UNK     1      34.051  -6.559  36.834  1.00  0.00     0.015 C 
HETATM   12  C10 UNK     1      30.117  -8.449  33.435  1.00  0.00     0.052 C 
HETATM   13  C11 UNK     1      31.293  -8.733  32.829  1.00  0.00     0.018 C 
HETATM   14  C15 UNK     1      31.490  -9.753  31.740  1.00  0.00     0.069 C 
HETATM   15  H12 UNK     1      33.305  -8.282  32.731  1.00  0.00     0.165 HD
ENDROOT
BRANCH   8  16
HETATM   16  C12 UNK     1      29.616  -8.110  35.847  1.00  0.00     0.029 A 
HETATM   17  C17 UNK     1      28.269  -7.819  36.401  1.00  0.00     0.194 A 
HETATM   18  O6  UNK     1      27.492  -7.049  35.852  1.00  0.00    -0.287 OA
HETATM   19  C22 UNK     1      27.914  -8.511  37.654  1.00  0.00     0.048 A 
HETATM   20  C23 UNK     1      28.840  -9.378  38.236  1.00  0.00     0.089 A 
HETATM   21  C24 UNK     1      26.670  -8.304  38.255  1.00  0.00     0.018 A 
HETATM   22  O4  UNK     1      30.075  -9.619  37.689  1.00  0.00    -0.321 OA
HETATM   23  C25 UNK     1      28.525 -10.044  39.421  1.00  0.00     0.038 A 
HETATM   24  C20 UNK     1      30.392  -8.967  36.523  1.00  0.00     0.154 A 
HETATM   25  C27 UNK     1      27.283  -9.837  40.023  1.00  0.00     0.003 A 
HETATM   26  C26 UNK     1      26.358  -8.970  39.441  1.00  0.00     0.001 A 
ENDBRANCH   8  16
BRANCH  12  27
HETATM   27  C13 UNK     1      28.852  -9.062  32.997  1.00  0.00     0.292 C 
HETATM   28  O5  UNK     1      28.609 -10.249  33.112  1.00  0.00    -0.259 OA
BRANCH  27  29
HETATM   29  O2  UNK     1      28.065  -8.091  32.474  1.00  0.00    -0.315 OA
BRANCH  29  30
HETATM   30  C18 UNK     1      27.886  -8.154  31.055  1.00  0.00     0.211 C 
BRANCH  30  31
HETATM   31  C14 UNK     1      28.490  -6.914  30.426  1.00  0.00     0.145 C 
HETATM   32  O3  UNK     1      29.798  -7.215  29.910  1.00  0.00    -0.384 OA
HETATM   33  C21 UNK     1      30.672  -6.120  30.222  1.00  0.00     0.168 C 
HETATM   34  C19 UNK     1      29.804  -5.002  30.759  1.00  0.00     0.029 C 
HETATM   35  C16 UNK     1      28.674  -5.766  31.403  1.00  0.00     0.036 C 
ENDBRANCH  30  31
ENDBRANCH  29  30
ENDBRANCH  27  29
ENDBRANCH  12  27
TORSDOF 5
ENDMDL
MODEL 3
REMARK VINA RESULT:      -8.4      4.773      8.396
REMARK  5 active torsions:
REMARK  status: ('A' for Active; 'I' for Inactive)
REMARK    1  A    between atoms: C13_20  and  O2_2 
REMARK    2  A    between atoms: C18_25  and  O2_2 
REMARK    3  A    between atoms: C12_19  and  C6_13 
REMARK    4  A    between atoms: C10_17  and  C13_20 
REMARK    5  A    between atoms: C14_21  and  C18_25 
ROOT
HETATM    1  O1  UNK     1      34.323 -12.260  31.015  1.00  0.00    -0.293 OA
HETATM    2  N1  UNK     1      29.748 -11.920  29.848  1.00  0.00    -0.362 N 
HETATM    3  C1  UNK     1      31.536 -14.326  32.153  1.00  0.00    -0.036 C 
HETATM    4  C2  UNK     1      30.517 -13.906  31.074  1.00  0.00     0.067 C 
HETATM    5  C3  UNK     1      32.958 -14.127  31.610  1.00  0.00     0.092 C 
HETATM    6  C4  UNK     1      30.810 -12.562  30.458  1.00  0.00     0.021 C 
HETATM    7  C5  UNK     1      32.031 -11.990  30.474  1.00  0.00     0.024 C 
HETATM    8  C6  UNK     1      32.263 -10.606  29.875  1.00  0.00     0.104 C 
HETATM    9  C7  UNK     1      33.190 -12.738  31.050  1.00  0.00     0.159 C 
HETATM   10  C8  UNK     1      31.326 -15.813  32.493  1.00  0.00     0.015 C 
HETATM   11  C9  UNK     1      31.333 -13.509  33.447  1.00  0.00     0.015 C 
HETATM   12  C10 UNK     1      31.045 -10.081  29.114  1.00  0.00     0.052 C 
HETATM   13  C11 UNK     1      29.857 -10.728  29.150  1.00  0.00     0.018 C 
HETATM   14  C15 UNK     1      28.593 -10.266  28.477  1.00  0.00     0.069 C 
HETATM   15  H12 UNK     1      28.847 -12.385  29.852  1.00  0.00     0.165 HD
ENDROOT
BRANCH   8  16
HETATM   16  C12 UNK     1      32.663  -9.630  30.948  1.00  0.00     0.029 A 
HETATM   17  C17 UNK     1      33.900  -8.831  30.756  1.00  0.00     0.194 A 
HETATM   18  O6  UNK     1      34.597  -8.942  29.754  1.00  0.00    -0.287 OA
HETATM   19  C22 UNK     1      34.247  -7.892  31.838  1.00  0.00     0.048 A 
HETATM   20  C23 UNK     1      33.416  -7.808  32.956  1.00  0.00     0.089 A 
HETATM   21  C24 UNK     1      35.392  -7.096  31.751  1.00  0.00     0.018 A 
HETATM   22  O4  UNK     1      32.280  -8.566  33.093  1.00  0.00    -0.321 OA
HETATM   23  C25 UNK     1      33.725  -6.926  33.991  1.00  0.00     0.038 A 
HETATM   24  C20 UNK     1      31.970  -9.437  32.077  1.00  0.00     0.154 A 
HETATM   25  C27 UNK     1      34.868  -6.130  33.906  1.00  0.00     0.003 A 
HETATM   26  C26 UNK     1      35.698  -6.215  32.789  1.00  0.00     0.001 A 
ENDBRANCH   8  16
BRANCH  12  27
HETATM   27  C13 UNK     1      31.246  -8.873  28.297  1.00  0.00     0.292 C 
HETATM   28  O5  UNK     1      32.017  -8.821  27.357  1.00  0.00    -0.259 OA
BRANCH  27  29
HETATM   29  O2  UNK     1      30.443  -7.893  28.779  1.00  0.00    -0.315 OA
BRANCH  29  30
HETATM   30  C18 UNK     1      31.125  -6.726  29.249  1.00  0.00     0.211 C 
BRANCH  30  31
HETATM   31  C14 UNK     1      30.614  -6.378  30.633  1.00  0.00     0.145 C 
HETATM   32  O3  UNK     1      29.590  -7.309  31.023  1.00  0.00    -0.384 OA
HETATM   33  C21 UNK     1      28.537  -6.579  31.671  1.00  0.00     0.168 C 
HETATM   34  C19 UNK     1      29.044  -5.168  31.883  1.00  0.00     0.029 C 
HETATM   35  C16 UNK     1      29.987  -4.998  30.719  1.00  0.00     0.036 C 
ENDBRANCH  30  31
ENDBRANCH  29  30
ENDBRANCH  27  29
ENDBRANCH  12  27
TORSDOF 5
ENDMDL
MODEL 4
REMARK VINA RESULT:      -8.3      1.768      6.220
REMARK  5 active torsions:
REMARK  status: ('A' for Active; 'I' for Inactive)
REMARK    1  A    between atoms: C13_20  and  O2_2 
REMARK    2  A    between atoms: C18_25  and  O2_2 
REMARK    3  A    between atoms: C12_19  and  C6_13 
REMARK    4  A    between atoms: C10_17  and  C13_20 
REMARK    5  A    between atoms: C14_21  and  C18_25 
ROOT
HETATM    1  O1  UNK     1      32.935  -9.278  33.571  1.00  0.00    -0.293 OA
HETATM    2  N1  UNK     1      33.438  -5.938  36.888  1.00  0.00    -0.362 N 
HETATM    3  C1  UNK     1      35.838  -7.165  34.237  1.00  0.00    -0.036 C 
HETATM    4  C2  UNK     1      35.420  -6.680  35.639  1.00  0.00     0.067 C 
HETATM    5  C3  UNK     1      35.167  -8.515  33.948  1.00  0.00     0.092 C 
HETATM    6  C4  UNK     1      33.934  -6.748  35.884  1.00  0.00     0.021 C 
HETATM    7  C5  UNK     1      33.104  -7.551  35.186  1.00  0.00     0.024 C 
HETATM    8  C6  UNK     1      31.601  -7.548  35.444  1.00  0.00     0.104 C 
HETATM    9  C7  UNK     1      33.667  -8.492  34.172  1.00  0.00     0.159 C 
HETATM   10  C8  UNK     1      37.367  -7.341  34.199  1.00  0.00     0.015 C 
HETATM   11  C9  UNK     1      35.450  -6.129  33.160  1.00  0.00     0.015 C 
HETATM   12  C10 UNK     1      31.214  -6.718  36.669  1.00  0.00     0.052 C 
HETATM   13  C11 UNK     1      32.118  -5.944  37.312  1.00  0.00     0.018 C 
HETATM   14  C15 UNK     1      31.825  -5.057  38.491  1.00  0.00     0.069 C 
HETATM   15  H12 UNK     1      34.094  -5.353  37.393  1.00  0.00     0.165 HD
ENDROOT
BRANCH   8  16
HETATM   16  C12 UNK     1      30.862  -7.054  34.229  1.00  0.00     0.029 A 
HETATM   17  C17 UNK     1      29.795  -7.910  33.651  1.00  0.00     0.194 A 
HETATM   18  O6  UNK     1      29.500  -8.997  34.133  1.00  0.00    -0.287 OA
HETATM   19  C22 UNK     1      29.104  -7.380  32.461  1.00  0.00     0.048 A 
HETATM   20  C23 UNK     1      29.482  -6.135  31.956  1.00  0.00     0.089 A 
HETATM   21  C24 UNK     1      28.086  -8.111  31.844  1.00  0.00     0.018 A 
HETATM   22  O4  UNK     1      30.474  -5.376  32.522  1.00  0.00    -0.321 OA
HETATM   23  C25 UNK     1      28.842  -5.614  30.831  1.00  0.00     0.038 A 
HETATM   24  C20 UNK     1      31.110  -5.883  33.630  1.00  0.00     0.154 A 
HETATM   25  C27 UNK     1      27.825  -6.343  30.213  1.00  0.00     0.003 A 
HETATM   26  C26 UNK     1      27.448  -7.587  30.718  1.00  0.00     0.001 A 
ENDBRANCH   8  16
BRANCH  12  27
HETATM   27  C13 UNK     1      29.827  -6.848  37.144  1.00  0.00     0.292 C 
HETATM   28  O5  UNK     1      28.889  -6.257  36.640  1.00  0.00    -0.259 OA
BRANCH  27  29
HETATM   29  O2  UNK     1      29.812  -7.706  38.192  1.00  0.00    -0.315 OA
BRANCH  29  30
HETATM   30  C18 UNK     1      29.565  -9.075  37.851  1.00  0.00     0.211 C 
BRANCH  30  31
HETATM   31  C14 UNK     1      28.164  -9.448  38.290  1.00  0.00     0.145 C 
HETATM   32  O3  UNK     1      27.246  -9.268  37.198  1.00  0.00    -0.384 OA
HETATM   33  C21 UNK     1      26.043  -8.675  37.710  1.00  0.00     0.168 C 
HETATM   34  C19 UNK     1      26.148  -8.696  39.220  1.00  0.00     0.029 C 
HETATM   35  C16 UNK     1      27.637  -8.594  39.431  1.00  0.00     0.036 C 
ENDBRANCH  30  31
ENDBRANCH  29  30
ENDBRANCH  27  29
ENDBRANCH  12  27
TORSDOF 5
ENDMDL
MODEL 5
REMARK VINA RESULT:      -8.0      3.367      5.199
REMARK  5 active torsions:
REMARK  status: ('A' for Active; 'I' for Inactive)
REMARK    1  A    between atoms: C13_20  and  O2_2 
REMARK    2  A    between atoms: C18_25  and  O2_2 
REMARK    3  A    between atoms: C12_19  and  C6_13 
REMARK    4  A    between atoms: C10_17  and  C13_20 
REMARK    5  A    between atoms: C14_21  and  C18_25 
ROOT
HETATM    1  O1  UNK     1      30.873 -10.945  32.259  1.00  0.00    -0.293 OA
HETATM    2  N1  UNK     1      32.887  -8.314  28.879  1.00  0.00    -0.362 N 
HETATM    3  C1  UNK     1      29.366  -9.654  29.195  1.00  0.00    -0.036 C 
HETATM    4  C2  UNK     1      30.674  -9.294  28.460  1.00  0.00     0.067 C 
HETATM    5  C3  UNK     1      29.650 -10.764  30.217  1.00  0.00     0.092 C 
HETATM    6  C4  UNK     1      31.841  -9.062  29.385  1.00  0.00     0.021 C 
HETATM    7  C5  UNK     1      31.900  -9.550  30.641  1.00  0.00     0.024 C 
HETATM    8  C6  UNK     1      33.086  -9.248  31.551  1.00  0.00     0.104 C 
HETATM    9  C7  UNK     1      30.807 -10.438  31.140  1.00  0.00     0.159 C 
HETATM   10  C8  UNK     1      28.335 -10.160  28.169  1.00  0.00     0.015 C 
HETATM   11  C9  UNK     1      28.772  -8.414  29.896  1.00  0.00     0.015 C 
HETATM   12  C10 UNK     1      34.225  -8.537  30.819  1.00  0.00     0.052 C 
HETATM   13  C11 UNK     1      34.078  -8.085  29.552  1.00  0.00     0.018 C 
HETATM   14  C15 UNK     1      35.118  -7.333  28.768  1.00  0.00     0.069 C 
HETATM   15  H12 UNK     1      32.809  -7.969  27.929  1.00  0.00     0.165 HD
ENDROOT
BRANCH   8  16
HETATM   16  C12 UNK     1      32.643  -8.432  32.736  1.00  0.00     0.029 A 
HETATM   17  C17 UNK     1      32.833  -8.996  34.097  1.00  0.00     0.194 A 
HETATM   18  O6  UNK     1      33.338 -10.097  34.280  1.00  0.00    -0.287 OA
HETATM   19  C22 UNK     1      32.380  -8.157  35.221  1.00  0.00     0.048 A 
HETATM   20  C23 UNK     1      31.811  -6.911  34.952  1.00  0.00     0.089 A 
HETATM   21  C24 UNK     1      32.515  -8.599  36.540  1.00  0.00     0.018 A 
HETATM   22  O4  UNK     1      31.655  -6.428  33.678  1.00  0.00    -0.321 OA
HETATM   23  C25 UNK     1      31.376  -6.101  36.001  1.00  0.00     0.038 A 
HETATM   24  C20 UNK     1      32.081  -7.220  32.640  1.00  0.00     0.154 A 
HETATM   25  C27 UNK     1      31.510  -6.541  37.318  1.00  0.00     0.003 A 
HETATM   26  C26 UNK     1      32.078  -7.786  37.587  1.00  0.00     0.001 A 
ENDBRANCH   8  16
BRANCH  12  27
HETATM   27  C13 UNK     1      35.503  -8.419  31.540  1.00  0.00     0.292 C 
HETATM   28  O5  UNK     1      36.173  -9.379  31.874  1.00  0.00    -0.259 OA
BRANCH  27  29
HETATM   29  O2  UNK     1      35.762  -7.105  31.740  1.00  0.00    -0.315 OA
BRANCH  29  30
HETATM   30  C18 UNK     1      36.476  -6.803  32.944  1.00  0.00     0.211 C 
BRANCH  30  31
HETATM   31  C14 UNK     1      35.481  -6.581  34.066  1.00  0.00     0.145 C 
HETATM   32  O3  UNK     1      34.842  -5.302  33.906  1.00  0.00    -0.384 OA
HETATM   33  C21 UNK     1      34.738  -4.683  35.197  1.00  0.00     0.168 C 
HETATM   34  C19 UNK     1      35.133  -5.726  36.221  1.00  0.00     0.029 C 
HETATM   35  C16 UNK     1      36.115  -6.568  35.446  1.00  0.00     0.036 C 
ENDBRANCH  30  31
ENDBRANCH  29  30
ENDBRANCH  27  29
ENDBRANCH  12  27
TORSDOF 5
ENDMDL
MODEL 6
REMARK VINA RESULT:      -8.0      2.591      6.280
REMARK  5 active torsions:
REMARK  status: ('A' for Active; 'I' for Inactive)
REMARK    1  A    between atoms: C13_20  and  O2_2 
REMARK    2  A    between atoms: C18_25  and  O2_2 
REMARK    3  A    between atoms: C12_19  and  C6_13 
REMARK    4  A    between atoms: C10_17  and  C13_20 
REMARK    5  A    between atoms: C14_21  and  C18_25 
ROOT
HETATM    1  O1  UNK     1      33.355 -10.598  33.490  1.00  0.00    -0.293 OA
HETATM    2  N1  UNK     1      35.572  -6.435  33.890  1.00  0.00    -0.362 N 
HETATM    3  C1  UNK     1      36.739  -9.723  32.436  1.00  0.00    -0.036 C 
HETATM    4  C2  UNK     1      36.873  -8.416  33.242  1.00  0.00     0.067 C 
HETATM    5  C3  UNK     1      35.714 -10.637  33.121  1.00  0.00     0.092 C 
HETATM    6  C4  UNK     1      35.550  -7.784  33.591  1.00  0.00     0.021 C 
HETATM    7  C5  UNK     1      34.388  -8.469  33.627  1.00  0.00     0.024 C 
HETATM    8  C6  UNK     1      33.069  -7.771  33.942  1.00  0.00     0.104 C 
HETATM    9  C7  UNK     1      34.394  -9.945  33.397  1.00  0.00     0.159 C 
HETATM   10  C8  UNK     1      38.106 -10.433  32.398  1.00  0.00     0.015 C 
HETATM   11  C9  UNK     1      36.314  -9.430  30.982  1.00  0.00     0.015 C 
HETATM   12  C10 UNK     1      33.261  -6.321  34.390  1.00  0.00     0.052 C 
HETATM   13  C11 UNK     1      34.469  -5.716  34.324  1.00  0.00     0.018 C 
HETATM   14  C15 UNK     1      34.748  -4.284  34.694  1.00  0.00     0.069 C 
HETATM   15  H12 UNK     1      36.465  -5.956  33.857  1.00  0.00     0.165 HD
ENDROOT
BRANCH   8  16
HETATM   16  C12 UNK     1      32.149  -7.827  32.752  1.00  0.00     0.029 A 
HETATM   17  C17 UNK     1      30.755  -8.298  32.954  1.00  0.00     0.194 A 
HETATM   18  O6  UNK     1      30.336  -8.638  34.054  1.00  0.00    -0.287 OA
HETATM   19  C22 UNK     1      29.897  -8.336  31.756  1.00  0.00     0.048 A 
HETATM   20  C23 UNK     1      30.429  -7.938  30.529  1.00  0.00     0.089 A 
HETATM   21  C24 UNK     1      28.570  -8.765  31.843  1.00  0.00     0.018 A 
HETATM   22  O4  UNK     1      31.723  -7.508  30.386  1.00  0.00    -0.321 OA
HETATM   23  C25 UNK     1      29.634  -7.965  29.382  1.00  0.00     0.038 A 
HETATM   24  C20 UNK     1      32.511  -7.479  31.511  1.00  0.00     0.154 A 
HETATM   25  C27 UNK     1      28.309  -8.393  29.466  1.00  0.00     0.003 A 
HETATM   26  C26 UNK     1      27.779  -8.792  30.694  1.00  0.00     0.001 A 
ENDBRANCH   8  16
BRANCH  12  27
HETATM   27  C13 UNK     1      32.081  -5.640  34.948  1.00  0.00     0.292 C 
HETATM   28  O5  UNK     1      31.420  -4.830  34.324  1.00  0.00    -0.259 OA
BRANCH  27  29
HETATM   29  O2  UNK     1      31.896  -6.075  36.217  1.00  0.00    -0.315 OA
BRANCH  29  30
HETATM   30  C18 UNK     1      32.380  -5.194  37.237  1.00  0.00     0.211 C 
BRANCH  30  31
HETATM   31  C14 UNK     1      31.295  -5.000  38.278  1.00  0.00     0.145 C 
HETATM   32  O3  UNK     1      30.661  -6.258  38.563  1.00  0.00    -0.384 OA
HETATM   33  C21 UNK     1      29.246  -6.038  38.670  1.00  0.00     0.168 C 
HETATM   34  C19 UNK     1      29.030  -4.540  38.669  1.00  0.00     0.029 C 
HETATM   35  C16 UNK     1      30.189  -4.059  37.832  1.00  0.00     0.036 C 
ENDBRANCH  30  31
ENDBRANCH  29  30
ENDBRANCH  27  29
ENDBRANCH  12  27
TORSDOF 5
ENDMDL
MODEL 7
REMARK VINA RESULT:      -7.9      3.170      5.808
REMARK  5 active torsions:
REMARK  status: ('A' for Active; 'I' for Inactive)
REMARK    1  A    between atoms: C13_20  and  O2_2 
REMARK    2  A    between atoms: C18_25  and  O2_2 
REMARK    3  A    between atoms: C12_19  and  C6_13 
REMARK    4  A    between atoms: C10_17  and  C13_20 
REMARK    5  A    between atoms: C14_21  and  C18_25 
ROOT
HETATM    1  O1  UNK     1      33.094  -8.391  34.045  1.00  0.00    -0.293 OA
HETATM    2  N1  UNK     1      29.413 -10.010  31.547  1.00  0.00    -0.362 N 
HETATM    3  C1  UNK     1      32.163 -11.856  33.370  1.00  0.00    -0.036 C 
HETATM    4  C2  UNK     1      31.180 -11.582  32.214  1.00  0.00     0.067 C 
HETATM    5  C3  UNK     1      33.174 -10.704  33.457  1.00  0.00     0.092 C 
HETATM    6  C4  UNK     1      30.600 -10.191  32.232  1.00  0.00     0.021 C 
HETATM    7  C5  UNK     1      31.184  -9.153  32.865  1.00  0.00     0.024 C 
HETATM    8  C6  UNK     1      30.531  -7.775  32.890  1.00  0.00     0.104 C 
HETATM    9  C7  UNK     1      32.514  -9.340  33.518  1.00  0.00     0.159 C 
HETATM   10  C8  UNK     1      32.916 -13.170  33.090  1.00  0.00     0.015 C 
HETATM   11  C9  UNK     1      31.409 -12.015  34.706  1.00  0.00     0.015 C 
HETATM   12  C10 UNK     1      29.307  -7.685  31.978  1.00  0.00     0.052 C 
HETATM   13  C11 UNK     1      28.792  -8.783  31.377  1.00  0.00     0.018 C 
HETATM   14  C15 UNK     1      27.566  -8.805  30.506  1.00  0.00     0.069 C 
HETATM   15  H12 UNK     1      29.008 -10.814  31.079  1.00  0.00     0.165 HD
ENDROOT
BRANCH   8  16
HETATM   16  C12 UNK     1      30.157  -7.398  34.298  1.00  0.00     0.029 A 
HETATM   17  C17 UNK     1      30.683  -6.126  34.856  1.00  0.00     0.194 A 
HETATM   18  O6  UNK     1      31.406  -5.380  34.206  1.00  0.00    -0.287 OA
HETATM   19  C22 UNK     1      30.288  -5.806  36.240  1.00  0.00     0.048 A 
HETATM   20  C23 UNK     1      29.462  -6.693  36.932  1.00  0.00     0.089 A 
HETATM   21  C24 UNK     1      30.732  -4.632  36.854  1.00  0.00     0.018 A 
HETATM   22  O4  UNK     1      28.997  -7.858  36.378  1.00  0.00    -0.321 OA
HETATM   23  C25 UNK     1      29.075  -6.409  38.242  1.00  0.00     0.038 A 
HETATM   24  C20 UNK     1      29.374  -8.144  35.088  1.00  0.00     0.154 A 
HETATM   25  C27 UNK     1      29.518  -5.238  38.857  1.00  0.00     0.003 A 
HETATM   26  C26 UNK     1      30.344  -4.352  38.165  1.00  0.00     0.001 A 
ENDBRANCH   8  16
BRANCH  12  27
HETATM   27  C13 UNK     1      28.753  -6.342  31.744  1.00  0.00     0.292 C 
HETATM   28  O5  UNK     1      28.060  -5.753  32.553  1.00  0.00    -0.259 OA
BRANCH  27  29
HETATM   29  O2  UNK     1      29.152  -5.923  30.519  1.00  0.00    -0.315 OA
BRANCH  29  30
HETATM   30  C18 UNK     1      30.513  -5.486  30.439  1.00  0.00     0.211 C 
BRANCH  30  31
HETATM   31  C14 UNK     1      31.222  -6.274  29.356  1.00  0.00     0.145 C 
HETATM   32  O3  UNK     1      30.299  -7.178  28.725  1.00  0.00    -0.384 OA
HETATM   33  C21 UNK     1      30.965  -8.432  28.515  1.00  0.00     0.168 C 
HETATM   34  C19 UNK     1      32.430  -8.214  28.831  1.00  0.00     0.029 C 
HETATM   35  C16 UNK     1      32.364  -7.130  29.878  1.00  0.00     0.036 C 
ENDBRANCH  30  31
ENDBRANCH  29  30
ENDBRANCH  27  29
ENDBRANCH  12  27
TORSDOF 5
ENDMDL
MODEL 8
REMARK VINA RESULT:      -7.9      2.424      6.978
REMARK  5 active torsions:
REMARK  status: ('A' for Active; 'I' for Inactive)
REMARK    1  A    between atoms: C13_20  and  O2_2 
REMARK    2  A    between atoms: C18_25  and  O2_2 
REMARK    3  A    between atoms: C12_19  and  C6_13 
REMARK    4  A    between atoms: C10_17  and  C13_20 
REMARK    5  A    between atoms: C14_21  and  C18_25 
ROOT
HETATM    1  O1  UNK     1      31.090  -9.829  36.694  1.00  0.00    -0.293 OA
HETATM    2  N1  UNK     1      28.249  -6.577  34.757  1.00  0.00    -0.362 N 
HETATM    3  C1  UNK     1      28.842  -7.495  38.376  1.00  0.00    -0.036 C 
HETATM    4  C2  UNK     1      28.002  -7.098  37.145  1.00  0.00     0.067 C 
HETATM    5  C3  UNK     1      29.446  -8.888  38.148  1.00  0.00     0.092 C 
HETATM    6  C4  UNK     1      28.717  -7.305  35.834  1.00  0.00     0.021 C 
HETATM    7  C5  UNK     1      29.755  -8.152  35.682  1.00  0.00     0.024 C 
HETATM    8  C6  UNK     1      30.473  -8.289  34.343  1.00  0.00     0.104 C 
HETATM    9  C7  UNK     1      30.188  -9.004  36.831  1.00  0.00     0.159 C 
HETATM   10  C8  UNK     1      27.931  -7.535  39.617  1.00  0.00     0.015 C 
HETATM   11  C9  UNK     1      29.957  -6.460  38.637  1.00  0.00     0.015 C 
HETATM   12  C10 UNK     1      29.764  -7.540  33.214  1.00  0.00     0.052 C 
HETATM   13  C11 UNK     1      28.721  -6.713  33.461  1.00  0.00     0.018 C 
HETATM   14  C15 UNK     1      27.992  -5.897  32.429  1.00  0.00     0.069 C 
HETATM   15  H12 UNK     1      27.463  -5.954  34.910  1.00  0.00     0.165 HD
ENDROOT
BRANCH   8  16
HETATM   16  C12 UNK     1      31.898  -7.820  34.461  1.00  0.00     0.029 A 
HETATM   17  C17 UNK     1      32.981  -8.708  33.967  1.00  0.00     0.194 A 
HETATM   18  O6  UNK     1      32.748  -9.802  33.468  1.00  0.00    -0.287 OA
HETATM   19  C22 UNK     1      34.358  -8.201  34.108  1.00  0.00     0.048 A 
HETATM   20  C23 UNK     1      34.563  -6.946  34.684  1.00  0.00     0.089 A 
HETATM   21  C24 UNK     1      35.446  -8.962  33.674  1.00  0.00     0.018 A 
HETATM   22  O4  UNK     1      33.532  -6.157  35.127  1.00  0.00    -0.321 OA
HETATM   23  C25 UNK     1      35.857  -6.447  34.828  1.00  0.00     0.038 A 
HETATM   24  C20 UNK     1      32.255  -6.643  34.990  1.00  0.00     0.154 A 
HETATM   25  C27 UNK     1      36.945  -7.206  34.395  1.00  0.00     0.003 A 
HETATM   26  C26 UNK     1      36.740  -8.459  33.819  1.00  0.00     0.001 A 
ENDBRANCH   8  16
BRANCH  12  27
HETATM   27  C13 UNK     1      30.234  -7.807  31.845  1.00  0.00     0.292 C 
HETATM   28  O5  UNK     1      31.093  -7.145  31.292  1.00  0.00    -0.259 OA
BRANCH  27  29
HETATM   29  O2  UNK     1      29.556  -8.875  31.361  1.00  0.00    -0.315 OA
BRANCH  29  30
HETATM   30  C18 UNK     1      30.208  -9.576  30.297  1.00  0.00     0.211 C 
BRANCH  30  31
HETATM   31  C14 UNK     1      30.814 -10.853  30.845  1.00  0.00     0.145 C 
HETATM   32  O3  UNK     1      30.743 -11.892  29.853  1.00  0.00    -0.384 OA
HETATM   33  C21 UNK     1      30.366 -13.115  30.504  1.00  0.00     0.168 C 
HETATM   34  C19 UNK     1      30.425 -12.858  31.995  1.00  0.00     0.029 C 
HETATM   35  C16 UNK     1      30.095 -11.388  32.071  1.00  0.00     0.036 C 
ENDBRANCH  30  31
ENDBRANCH  29  30
ENDBRANCH  27  29
ENDBRANCH  12  27
TORSDOF 5
ENDMDL
MODEL 9
REMARK VINA RESULT:      -7.9      2.266      5.846
REMARK  5 active torsions:
REMARK  status: ('A' for Active; 'I' for Inactive)
REMARK    1  A    between atoms: C13_20  and  O2_2 
REMARK    2  A    between atoms: C18_25  and  O2_2 
REMARK    3  A    between atoms: C12_19  and  C6_13 
REMARK    4  A    between atoms: C10_17  and  C13_20 
REMARK    5  A    between atoms: C14_21  and  C18_25 
ROOT
HETATM    1  O1  UNK     1      28.461  -6.227  34.636  1.00  0.00    -0.293 OA
HETATM    2  N1  UNK     1      32.147  -6.858  37.538  1.00  0.00    -0.362 N 
HETATM    3  C1  UNK     1      28.538  -7.935  37.862  1.00  0.00    -0.036 C 
HETATM    4  C2  UNK     1      29.889  -7.380  38.355  1.00  0.00     0.067 C 
HETATM    5  C3  UNK     1      27.930  -6.957  36.847  1.00  0.00     0.092 C 
HETATM    6  C4  UNK     1      30.799  -6.930  37.241  1.00  0.00     0.021 C 
HETATM    7  C5  UNK     1      30.356  -6.599  36.010  1.00  0.00     0.024 C 
HETATM    8  C6  UNK     1      31.325  -6.193  34.905  1.00  0.00     0.104 C 
HETATM    9  C7  UNK     1      28.888  -6.588  35.732  1.00  0.00     0.159 C 
HETATM   10  C8  UNK     1      27.584  -8.078  39.063  1.00  0.00     0.015 C 
HETATM   11  C9  UNK     1      28.716  -9.330  37.227  1.00  0.00     0.015 C 
HETATM   12  C10 UNK     1      32.758  -6.019  35.411  1.00  0.00     0.052 C 
HETATM   13  C11 UNK     1      33.111  -6.373  36.668  1.00  0.00     0.018 C 
HETATM   14  C15 UNK     1      34.500  -6.287  37.240  1.00  0.00     0.069 C 
HETATM   15  H12 UNK     1      32.440  -7.110  38.475  1.00  0.00     0.165 HD
ENDROOT
BRANCH   8  16
HETATM   16  C12 UNK     1      31.290  -7.196  33.783  1.00  0.00     0.029 A 
HETATM   17  C17 UNK     1      30.943  -6.722  32.419  1.00  0.00     0.194 A 
HETATM   18  O6  UNK     1      30.689  -5.548  32.183  1.00  0.00    -0.287 OA
HETATM   19  C22 UNK     1      30.922  -7.745  31.357  1.00  0.00     0.048 A 
HETATM   20  C23 UNK     1      31.220  -9.068  31.684  1.00  0.00     0.089 A 
HETATM   21  C24 UNK     1      30.606  -7.400  30.040  1.00  0.00     0.018 A 
HETATM   22  O4  UNK     1      31.537  -9.463  32.959  1.00  0.00    -0.321 OA
HETATM   23  C25 UNK     1      31.206 -10.053  30.696  1.00  0.00     0.038 A 
HETATM   24  C20 UNK     1      31.552  -8.500  33.938  1.00  0.00     0.154 A 
HETATM   25  C27 UNK     1      30.891  -9.710  29.381  1.00  0.00     0.003 A 
HETATM   26  C26 UNK     1      30.593  -8.387  29.054  1.00  0.00     0.001 A 
ENDBRANCH   8  16
BRANCH  12  27
HETATM   27  C13 UNK     1      33.716  -5.396  34.483  1.00  0.00     0.292 C 
HETATM   28  O5  UNK     1      33.878  -4.193  34.397  1.00  0.00    -0.259 OA
BRANCH  27  29
HETATM   29  O2  UNK     1      34.340  -6.378  33.789  1.00  0.00    -0.315 OA
BRANCH  29  30
HETATM   30  C18 UNK     1      35.496  -5.962  33.055  1.00  0.00     0.211 C 
BRANCH  30  31
HETATM   31  C14 UNK     1      35.665  -6.863  31.847  1.00  0.00     0.145 C 
HETATM   32  O3  UNK     1      35.763  -6.066  30.654  1.00  0.00    -0.384 OA
HETATM   33  C21 UNK     1      34.995  -6.701  29.621  1.00  0.00     0.168 C 
HETATM   34  C19 UNK     1      34.589  -8.062  30.145  1.00  0.00     0.029 C 
HETATM   35  C16 UNK     1      34.499  -7.810  31.629  1.00  0.00     0.036 C 
ENDBRANCH  30  31
ENDBRANCH  29  30
ENDBRANCH  27  29
ENDBRANCH  12  27
TORSDOF 5
ENDMDL
MODEL 10
REMARK VINA RESULT:      -7.8      2.612      5.956
REMARK  5 active torsions:
REMARK  status: ('A' for Active; 'I' for Inactive)
REMARK    1  A    between atoms: C13_20  and  O2_2 
REMARK    2  A    between atoms: C18_25  and  O2_2 
REMARK    3  A    between atoms: C12_19  and  C6_13 
REMARK    4  A    between atoms: C10_17  and  C13_20 
REMARK    5  A    between atoms: C14_21  and  C18_25 
ROOT
HETATM    1  O1  UNK     1      31.291  -7.710  31.432  1.00  0.00    -0.293 OA
HETATM    2  N1  UNK     1      28.662 -10.588  34.118  1.00  0.00    -0.362 N 
HETATM    3  C1  UNK     1      30.986 -11.343  31.233  1.00  0.00    -0.036 C 
HETATM    4  C2  UNK     1      29.709 -11.488  32.085  1.00  0.00     0.067 C 
HETATM    5  C3  UNK     1      31.025  -9.938  30.615  1.00  0.00     0.092 C 
HETATM    6  C4  UNK     1      29.483 -10.339  33.035  1.00  0.00     0.021 C 
HETATM    7  C5  UNK     1      30.031  -9.118  32.864  1.00  0.00     0.024 C 
HETATM    8  C6  UNK     1      29.806  -8.002  33.880  1.00  0.00     0.104 C 
HETATM    9  C7  UNK     1      30.837  -8.835  31.638  1.00  0.00     0.159 C 
HETATM   10  C8  UNK     1      30.962 -12.392  30.106  1.00  0.00     0.015 C 
HETATM   11  C9  UNK     1      32.247 -11.591  32.088  1.00  0.00     0.015 C 
HETATM   12  C10 UNK     1      28.769  -8.372  34.941  1.00  0.00     0.052 C 
HETATM   13  C11 UNK     1      28.268  -9.625  35.034  1.00  0.00     0.018 C 
HETATM   14  C15 UNK     1      27.285 -10.097  36.071  1.00  0.00     0.069 C 
HETATM   15  H12 UNK     1      28.265 -11.517  34.209  1.00  0.00     0.165 HD
ENDROOT
BRANCH   8  16
HETATM   16  C12 UNK     1      31.106  -7.622  34.536  1.00  0.00     0.029 A 
HETATM   17  C17 UNK     1      31.603  -6.232  34.372  1.00  0.00     0.194 A 
HETATM   18  O6  UNK     1      30.989  -5.393  33.724  1.00  0.00    -0.287 OA
HETATM   19  C22 UNK     1      32.882  -5.913  35.033  1.00  0.00     0.048 A 
HETATM   20  C23 UNK     1      33.538  -6.909  35.758  1.00  0.00     0.089 A 
HETATM   21  C24 UNK     1      33.434  -4.632  34.938  1.00  0.00     0.018 A 
HETATM   22  O4  UNK     1      33.042  -8.181  35.885  1.00  0.00    -0.321 OA
HETATM   23  C25 UNK     1      34.749  -6.628  36.392  1.00  0.00     0.038 A 
HETATM   24  C20 UNK     1      31.851  -8.465  35.263  1.00  0.00     0.154 A 
HETATM   25  C27 UNK     1      35.301  -5.351  36.297  1.00  0.00     0.003 A 
HETATM   26  C26 UNK     1      34.645  -4.356  35.573  1.00  0.00     0.001 A 
ENDBRANCH   8  16
BRANCH  12  27
HETATM   27  C13 UNK     1      28.304  -7.284  35.817  1.00  0.00     0.292 C 
HETATM   28  O5  UNK     1      27.496  -6.443  35.467  1.00  0.00    -0.259 OA
BRANCH  27  29
HETATM   29  O2  UNK     1      28.921  -7.407  37.017  1.00  0.00    -0.315 OA
BRANCH  29  30
HETATM   30  C18 UNK     1      28.392  -6.580  38.059  1.00  0.00     0.211 C 
BRANCH  30  31
HETATM   31  C14 UNK     1      29.485  -5.659  38.562  1.00  0.00     0.145 C 
HETATM   32  O3  UNK     1      29.432  -4.406  37.858  1.00  0.00    -0.384 OA
HETATM   33  C21 UNK     1      30.774  -4.000  37.553  1.00  0.00     0.168 C 
HETATM   34  C19 UNK     1      31.700  -4.938  38.299  1.00  0.00     0.029 C 
HETATM   35  C16 UNK     1      30.885  -6.206  38.347  1.00  0.00     0.036 C 
ENDBRANCH  30  31
ENDBRANCH  29  30
ENDBRANCH  27  29
ENDBRANCH  12  27
TORSDOF 5
ENDMDL
