MODEL 1
REMARK VINA RESULT:      -8.8      0.000      0.000
REMARK  5 active torsions:
REMARK  status: ('A' for Active; 'I' for Inactive)
REMARK    1  A    between atoms: C10_17  and  O1_2 
REMARK    2  A    between atoms: C13_20  and  O1_2 
REMARK       I    between atoms: C11_18  and  N1_7 
REMARK    3  A    between atoms: C9_16  and  N1_7 
REMARK    4  A    between atoms: C10_17  and  C8_15 
REMARK    5  A    between atoms: C11_18  and  C12_19 
ROOT
HETATM    1  S1  UNK     1      19.328  -1.933  12.237  1.00  0.00    -0.075 SA
HETATM    2  C1  UNK     1      19.344  -6.573  11.441  1.00  0.00     0.005 C 
HETATM    3  C2  UNK     1      19.085  -6.200   9.978  1.00  0.00     0.001 C 
HETATM    4  C3  UNK     1      20.483  -5.791  12.096  1.00  0.00     0.041 C 
HETATM    5  C4  UNK     1      18.478  -4.810   9.758  1.00  0.00     0.005 C 
HETATM    6  C5  UNK     1      20.113  -4.379  12.432  1.00  0.00    -0.026 A 
HETATM    7  C6  UNK     1      19.433  -3.652  10.047  1.00  0.00     0.046 C 
HETATM    8  C7  UNK     1      19.653  -3.450  11.515  1.00  0.00    -0.008 A 
HETATM    9  C8  UNK     1      20.193  -3.812  13.745  1.00  0.00     0.080 A 
HETATM   10  C9  UNK     1      19.797  -2.495  13.780  1.00  0.00     0.094 A 
ENDROOT
BRANCH  10  11
HETATM   11  N1  UNK     1      19.722  -1.597  14.810  1.00  0.00    -0.316 N 
HETATM   12  C11 UNK     1      18.699  -1.440  15.773  1.00  0.00     0.262 C 
HETATM   13  O4  UNK     1      17.666  -2.090  15.872  1.00  0.00    -0.267 OA
HETATM   14  H11 UNK     1      20.527  -0.980  14.880  1.00  0.00     0.169 HD
BRANCH  12  15
HETATM   15  C12 UNK     1      18.969  -0.356  16.741  1.00  0.00     0.108 A 
HETATM   16  C14 UNK     1      18.950  -0.699  18.035  1.00  0.00     0.037 A 
HETATM   17  C15 UNK     1      19.204   0.299  19.062  1.00  0.00    -0.001 A 
HETATM   18  C17 UNK     1      19.464   1.610  18.676  1.00  0.00     0.089 A 
HETATM   19  C19 UNK     1      19.194  -0.015  20.423  1.00  0.00     0.014 A 
HETATM   20  O3  UNK     1      19.484   1.965  17.313  1.00  0.00    -0.274 OA
HETATM   21  C20 UNK     1      19.715   2.613  19.610  1.00  0.00     0.038 A 
HETATM   22  C16 UNK     1      19.245   1.033  16.308  1.00  0.00     0.304 A 
HETATM   23  O5  UNK     1      19.262   1.351  15.124  1.00  0.00    -0.259 OA
HETATM   24  C22 UNK     1      19.703   2.292  20.967  1.00  0.00     0.003 A 
HETATM   25  C21 UNK     1      19.443   0.982  21.372  1.00  0.00     0.001 A 
ENDBRANCH  12  15
ENDBRANCH  10  11
BRANCH   9  26
HETATM   26  C10 UNK     1      20.634  -4.500  14.936  1.00  0.00     0.296 C 
HETATM   27  O2  UNK     1      21.816  -4.788  15.168  1.00  0.00    -0.259 OA
BRANCH  26  28
HETATM   28  O1  UNK     1      19.614  -4.815  15.807  1.00  0.00    -0.318 OA
BRANCH  28  29
HETATM   29  C13 UNK     1      18.925  -6.049  15.574  1.00  0.00     0.174 C 
HETATM   30  C18 UNK     1      17.489  -5.748  15.204  1.00  0.00     0.034 C 
ENDBRANCH  28  29
ENDBRANCH  26  28
ENDBRANCH   9  26
TORSDOF 5
ENDMDL
MODEL 2
REMARK VINA RESULT:      -8.7     17.046     21.303
REMARK  5 active torsions:
REMARK  status: ('A' for Active; 'I' for Inactive)
REMARK    1  A    between atoms: C10_17  and  O1_2 
REMARK    2  A    between atoms: C13_20  and  O1_2 
REMARK       I    between atoms: C11_18  and  N1_7 
REMARK    3  A    between atoms: C9_16  and  N1_7 
REMARK    4  A    between atoms: C10_17  and  C8_15 
REMARK    5  A    between atoms: C11_18  and  C12_19 
ROOT
HETATM    1  S1  UNK     1      21.446  -4.772  37.834  1.00  0.00    -0.075 SA
HETATM    2  C1  UNK     1      20.340  -9.265  38.708  1.00  0.00     0.005 C 
HETATM    3  C2  UNK     1      21.417  -9.191  39.795  1.00  0.00     0.001 C 
HETATM    4  C3  UNK     1      19.352  -8.098  38.724  1.00  0.00     0.041 C 
HETATM    5  C4  UNK     1      22.463  -8.087  39.602  1.00  0.00     0.005 C 
HETATM    6  C5  UNK     1      19.930  -6.826  38.185  1.00  0.00    -0.026 A 
HETATM    7  C6  UNK     1      21.929  -6.670  39.816  1.00  0.00     0.046 C 
HETATM    8  C7  UNK     1      21.067  -6.211  38.681  1.00  0.00    -0.008 A 
HETATM    9  C8  UNK     1      19.377  -6.084  37.092  1.00  0.00     0.080 A 
HETATM   10  C9  UNK     1      20.101  -4.951  36.799  1.00  0.00     0.094 A 
ENDROOT
BRANCH  10  11
HETATM   11  N1  UNK     1      19.922  -3.982  35.850  1.00  0.00    -0.316 N 
HETATM   12  C11 UNK     1      19.538  -2.633  36.024  1.00  0.00     0.262 C 
HETATM   13  O4  UNK     1      19.285  -2.063  37.078  1.00  0.00    -0.267 OA
HETATM   14  H11 UNK     1      20.112  -4.294  34.901  1.00  0.00     0.169 HD
BRANCH  12  15
HETATM   15  C12 UNK     1      19.450  -1.882  34.754  1.00  0.00     0.108 A 
HETATM   16  C14 UNK     1      20.061  -2.431  33.698  1.00  0.00     0.037 A 
HETATM   17  C15 UNK     1      20.031  -1.766  32.405  1.00  0.00    -0.001 A 
HETATM   18  C17 UNK     1      19.359  -0.554  32.287  1.00  0.00     0.089 A 
HETATM   19  C19 UNK     1      20.654  -2.304  31.276  1.00  0.00     0.014 A 
HETATM   20  O3  UNK     1      18.717   0.020  33.403  1.00  0.00    -0.274 OA
HETATM   21  C20 UNK     1      19.293   0.134  31.078  1.00  0.00     0.038 A 
HETATM   22  C16 UNK     1      18.729  -0.593  34.652  1.00  0.00     0.304 A 
HETATM   23  O5  UNK     1      18.169  -0.086  35.618  1.00  0.00    -0.259 OA
HETATM   24  C22 UNK     1      19.918  -0.408  29.956  1.00  0.00     0.003 A 
HETATM   25  C21 UNK     1      20.597  -1.624  30.055  1.00  0.00     0.001 A 
ENDBRANCH  12  15
ENDBRANCH  10  11
BRANCH   9  26
HETATM   26  C10 UNK     1      18.193  -6.439  36.345  1.00  0.00     0.296 C 
HETATM   27  O2  UNK     1      17.039  -6.296  36.772  1.00  0.00    -0.259 OA
BRANCH  26  28
HETATM   28  O1  UNK     1      18.457  -6.959  35.097  1.00  0.00    -0.318 OA
BRANCH  28  29
HETATM   29  C13 UNK     1      19.647  -7.746  34.965  1.00  0.00     0.174 C 
HETATM   30  C18 UNK     1      20.510  -7.153  33.872  1.00  0.00     0.034 C 
ENDBRANCH  28  29
ENDBRANCH  26  28
ENDBRANCH   9  26
TORSDOF 5
ENDMDL
MODEL 3
REMARK VINA RESULT:      -8.3     15.033     20.008
REMARK  5 active torsions:
REMARK  status: ('A' for Active; 'I' for Inactive)
REMARK    1  A    between atoms: C10_17  and  O1_2 
REMARK    2  A    between atoms: C13_20  and  O1_2 
REMARK       I    between atoms: C11_18  and  N1_7 
REMARK    3  A    between atoms: C9_16  and  N1_7 
REMARK    4  A    between atoms: C10_17  and  C8_15 
REMARK    5  A    between atoms: C11_18  and  C12_19 
ROOT
HETATM    1  S1  UNK     1      15.399   6.588  32.188  1.00  0.00    -0.075 SA
HETATM    2  C1  UNK     1      16.780  10.711  33.996  1.00  0.00     0.005 C 
HETATM    3  C2  UNK     1      15.302  11.102  33.915  1.00  0.00     0.001 C 
HETATM    4  C3  UNK     1      17.033   9.344  34.633  1.00  0.00     0.041 C 
HETATM    5  C4  UNK     1      14.468  10.298  32.913  1.00  0.00     0.005 C 
HETATM    6  C5  UNK     1      16.690   8.198  33.731  1.00  0.00    -0.026 A 
HETATM    7  C6  UNK     1      14.221   8.845  33.321  1.00  0.00     0.046 C 
HETATM    8  C7  UNK     1      15.444   7.995  33.162  1.00  0.00    -0.008 A 
HETATM    9  C8  UNK     1      17.607   7.168  33.345  1.00  0.00     0.080 A 
HETATM   10  C9  UNK     1      17.037   6.234  32.511  1.00  0.00     0.094 A 
ENDROOT
BRANCH  10  11
HETATM   11  N1  UNK     1      17.550   5.110  31.923  1.00  0.00    -0.316 N 
HETATM   12  C11 UNK     1      17.977   3.909  32.533  1.00  0.00     0.262 C 
HETATM   13  O4  UNK     1      17.969   3.638  33.728  1.00  0.00    -0.267 OA
HETATM   14  H11 UNK     1      17.610   5.165  30.910  1.00  0.00     0.169 HD
BRANCH  12  15
HETATM   15  C12 UNK     1      18.476   2.907  31.567  1.00  0.00     0.108 A 
HETATM   16  C14 UNK     1      18.726   1.687  32.056  1.00  0.00     0.037 A 
HETATM   17  C15 UNK     1      19.221   0.634  31.183  1.00  0.00    -0.001 A 
HETATM   18  C17 UNK     1      19.429   0.918  29.838  1.00  0.00     0.089 A 
HETATM   19  C19 UNK     1      19.495  -0.653  31.650  1.00  0.00     0.014 A 
HETATM   20  O3  UNK     1      19.163   2.205  29.328  1.00  0.00    -0.274 OA
HETATM   21  C20 UNK     1      19.901  -0.044  28.948  1.00  0.00     0.038 A 
HETATM   22  C16 UNK     1      18.690   3.232  30.139  1.00  0.00     0.304 A 
HETATM   23  O5  UNK     1      18.462   4.349  29.687  1.00  0.00    -0.259 OA
HETATM   24  C22 UNK     1      20.173  -1.327  29.422  1.00  0.00     0.003 A 
HETATM   25  C21 UNK     1      19.970  -1.631  30.770  1.00  0.00     0.001 A 
ENDBRANCH  12  15
ENDBRANCH  10  11
BRANCH   9  26
HETATM   26  C10 UNK     1      18.988   7.071  33.757  1.00  0.00     0.296 C 
HETATM   27  O2  UNK     1      19.347   6.897  34.929  1.00  0.00    -0.259 OA
BRANCH  26  28
HETATM   28  O1  UNK     1      19.888   7.189  32.720  1.00  0.00    -0.318 OA
BRANCH  28  29
HETATM   29  C13 UNK     1      20.952   6.231  32.678  1.00  0.00     0.174 C 
HETATM   30  C18 UNK     1      21.236   5.873  31.235  1.00  0.00     0.034 C 
ENDBRANCH  28  29
ENDBRANCH  26  28
ENDBRANCH   9  26
TORSDOF 5
ENDMDL
MODEL 4
REMARK VINA RESULT:      -8.1     15.265     19.036
REMARK  5 active torsions:
REMARK  status: ('A' for Active; 'I' for Inactive)
REMARK    1  A    between atoms: C10_17  and  O1_2 
REMARK    2  A    between atoms: C13_20  and  O1_2 
REMARK       I    between atoms: C11_18  and  N1_7 
REMARK    3  A    between atoms: C9_16  and  N1_7 
REMARK    4  A    between atoms: C10_17  and  C8_15 
REMARK    5  A    between atoms: C11_18  and  C12_19 
ROOT
HETATM    1  S1  UNK     1      18.023   1.285  34.965  1.00  0.00    -0.075 SA
HETATM    2  C1  UNK     1      20.564  -2.110  32.918  1.00  0.00     0.005 C 
HETATM    3  C2  UNK     1      20.393  -2.865  34.239  1.00  0.00     0.001 C 
HETATM    4  C3  UNK     1      19.267  -1.525  32.358  1.00  0.00     0.041 C 
HETATM    5  C4  UNK     1      20.070  -1.988  35.454  1.00  0.00     0.005 C 
HETATM    6  C5  UNK     1      18.801  -0.306  33.093  1.00  0.00    -0.026 A 
HETATM    7  C6  UNK     1      18.666  -1.384  35.439  1.00  0.00     0.046 C 
HETATM    8  C7  UNK     1      18.541  -0.264  34.452  1.00  0.00    -0.008 A 
HETATM    9  C8  UNK     1      18.564   0.967  32.483  1.00  0.00     0.080 A 
HETATM   10  C9  UNK     1      18.139   1.917  33.383  1.00  0.00     0.094 A 
ENDROOT
BRANCH  10  11
HETATM   11  N1  UNK     1      17.807   3.235  33.222  1.00  0.00    -0.316 N 
HETATM   12  C11 UNK     1      18.445   4.379  33.752  1.00  0.00     0.262 C 
HETATM   13  O4  UNK     1      19.436   4.411  34.471  1.00  0.00    -0.267 OA
HETATM   14  H11 UNK     1      16.998   3.387  32.625  1.00  0.00     0.169 HD
BRANCH  12  15
HETATM   15  C12 UNK     1      17.796   5.647  33.356  1.00  0.00     0.108 A 
HETATM   16  C14 UNK     1      17.297   6.392  34.350  1.00  0.00     0.037 A 
HETATM   17  C15 UNK     1      16.639   7.656  34.059  1.00  0.00    -0.001 A 
HETATM   18  C17 UNK     1      16.539   8.074  32.737  1.00  0.00     0.089 A 
HETATM   19  C19 UNK     1      16.105   8.465  35.065  1.00  0.00     0.014 A 
HETATM   20  O3  UNK     1      17.067   7.286  31.694  1.00  0.00    -0.274 OA
HETATM   21  C20 UNK     1      15.921   9.274  32.391  1.00  0.00     0.038 A 
HETATM   22  C16 UNK     1      17.701   6.072  31.941  1.00  0.00     0.304 A 
HETATM   23  O5  UNK     1      18.156   5.392  31.028  1.00  0.00    -0.259 OA
HETATM   24  C22 UNK     1      15.389  10.075  33.400  1.00  0.00     0.003 A 
HETATM   25  C21 UNK     1      15.480   9.672  34.734  1.00  0.00     0.001 A 
ENDBRANCH  12  15
ENDBRANCH  10  11
BRANCH   9  26
HETATM   26  C10 UNK     1      18.734   1.276  31.082  1.00  0.00     0.296 C 
HETATM   27  O2  UNK     1      17.905   1.902  30.408  1.00  0.00    -0.259 OA
BRANCH  26  28
HETATM   28  O1  UNK     1      19.915   0.808  30.549  1.00  0.00    -0.318 OA
BRANCH  28  29
HETATM   29  C13 UNK     1      19.871   0.343  29.194  1.00  0.00     0.174 C 
HETATM   30  C18 UNK     1      20.772  -0.866  29.060  1.00  0.00     0.034 C 
ENDBRANCH  28  29
ENDBRANCH  26  28
ENDBRANCH   9  26
TORSDOF 5
ENDMDL
MODEL 5
REMARK VINA RESULT:      -8.0     19.310     21.850
REMARK  5 active torsions:
REMARK  status: ('A' for Active; 'I' for Inactive)
REMARK    1  A    between atoms: C10_17  and  O1_2 
REMARK    2  A    between atoms: C13_20  and  O1_2 
REMARK       I    between atoms: C11_18  and  N1_7 
REMARK    3  A    between atoms: C9_16  and  N1_7 
REMARK    4  A    between atoms: C10_17  and  C8_15 
REMARK    5  A    between atoms: C11_18  and  C12_19 
ROOT
HETATM    1  S1  UNK     1      19.565  -6.465  38.772  1.00  0.00    -0.075 SA
HETATM    2  C1  UNK     1      19.795 -10.800  36.947  1.00  0.00     0.005 C 
HETATM    3  C2  UNK     1      20.151 -11.247  38.368  1.00  0.00     0.001 C 
HETATM    4  C3  UNK     1      18.579  -9.876  36.866  1.00  0.00     0.041 C 
HETATM    5  C4  UNK     1      20.718 -10.149  39.274  1.00  0.00     0.005 C 
HETATM    6  C5  UNK     1      18.865  -8.480  37.326  1.00  0.00    -0.026 A 
HETATM    7  C6  UNK     1      19.698  -9.090  39.696  1.00  0.00     0.046 C 
HETATM    8  C7  UNK     1      19.357  -8.153  38.578  1.00  0.00    -0.008 A 
HETATM    9  C8  UNK     1      18.661  -7.307  36.530  1.00  0.00     0.080 A 
HETATM   10  C9  UNK     1      19.001  -6.150  37.192  1.00  0.00     0.094 A 
ENDROOT
BRANCH  10  11
HETATM   11  N1  UNK     1      18.961  -4.838  36.804  1.00  0.00    -0.316 N 
HETATM   12  C11 UNK     1      20.034  -3.940  36.610  1.00  0.00     0.262 C 
HETATM   13  O4  UNK     1      21.229  -4.167  36.755  1.00  0.00    -0.267 OA
HETATM   14  H11 UNK     1      18.023  -4.490  36.624  1.00  0.00     0.169 HD
BRANCH  12  15
HETATM   15  C12 UNK     1      19.600  -2.593  36.184  1.00  0.00     0.108 A 
HETATM   16  C14 UNK     1      18.909  -1.882  37.083  1.00  0.00     0.037 A 
HETATM   17  C15 UNK     1      18.438  -0.545  36.756  1.00  0.00    -0.001 A 
HETATM   18  C17 UNK     1      18.717  -0.023  35.498  1.00  0.00     0.089 A 
HETATM   19  C19 UNK     1      17.714   0.231  37.664  1.00  0.00     0.014 A 
HETATM   20  O3  UNK     1      19.445  -0.775  34.556  1.00  0.00    -0.274 OA
HETATM   21  C20 UNK     1      18.295   1.251  35.123  1.00  0.00     0.038 A 
HETATM   22  C16 UNK     1      19.909  -2.056  34.839  1.00  0.00     0.304 A 
HETATM   23  O5  UNK     1      20.541  -2.705  34.013  1.00  0.00    -0.259 OA
HETATM   24  C22 UNK     1      17.572   2.020  36.033  1.00  0.00     0.003 A 
HETATM   25  C21 UNK     1      17.282   1.511  37.301  1.00  0.00     0.001 A 
ENDBRANCH  12  15
ENDBRANCH  10  11
BRANCH   9  26
HETATM   26  C10 UNK     1      18.157  -7.284  35.177  1.00  0.00     0.296 C 
HETATM   27  O2  UNK     1      17.003  -7.608  34.865  1.00  0.00    -0.259 OA
BRANCH  26  28
HETATM   28  O1  UNK     1      19.081  -6.863  34.245  1.00  0.00    -0.318 OA
BRANCH  28  29
HETATM   29  C13 UNK     1      20.409  -7.386  34.373  1.00  0.00     0.174 C 
HETATM   30  C18 UNK     1      21.117  -7.260  33.041  1.00  0.00     0.034 C 
ENDBRANCH  28  29
ENDBRANCH  26  28
ENDBRANCH   9  26
TORSDOF 5
ENDMDL
MODEL 6
REMARK VINA RESULT:      -8.0      2.102      3.439
REMARK  5 active torsions:
REMARK  status: ('A' for Active; 'I' for Inactive)
REMARK    1  A    between atoms: C10_17  and  O1_2 
REMARK    2  A    between atoms: C13_20  and  O1_2 
REMARK       I    between atoms: C11_18  and  N1_7 
REMARK    3  A    between atoms: C9_16  and  N1_7 
REMARK    4  A    between atoms: C10_17  and  C8_15 
REMARK    5  A    between atoms: C11_18  and  C12_19 
ROOT
HETATM    1  S1  UNK     1      20.378  -5.401  14.610  1.00  0.00    -0.075 SA
HETATM    2  C1  UNK     1      21.743  -6.681  10.290  1.00  0.00     0.005 C 
HETATM    3  C2  UNK     1      21.895  -8.084  10.886  1.00  0.00     0.001 C 
HETATM    4  C3  UNK     1      20.417  -5.997  10.625  1.00  0.00     0.041 C 
HETATM    5  C4  UNK     1      22.067  -8.130  12.408  1.00  0.00     0.005 C 
HETATM    6  C5  UNK     1      20.349  -5.498  12.036  1.00  0.00    -0.026 A 
HETATM    7  C6  UNK     1      20.808  -7.762  13.196  1.00  0.00     0.046 C 
HETATM    8  C7  UNK     1      20.524  -6.292  13.157  1.00  0.00    -0.008 A 
HETATM    9  C8  UNK     1      20.092  -4.138  12.402  1.00  0.00     0.080 A 
HETATM   10  C9  UNK     1      20.081  -3.948  13.765  1.00  0.00     0.094 A 
ENDROOT
BRANCH  10  11
HETATM   11  N1  UNK     1      19.876  -2.827  14.522  1.00  0.00    -0.316 N 
HETATM   12  C11 UNK     1      18.796  -2.525  15.381  1.00  0.00     0.262 C 
HETATM   13  O4  UNK     1      17.816  -3.221  15.617  1.00  0.00    -0.267 OA
HETATM   14  H11 UNK     1      20.622  -2.140  14.452  1.00  0.00     0.169 HD
BRANCH  12  15
HETATM   15  C12 UNK     1      18.923  -1.207  16.040  1.00  0.00     0.108 A 
HETATM   16  C14 UNK     1      18.721  -1.184  17.362  1.00  0.00     0.037 A 
HETATM   17  C15 UNK     1      18.824   0.066  18.099  1.00  0.00    -0.001 A 
HETATM   18  C17 UNK     1      19.133   1.231  17.406  1.00  0.00     0.089 A 
HETATM   19  C19 UNK     1      18.622   0.135  19.479  1.00  0.00     0.014 A 
HETATM   20  O3  UNK     1      19.345   1.201  16.013  1.00  0.00    -0.274 OA
HETATM   21  C20 UNK     1      19.246   2.460  18.051  1.00  0.00     0.038 A 
HETATM   22  C16 UNK     1      19.253   0.021  15.282  1.00  0.00     0.304 A 
HETATM   23  O5  UNK     1      19.438   0.004  14.070  1.00  0.00    -0.259 OA
HETATM   24  C22 UNK     1      19.042   2.522  19.429  1.00  0.00     0.003 A 
HETATM   25  C21 UNK     1      18.731   1.362  20.141  1.00  0.00     0.001 A 
ENDBRANCH  12  15
ENDBRANCH  10  11
BRANCH   9  26
HETATM   26  C10 UNK     1      19.862  -3.047  11.485  1.00  0.00     0.296 C 
HETATM   27  O2  UNK     1      18.758  -2.514  11.310  1.00  0.00    -0.259 OA
BRANCH  26  28
HETATM   28  O1  UNK     1      20.992  -2.640  10.809  1.00  0.00    -0.318 OA
BRANCH  28  29
HETATM   29  C13 UNK     1      20.960  -2.741   9.380  1.00  0.00     0.174 C 
HETATM   30  C18 UNK     1      22.360  -3.015   8.875  1.00  0.00     0.034 C 
ENDBRANCH  28  29
ENDBRANCH  26  28
ENDBRANCH   9  26
TORSDOF 5
ENDMDL
MODEL 7
REMARK VINA RESULT:      -8.0     23.501     25.466
REMARK  5 active torsions:
REMARK  status: ('A' for Active; 'I' for Inactive)
REMARK    1  A    between atoms: C10_17  and  O1_2 
REMARK    2  A    between atoms: C13_20  and  O1_2 
REMARK       I    between atoms: C11_18  and  N1_7 
REMARK    3  A    between atoms: C9_16  and  N1_7 
REMARK    4  A    between atoms: C10_17  and  C8_15 
REMARK    5  A    between atoms: C11_18  and  C12_19 
ROOT
HETATM    1  S1  UNK     1      29.263  -5.571  38.179  1.00  0.00    -0.075 SA
HETATM    2  C1  UNK     1      33.476  -7.378  37.104  1.00  0.00     0.005 C 
HETATM    3  C2  UNK     1      34.013  -5.969  37.374  1.00  0.00     0.001 C 
HETATM    4  C3  UNK     1      32.543  -7.913  38.191  1.00  0.00     0.041 C 
HETATM    5  C4  UNK     1      32.977  -4.846  37.269  1.00  0.00     0.005 C 
HETATM    6  C5  UNK     1      31.180  -7.293  38.157  1.00  0.00    -0.026 A 
HETATM    7  C6  UNK     1      31.942  -4.835  38.394  1.00  0.00     0.046 C 
HETATM    8  C7  UNK     1      30.934  -5.934  38.249  1.00  0.00    -0.008 A 
HETATM    9  C8  UNK     1      29.958  -8.030  38.029  1.00  0.00     0.080 A 
HETATM   10  C9  UNK     1      28.846  -7.219  38.027  1.00  0.00     0.094 A 
ENDROOT
BRANCH  10  11
HETATM   11  N1  UNK     1      27.513  -7.509  37.927  1.00  0.00    -0.316 N 
HETATM   12  C11 UNK     1      26.697  -8.239  38.822  1.00  0.00     0.262 C 
HETATM   13  O4  UNK     1      27.034  -8.760  39.878  1.00  0.00    -0.267 OA
HETATM   14  H11 UNK     1      27.068  -7.127  37.097  1.00  0.00     0.169 HD
BRANCH  12  15
HETATM   15  C12 UNK     1      25.291  -8.346  38.377  1.00  0.00     0.108 A 
HETATM   16  C14 UNK     1      24.391  -7.661  39.092  1.00  0.00     0.037 A 
HETATM   17  C15 UNK     1      22.982  -7.705  38.731  1.00  0.00    -0.001 A 
HETATM   18  C17 UNK     1      22.591  -8.468  37.637  1.00  0.00     0.089 A 
HETATM   19  C19 UNK     1      22.009  -7.005  39.448  1.00  0.00     0.014 A 
HETATM   20  O3  UNK     1      23.544  -9.187  36.888  1.00  0.00    -0.274 OA
HETATM   21  C20 UNK     1      21.259  -8.552  37.239  1.00  0.00     0.038 A 
HETATM   22  C16 UNK     1      24.898  -9.165  37.208  1.00  0.00     0.304 A 
HETATM   23  O5  UNK     1      25.720  -9.794  36.552  1.00  0.00    -0.259 OA
HETATM   24  C22 UNK     1      20.292  -7.852  37.960  1.00  0.00     0.003 A 
HETATM   25  C21 UNK     1      20.666  -7.080  39.062  1.00  0.00     0.001 A 
ENDBRANCH  12  15
ENDBRANCH  10  11
BRANCH   9  26
HETATM   26  C10 UNK     1      29.847  -9.465  37.912  1.00  0.00     0.296 C 
HETATM   27  O2  UNK     1      30.079 -10.253  38.840  1.00  0.00    -0.259 OA
BRANCH  26  28
HETATM   28  O1  UNK     1      29.454  -9.894  36.663  1.00  0.00    -0.318 OA
BRANCH  28  29
HETATM   29  C13 UNK     1      30.347  -9.618  35.577  1.00  0.00     0.174 C 
HETATM   30  C18 UNK     1      31.532 -10.556  35.664  1.00  0.00     0.034 C 
ENDBRANCH  28  29
ENDBRANCH  26  28
ENDBRANCH   9  26
TORSDOF 5
ENDMDL
MODEL 8
REMARK VINA RESULT:      -7.9     12.952     15.065
REMARK  5 active torsions:
REMARK  status: ('A' for Active; 'I' for Inactive)
REMARK    1  A    between atoms: C10_17  and  O1_2 
REMARK    2  A    between atoms: C13_20  and  O1_2 
REMARK       I    between atoms: C11_18  and  N1_7 
REMARK    3  A    between atoms: C9_16  and  N1_7 
REMARK    4  A    between atoms: C10_17  and  C8_15 
REMARK    5  A    between atoms: C11_18  and  C12_19 
ROOT
HETATM    1  S1  UNK     1      10.314   9.110   9.839  1.00  0.00    -0.075 SA
HETATM    2  C1  UNK     1       7.849   5.186   9.004  1.00  0.00     0.005 C 
HETATM    3  C2  UNK     1       6.716   5.883   9.763  1.00  0.00     0.001 C 
HETATM    4  C3  UNK     1       8.511   6.052   7.931  1.00  0.00     0.041 C 
HETATM    5  C4  UNK     1       7.158   7.005  10.708  1.00  0.00     0.005 C 
HETATM    6  C5  UNK     1       9.418   7.102   8.495  1.00  0.00    -0.026 A 
HETATM    7  C6  UNK     1       7.665   8.262   9.999  1.00  0.00     0.046 C 
HETATM    8  C7  UNK     1       9.027   8.068   9.406  1.00  0.00    -0.008 A 
HETATM    9  C8  UNK     1      10.804   7.239   8.161  1.00  0.00     0.080 A 
HETATM   10  C9  UNK     1      11.407   8.287   8.818  1.00  0.00     0.094 A 
ENDROOT
BRANCH  10  11
HETATM   11  N1  UNK     1      12.692   8.757   8.787  1.00  0.00    -0.316 N 
HETATM   12  C11 UNK     1      13.710   8.616   9.757  1.00  0.00     0.262 C 
HETATM   13  O4  UNK     1      13.636   8.034  10.832  1.00  0.00    -0.267 OA
HETATM   14  H11 UNK     1      12.927   9.261   7.935  1.00  0.00     0.169 HD
BRANCH  12  15
HETATM   15  C12 UNK     1      14.981   9.263   9.370  1.00  0.00     0.108 A 
HETATM   16  C14 UNK     1      14.878  10.387   8.650  1.00  0.00     0.037 A 
HETATM   17  C15 UNK     1      16.073  11.096   8.221  1.00  0.00    -0.001 A 
HETATM   18  C17 UNK     1      17.319  10.587   8.570  1.00  0.00     0.089 A 
HETATM   19  C19 UNK     1      16.011  12.272   7.470  1.00  0.00     0.014 A 
HETATM   20  O3  UNK     1      17.422   9.404   9.329  1.00  0.00    -0.274 OA
HETATM   21  C20 UNK     1      18.502  11.217   8.191  1.00  0.00     0.038 A 
HETATM   22  C16 UNK     1      16.297   8.703   9.753  1.00  0.00     0.304 A 
HETATM   23  O5  UNK     1      16.396   7.674  10.412  1.00  0.00    -0.259 OA
HETATM   24  C22 UNK     1      18.433  12.390   7.441  1.00  0.00     0.003 A 
HETATM   25  C21 UNK     1      17.190  12.916   7.080  1.00  0.00     0.001 A 
ENDBRANCH  12  15
ENDBRANCH  10  11
BRANCH   9  26
HETATM   26  C10 UNK     1      11.537   6.401   7.242  1.00  0.00     0.296 C 
HETATM   27  O2  UNK     1      11.993   6.796   6.160  1.00  0.00    -0.259 OA
BRANCH  26  28
HETATM   28  O1  UNK     1      11.691   5.102   7.675  1.00  0.00    -0.318 OA
BRANCH  28  29
HETATM   29  C13 UNK     1      12.526   4.899   8.822  1.00  0.00     0.174 C 
HETATM   30  C18 UNK     1      13.954   5.246   8.458  1.00  0.00     0.034 C 
ENDBRANCH  28  29
ENDBRANCH  26  28
ENDBRANCH   9  26
TORSDOF 5
ENDMDL
MODEL 9
REMARK VINA RESULT:      -7.9      1.690      2.215
REMARK  5 active torsions:
REMARK  status: ('A' for Active; 'I' for Inactive)
REMARK    1  A    between atoms: C10_17  and  O1_2 
REMARK    2  A    between atoms: C13_20  and  O1_2 
REMARK       I    between atoms: C11_18  and  N1_7 
REMARK    3  A    between atoms: C9_16  and  N1_7 
REMARK    4  A    between atoms: C10_17  and  C8_15 
REMARK    5  A    between atoms: C11_18  and  C12_19 
ROOT
HETATM    1  S1  UNK     1      19.075  -3.810  12.204  1.00  0.00    -0.075 SA
HETATM    2  C1  UNK     1      16.933  -7.999  12.022  1.00  0.00     0.005 C 
HETATM    3  C2  UNK     1      17.384  -8.029  10.558  1.00  0.00     0.001 C 
HETATM    4  C3  UNK     1      18.036  -7.619  13.010  1.00  0.00     0.041 C 
HETATM    5  C4  UNK     1      17.691  -6.660   9.943  1.00  0.00     0.005 C 
HETATM    6  C5  UNK     1      18.368  -6.159  12.993  1.00  0.00    -0.026 A 
HETATM    7  C6  UNK     1      18.959  -5.997  10.482  1.00  0.00     0.046 C 
HETATM    8  C7  UNK     1      18.774  -5.461  11.869  1.00  0.00    -0.008 A 
HETATM    9  C8  UNK     1      18.311  -5.302  14.139  1.00  0.00     0.080 A 
HETATM   10  C9  UNK     1      18.668  -4.005  13.851  1.00  0.00     0.094 A 
ENDROOT
BRANCH  10  11
HETATM   11  N1  UNK     1      18.748  -2.890  14.640  1.00  0.00    -0.316 N 
HETATM   12  C11 UNK     1      19.616  -2.635  15.726  1.00  0.00     0.262 C 
HETATM   13  O4  UNK     1      20.478  -3.378  16.178  1.00  0.00    -0.267 OA
HETATM   14  H11 UNK     1      18.096  -2.154  14.382  1.00  0.00     0.169 HD
BRANCH  12  15
HETATM   15  C12 UNK     1      19.409  -1.307  16.341  1.00  0.00     0.108 A 
HETATM   16  C14 UNK     1      19.295  -1.283  17.674  1.00  0.00     0.037 A 
HETATM   17  C15 UNK     1      19.089  -0.023  18.370  1.00  0.00    -0.001 A 
HETATM   18  C17 UNK     1      19.012   1.151  17.628  1.00  0.00     0.089 A 
HETATM   19  C19 UNK     1      18.965   0.048  19.760  1.00  0.00     0.014 A 
HETATM   20  O3  UNK     1      19.133   1.120  16.225  1.00  0.00    -0.274 OA
HETATM   21  C20 UNK     1      18.815   2.390  18.233  1.00  0.00     0.038 A 
HETATM   22  C16 UNK     1      19.330  -0.070  15.531  1.00  0.00     0.304 A 
HETATM   23  O5  UNK     1      19.434  -0.088  14.309  1.00  0.00    -0.259 OA
HETATM   24  C22 UNK     1      18.692   2.453  19.621  1.00  0.00     0.003 A 
HETATM   25  C21 UNK     1      18.767   1.285  20.382  1.00  0.00     0.001 A 
ENDBRANCH  12  15
ENDBRANCH  10  11
BRANCH   9  26
HETATM   26  C10 UNK     1      17.928  -5.702  15.473  1.00  0.00     0.296 C 
HETATM   27  O2  UNK     1      18.582  -6.488  16.172  1.00  0.00    -0.259 OA
BRANCH  26  28
HETATM   28  O1  UNK     1      16.756  -5.126  15.912  1.00  0.00    -0.318 OA
BRANCH  28  29
HETATM   29  C13 UNK     1      15.997  -5.864  16.878  1.00  0.00     0.174 C 
HETATM   30  C18 UNK     1      15.017  -6.761  16.152  1.00  0.00     0.034 C 
ENDBRANCH  28  29
ENDBRANCH  26  28
ENDBRANCH   9  26
TORSDOF 5
ENDMDL
MODEL 10
REMARK VINA RESULT:      -7.8     18.415     22.516
REMARK  5 active torsions:
REMARK  status: ('A' for Active; 'I' for Inactive)
REMARK    1  A    between atoms: C10_17  and  O1_2 
REMARK    2  A    between atoms: C13_20  and  O1_2 
REMARK       I    between atoms: C11_18  and  N1_7 
REMARK    3  A    between atoms: C9_16  and  N1_7 
REMARK    4  A    between atoms: C10_17  and  C8_15 
REMARK    5  A    between atoms: C11_18  and  C12_19 
ROOT
HETATM    1  S1  UNK     1      19.031   8.251  34.395  1.00  0.00    -0.075 SA
HETATM    2  C1  UNK     1      19.828   6.016  30.328  1.00  0.00     0.005 C 
HETATM    3  C2  UNK     1      21.123   5.533  30.989  1.00  0.00     0.001 C 
HETATM    4  C3  UNK     1      18.580   5.845  31.194  1.00  0.00     0.041 C 
HETATM    5  C4  UNK     1      21.616   6.389  32.159  1.00  0.00     0.005 C 
HETATM    6  C5  UNK     1      18.488   6.845  32.304  1.00  0.00    -0.026 A 
HETATM    7  C6  UNK     1      20.754   6.291  33.419  1.00  0.00     0.046 C 
HETATM    8  C7  UNK     1      19.457   7.027  33.277  1.00  0.00    -0.008 A 
HETATM    9  C8  UNK     1      17.385   7.738  32.502  1.00  0.00     0.080 A 
HETATM   10  C9  UNK     1      17.551   8.553  33.598  1.00  0.00     0.094 A 
ENDROOT
BRANCH  10  11
HETATM   11  N1  UNK     1      16.753   9.528  34.132  1.00  0.00    -0.316 N 
HETATM   12  C11 UNK     1      16.940  10.929  34.119  1.00  0.00     0.262 C 
HETATM   13  O4  UNK     1      17.869  11.550  33.619  1.00  0.00    -0.267 OA
HETATM   14  H11 UNK     1      15.912   9.173  34.580  1.00  0.00     0.169 HD
BRANCH  12  15
HETATM   15  C12 UNK     1      15.857  11.669  34.801  1.00  0.00     0.108 A 
HETATM   16  C14 UNK     1      16.239  12.557  35.726  1.00  0.00     0.037 A 
HETATM   17  C15 UNK     1      15.246  13.334  36.451  1.00  0.00    -0.001 A 
HETATM   18  C17 UNK     1      13.899  13.136  36.168  1.00  0.00     0.089 A 
HETATM   19  C19 UNK     1      15.600  14.272  37.424  1.00  0.00     0.014 A 
HETATM   20  O3  UNK     1      13.502  12.199  35.193  1.00  0.00    -0.274 OA
HETATM   21  C20 UNK     1      12.898  13.847  36.827  1.00  0.00     0.038 A 
HETATM   22  C16 UNK     1      14.429  11.442  34.483  1.00  0.00     0.304 A 
HETATM   23  O5  UNK     1      14.075  10.628  33.637  1.00  0.00    -0.259 OA
HETATM   24  C22 UNK     1      13.259  14.781  37.797  1.00  0.00     0.003 A 
HETATM   25  C21 UNK     1      14.607  14.993  38.095  1.00  0.00     0.001 A 
ENDBRANCH  12  15
ENDBRANCH  10  11
BRANCH   9  26
HETATM   26  C10 UNK     1      16.205   7.815  31.674  1.00  0.00     0.296 C 
HETATM   27  O2  UNK     1      16.009   8.702  30.832  1.00  0.00    -0.259 OA
BRANCH  26  28
HETATM   28  O1  UNK     1      15.298   6.802  31.901  1.00  0.00    -0.318 OA
BRANCH  28  29
HETATM   29  C13 UNK     1      13.988   7.194  32.328  1.00  0.00     0.174 C 
HETATM   30  C18 UNK     1      13.956   7.237  33.841  1.00  0.00     0.034 C 
ENDBRANCH  28  29
ENDBRANCH  26  28
ENDBRANCH   9  26
TORSDOF 5
ENDMDL
