MODEL 1
REMARK VINA RESULT:      -8.8      0.000      0.000
REMARK  7 active torsions:
REMARK  status: ('A' for Active; 'I' for Inactive)
REMARK    1  A    between atoms: C21_27  and  O2_2 
REMARK    2  A    between atoms: C8_14  and  O2_2 
REMARK    3  A    between atoms: C10_16  and  O3_3 
REMARK    4  A    between atoms: C22_28  and  O3_3 
REMARK    5  A    between atoms: C1_7  and  C7_13 
REMARK    6  A    between atoms: C5_11  and  C9_15 
REMARK    7  A    between atoms: C14_20  and  C9_15 
ROOT
HETATM    1  O1  UNK     1      18.320   3.365  33.072  1.00  0.00    -0.339 OA
HETATM    2  O4  UNK     1      18.730   3.572  28.995  1.00  0.00    -0.292 OA
HETATM    3  C1  UNK     1      18.830   4.552  32.445  1.00  0.00     0.169 C 
HETATM    4  C2  UNK     1      18.248   4.724  31.044  1.00  0.00     0.121 C 
HETATM    5  C3  UNK     1      18.544   2.233  32.332  1.00  0.00     0.095 A 
HETATM    6  C4  UNK     1      18.714   2.240  30.944  1.00  0.00     0.078 A 
HETATM    7  C5  UNK     1      18.572   1.023  33.027  1.00  0.00     0.014 A 
HETATM    8  C6  UNK     1      18.601   3.519  30.213  1.00  0.00     0.167 C 
HETATM    9  C8  UNK     1      18.944   1.047  30.255  1.00  0.00     0.098 A 
HETATM   10  C10 UNK     1      18.800  -0.170  32.340  1.00  0.00     0.091 A 
HETATM   11  C11 UNK     1      18.990  -0.157  30.959  1.00  0.00     0.076 A 
ENDROOT
BRANCH   3  12
HETATM   12  C7  UNK     1      18.495   5.739  33.325  1.00  0.00    -0.029 A 
HETATM   13  C12 UNK     1      19.519   6.491  33.900  1.00  0.00     0.010 A 
HETATM   14  C15 UNK     1      19.210   7.584  34.709  1.00  0.00     0.001 A 
HETATM   15  C18 UNK     1      17.878   7.926  34.941  1.00  0.00     0.000 A 
HETATM   16  C16 UNK     1      16.854   7.173  34.367  1.00  0.00     0.001 A 
HETATM   17  C13 UNK     1      17.162   6.080  33.558  1.00  0.00     0.010 A 
ENDBRANCH   3  12
BRANCH   7  18
HETATM   18  C9  UNK     1      18.370   0.997  34.509  1.00  0.00     0.072 C 
BRANCH  18  19
HETATM   19  C14 UNK     1      16.929   0.785  34.899  1.00  0.00    -0.020 C 
HETATM   20  C17 UNK     1      16.406   0.711  36.138  1.00  0.00    -0.091 C 
HETATM   21  C19 UNK     1      17.294   0.834  37.348  1.00  0.00     0.042 C 
HETATM   22  C20 UNK     1      14.953   0.496  36.455  1.00  0.00     0.042 C 
ENDBRANCH  18  19
ENDBRANCH   7  18
BRANCH  10  23
HETATM   23  O3  UNK     1      18.840  -1.360  33.005  1.00  0.00    -0.279 OA
BRANCH  23  24
HETATM   24  C22 UNK     1      20.136  -1.861  33.203  1.00  0.00     0.260 C 
HETATM   25  O6  UNK     1      21.050  -1.825  32.391  1.00  0.00    -0.265 OA
HETATM   26  C24 UNK     1      20.249  -2.458  34.574  1.00  0.00     0.126 C 
ENDBRANCH  23  24
ENDBRANCH  10  23
BRANCH   9  27
HETATM   27  O2  UNK     1      19.120   0.999  28.905  1.00  0.00    -0.278 OA
BRANCH  27  28
HETATM   28  C21 UNK     1      19.612  -0.229  28.434  1.00  0.00     0.260 C 
HETATM   29  O5  UNK     1      19.063  -0.953  27.615  1.00  0.00    -0.265 OA
HETATM   30  C23 UNK     1      20.927  -0.539  29.086  1.00  0.00     0.126 C 
ENDBRANCH  27  28
ENDBRANCH   9  27
TORSDOF 7
ENDMDL
MODEL 2
REMARK VINA RESULT:      -8.8     13.471     16.237
REMARK  7 active torsions:
REMARK  status: ('A' for Active; 'I' for Inactive)
REMARK    1  A    between atoms: C21_27  and  O2_2 
REMARK    2  A    between atoms: C8_14  and  O2_2 
REMARK    3  A    between atoms: C10_16  and  O3_3 
REMARK    4  A    between atoms: C22_28  and  O3_3 
REMARK    5  A    between atoms: C1_7  and  C7_13 
REMARK    6  A    between atoms: C5_11  and  C9_15 
REMARK    7  A    between atoms: C14_20  and  C9_15 
ROOT
HETATM    1  O1  UNK     1      29.207  -7.299  36.408  1.00  0.00    -0.339 OA
HETATM    2  O4  UNK     1      31.928  -4.776  38.157  1.00  0.00    -0.292 OA
HETATM    3  C1  UNK     1      29.728  -7.576  37.717  1.00  0.00     0.169 C 
HETATM    4  C2  UNK     1      30.084  -6.283  38.449  1.00  0.00     0.121 C 
HETATM    5  C3  UNK     1      30.061  -6.550  35.641  1.00  0.00     0.095 A 
HETATM    6  C4  UNK     1      31.024  -5.689  36.177  1.00  0.00     0.078 A 
HETATM    7  C5  UNK     1      29.918  -6.655  34.257  1.00  0.00     0.014 A 
HETATM    8  C6  UNK     1      31.109  -5.529  37.643  1.00  0.00     0.167 C 
HETATM    9  C8  UNK     1      31.865  -4.959  35.334  1.00  0.00     0.098 A 
HETATM   10  C10 UNK     1      30.756  -5.925  33.413  1.00  0.00     0.091 A 
HETATM   11  C11 UNK     1      31.730  -5.083  33.950  1.00  0.00     0.076 A 
ENDROOT
BRANCH   3  12
HETATM   12  C7  UNK     1      28.692  -8.370  38.486  1.00  0.00    -0.029 A 
HETATM   13  C12 UNK     1      27.393  -7.882  38.614  1.00  0.00     0.010 A 
HETATM   14  C15 UNK     1      26.440  -8.614  39.322  1.00  0.00     0.001 A 
HETATM   15  C18 UNK     1      26.786  -9.836  39.899  1.00  0.00     0.000 A 
HETATM   16  C16 UNK     1      28.086 -10.323  39.771  1.00  0.00     0.001 A 
HETATM   17  C13 UNK     1      29.040  -9.592  39.064  1.00  0.00     0.010 A 
ENDBRANCH   3  12
BRANCH   7  18
HETATM   18  C9  UNK     1      28.878  -7.555  33.669  1.00  0.00     0.072 C 
BRANCH  18  19
HETATM   19  C14 UNK     1      29.335  -8.987  33.569  1.00  0.00    -0.020 C 
HETATM   20  C17 UNK     1      29.382  -9.770  32.473  1.00  0.00    -0.091 C 
HETATM   21  C19 UNK     1      28.933  -9.237  31.138  1.00  0.00     0.042 C 
HETATM   22  C20 UNK     1      29.850 -11.197  32.444  1.00  0.00     0.042 C 
ENDBRANCH  18  19
ENDBRANCH   7  18
BRANCH  10  23
HETATM   23  O3  UNK     1      30.638  -6.022  32.058  1.00  0.00    -0.279 OA
BRANCH  23  24
HETATM   24  C22 UNK     1      29.847  -5.017  31.480  1.00  0.00     0.260 C 
HETATM   25  O6  UNK     1      29.984  -3.813  31.645  1.00  0.00    -0.265 OA
HETATM   26  C24 UNK     1      28.789  -5.634  30.615  1.00  0.00     0.126 C 
ENDBRANCH  23  24
ENDBRANCH  10  23
BRANCH   9  27
HETATM   27  O2  UNK     1      32.822  -4.111  35.804  1.00  0.00    -0.278 OA
BRANCH  27  28
HETATM   28  C21 UNK     1      34.113  -4.378  35.320  1.00  0.00     0.260 C 
HETATM   29  O5  UNK     1      34.671  -3.784  34.406  1.00  0.00    -0.265 OA
HETATM   30  C23 UNK     1      34.725  -5.511  36.088  1.00  0.00     0.126 C 
ENDBRANCH  27  28
ENDBRANCH   9  27
TORSDOF 7
ENDMDL
MODEL 3
REMARK VINA RESULT:      -8.7     13.249     16.097
REMARK  7 active torsions:
REMARK  status: ('A' for Active; 'I' for Inactive)
REMARK    1  A    between atoms: C21_27  and  O2_2 
REMARK    2  A    between atoms: C8_14  and  O2_2 
REMARK    3  A    between atoms: C10_16  and  O3_3 
REMARK    4  A    between atoms: C22_28  and  O3_3 
REMARK    5  A    between atoms: C1_7  and  C7_13 
REMARK    6  A    between atoms: C5_11  and  C9_15 
REMARK    7  A    between atoms: C14_20  and  C9_15 
ROOT
HETATM    1  O1  UNK     1      29.231  -7.321  36.303  1.00  0.00    -0.339 OA
HETATM    2  O4  UNK     1      31.794  -4.638  38.053  1.00  0.00    -0.292 OA
HETATM    3  C1  UNK     1      29.704  -7.525  37.643  1.00  0.00     0.169 C 
HETATM    4  C2  UNK     1      29.988  -6.192  38.332  1.00  0.00     0.121 C 
HETATM    5  C3  UNK     1      30.094  -6.576  35.541  1.00  0.00     0.095 A 
HETATM    6  C4  UNK     1      31.005  -5.663  36.078  1.00  0.00     0.078 A 
HETATM    7  C5  UNK     1      30.014  -6.744  34.157  1.00  0.00     0.014 A 
HETATM    8  C6  UNK     1      31.022  -5.438  37.538  1.00  0.00     0.167 C 
HETATM    9  C8  UNK     1      31.858  -4.941  35.241  1.00  0.00     0.098 A 
HETATM   10  C10 UNK     1      30.865  -6.022  33.318  1.00  0.00     0.091 A 
HETATM   11  C11 UNK     1      31.787  -5.127  33.859  1.00  0.00     0.076 A 
ENDROOT
BRANCH   3  12
HETATM   12  C7  UNK     1      28.662  -8.321  38.401  1.00  0.00    -0.029 A 
HETATM   13  C12 UNK     1      27.360  -7.834  38.516  1.00  0.00     0.010 A 
HETATM   14  C15 UNK     1      26.401  -8.567  39.215  1.00  0.00     0.001 A 
HETATM   15  C18 UNK     1      26.743  -9.788  39.796  1.00  0.00     0.000 A 
HETATM   16  C16 UNK     1      28.045 -10.274  39.681  1.00  0.00     0.001 A 
HETATM   17  C13 UNK     1      29.004  -9.542  38.984  1.00  0.00     0.010 A 
ENDBRANCH   3  12
BRANCH   7  18
HETATM   18  C9  UNK     1      29.029  -7.701  33.566  1.00  0.00     0.072 C 
BRANCH  18  19
HETATM   19  C14 UNK     1      28.028  -7.026  32.663  1.00  0.00    -0.020 C 
HETATM   20  C17 UNK     1      27.596  -7.431  31.452  1.00  0.00    -0.091 C 
HETATM   21  C19 UNK     1      28.130  -8.698  30.838  1.00  0.00     0.042 C 
HETATM   22  C20 UNK     1      26.593  -6.705  30.602  1.00  0.00     0.042 C 
ENDBRANCH  18  19
ENDBRANCH   7  18
BRANCH  10  23
HETATM   23  O3  UNK     1      30.808  -6.180  31.965  1.00  0.00    -0.279 OA
BRANCH  23  24
HETATM   24  C22 UNK     1      31.728  -7.111  31.459  1.00  0.00     0.260 C 
HETATM   25  O6  UNK     1      32.514  -7.775  32.121  1.00  0.00    -0.265 OA
HETATM   26  C24 UNK     1      31.614  -7.182  29.966  1.00  0.00     0.126 C 
ENDBRANCH  23  24
ENDBRANCH  10  23
BRANCH   9  27
HETATM   27  O2  UNK     1      32.767  -4.043  35.713  1.00  0.00    -0.278 OA
BRANCH  27  28
HETATM   28  C21 UNK     1      34.083  -4.276  35.281  1.00  0.00     0.260 C 
HETATM   29  O5  UNK     1      34.658  -3.676  34.382  1.00  0.00    -0.265 OA
HETATM   30  C23 UNK     1      34.698  -5.383  36.084  1.00  0.00     0.126 C 
ENDBRANCH  27  28
ENDBRANCH   9  27
TORSDOF 7
ENDMDL
MODEL 4
REMARK VINA RESULT:      -8.6     13.423     16.063
REMARK  7 active torsions:
REMARK  status: ('A' for Active; 'I' for Inactive)
REMARK    1  A    between atoms: C21_27  and  O2_2 
REMARK    2  A    between atoms: C8_14  and  O2_2 
REMARK    3  A    between atoms: C10_16  and  O3_3 
REMARK    4  A    between atoms: C22_28  and  O3_3 
REMARK    5  A    between atoms: C1_7  and  C7_13 
REMARK    6  A    between atoms: C5_11  and  C9_15 
REMARK    7  A    between atoms: C14_20  and  C9_15 
ROOT
HETATM    1  O1  UNK     1      27.350  -9.055  35.762  1.00  0.00    -0.339 OA
HETATM    2  O4  UNK     1      28.110  -7.451  39.460  1.00  0.00    -0.292 OA
HETATM    3  C1  UNK     1      26.762  -9.622  36.942  1.00  0.00     0.169 C 
HETATM    4  C2  UNK     1      26.547  -8.556  38.014  1.00  0.00     0.121 C 
HETATM    5  C3  UNK     1      28.529  -8.403  36.014  1.00  0.00     0.095 A 
HETATM    6  C4  UNK     1      28.856  -7.854  37.257  1.00  0.00     0.078 A 
HETATM    7  C5  UNK     1      29.416  -8.274  34.944  1.00  0.00     0.014 A 
HETATM    8  C6  UNK     1      27.872  -7.928  38.357  1.00  0.00     0.167 C 
HETATM    9  C8  UNK     1      30.079  -7.206  37.443  1.00  0.00     0.098 A 
HETATM   10  C10 UNK     1      30.639  -7.625  35.127  1.00  0.00     0.091 A 
HETATM   11  C11 UNK     1      30.971  -7.098  36.375  1.00  0.00     0.076 A 
ENDROOT
BRANCH   3  12
HETATM   12  C7  UNK     1      25.453 -10.280  36.556  1.00  0.00    -0.029 A 
HETATM   13  C12 UNK     1      25.437 -11.615  36.151  1.00  0.00     0.010 A 
HETATM   14  C15 UNK     1      24.232 -12.220  35.796  1.00  0.00     0.001 A 
HETATM   15  C18 UNK     1      23.043 -11.492  35.849  1.00  0.00     0.000 A 
HETATM   16  C16 UNK     1      23.060 -10.158  36.254  1.00  0.00     0.001 A 
HETATM   17  C13 UNK     1      24.265  -9.552  36.609  1.00  0.00     0.010 A 
ENDBRANCH   3  12
BRANCH   7  18
HETATM   18  C9  UNK     1      29.071  -8.836  33.602  1.00  0.00     0.072 C 
BRANCH  18  19
HETATM   19  C14 UNK     1      28.225  -7.900  32.776  1.00  0.00    -0.020 C 
HETATM   20  C17 UNK     1      27.995  -7.941  31.449  1.00  0.00    -0.091 C 
HETATM   21  C19 UNK     1      28.626  -9.012  30.600  1.00  0.00     0.042 C 
HETATM   22  C20 UNK     1      27.138  -6.971  30.687  1.00  0.00     0.042 C 
ENDBRANCH  18  19
ENDBRANCH   7  18
BRANCH  10  23
HETATM   23  O3  UNK     1      31.522  -7.499  34.096  1.00  0.00    -0.279 OA
BRANCH  23  24
HETATM   24  C22 UNK     1      31.901  -6.174  33.828  1.00  0.00     0.260 C 
HETATM   25  O6  UNK     1      32.963  -5.655  34.143  1.00  0.00    -0.265 OA
HETATM   26  C24 UNK     1      30.804  -5.468  33.089  1.00  0.00     0.126 C 
ENDBRANCH  23  24
ENDBRANCH  10  23
BRANCH   9  27
HETATM   27  O2  UNK     1      30.449  -6.659  38.634  1.00  0.00    -0.278 OA
BRANCH  27  28
HETATM   28  C21 UNK     1      30.868  -5.321  38.545  1.00  0.00     0.260 C 
HETATM   29  O5  UNK     1      32.029  -4.933  38.563  1.00  0.00    -0.265 OA
HETATM   30  C23 UNK     1      29.678  -4.417  38.425  1.00  0.00     0.126 C 
ENDBRANCH  27  28
ENDBRANCH   9  27
TORSDOF 7
ENDMDL
MODEL 5
REMARK VINA RESULT:      -8.6     13.490     16.593
REMARK  7 active torsions:
REMARK  status: ('A' for Active; 'I' for Inactive)
REMARK    1  A    between atoms: C21_27  and  O2_2 
REMARK    2  A    between atoms: C8_14  and  O2_2 
REMARK    3  A    between atoms: C10_16  and  O3_3 
REMARK    4  A    between atoms: C22_28  and  O3_3 
REMARK    5  A    between atoms: C1_7  and  C7_13 
REMARK    6  A    between atoms: C5_11  and  C9_15 
REMARK    7  A    between atoms: C14_20  and  C9_15 
ROOT
HETATM    1  O1  UNK     1      30.926  -6.529  34.599  1.00  0.00    -0.339 OA
HETATM    2  O4  UNK     1      34.854  -5.349  34.515  1.00  0.00    -0.292 OA
HETATM    3  C1  UNK     1      31.617  -6.193  35.811  1.00  0.00     0.169 C 
HETATM    4  C2  UNK     1      32.701  -5.148  35.553  1.00  0.00     0.121 C 
HETATM    5  C3  UNK     1      31.768  -6.965  33.608  1.00  0.00     0.095 A 
HETATM    6  C4  UNK     1      33.120  -6.616  33.537  1.00  0.00     0.078 A 
HETATM    7  C5  UNK     1      31.208  -7.776  32.620  1.00  0.00     0.014 A 
HETATM    8  C6  UNK     1      33.679  -5.692  34.545  1.00  0.00     0.167 C 
HETATM    9  C8  UNK     1      33.920  -7.103  32.500  1.00  0.00     0.098 A 
HETATM   10  C10 UNK     1      32.005  -8.262  31.583  1.00  0.00     0.091 A 
HETATM   11  C11 UNK     1      33.359  -7.930  31.526  1.00  0.00     0.076 A 
ENDROOT
BRANCH   3  12
HETATM   12  C7  UNK     1      30.602  -5.690  36.817  1.00  0.00    -0.029 A 
HETATM   13  C12 UNK     1      29.453  -6.435  37.078  1.00  0.00     0.010 A 
HETATM   14  C15 UNK     1      28.519  -5.971  38.005  1.00  0.00     0.001 A 
HETATM   15  C18 UNK     1      28.736  -4.764  38.670  1.00  0.00     0.000 A 
HETATM   16  C16 UNK     1      29.885  -4.020  38.408  1.00  0.00     0.001 A 
HETATM   17  C13 UNK     1      30.819  -4.483  37.482  1.00  0.00     0.010 A 
ENDBRANCH   3  12
BRANCH   7  18
HETATM   18  C9  UNK     1      29.758  -8.140  32.671  1.00  0.00     0.072 C 
BRANCH  18  19
HETATM   19  C14 UNK     1      28.884  -7.161  31.928  1.00  0.00    -0.020 C 
HETATM   20  C17 UNK     1      28.003  -7.416  30.942  1.00  0.00    -0.091 C 
HETATM   21  C19 UNK     1      27.804  -8.824  30.445  1.00  0.00     0.042 C 
HETATM   22  C20 UNK     1      27.161  -6.388  30.242  1.00  0.00     0.042 C 
ENDBRANCH  18  19
ENDBRANCH   7  18
BRANCH  10  23
HETATM   23  O3  UNK     1      31.478  -9.063  30.615  1.00  0.00    -0.279 OA
BRANCH  23  24
HETATM   24  C22 UNK     1      31.838  -8.696  29.308  1.00  0.00     0.260 C 
HETATM   25  O6  UNK     1      32.664  -9.264  28.606  1.00  0.00    -0.265 OA
HETATM   26  C24 UNK     1      31.059  -7.488  28.884  1.00  0.00     0.126 C 
ENDBRANCH  23  24
ENDBRANCH  10  23
BRANCH   9  27
HETATM   27  O2  UNK     1      35.243  -6.798  32.387  1.00  0.00    -0.278 OA
BRANCH  27  28
HETATM   28  C21 UNK     1      36.088  -7.919  32.335  1.00  0.00     0.260 C 
HETATM   29  O5  UNK     1      36.483  -8.470  31.316  1.00  0.00    -0.265 OA
HETATM   30  C23 UNK     1      36.444  -8.357  33.724  1.00  0.00     0.126 C 
ENDBRANCH  27  28
ENDBRANCH   9  27
TORSDOF 7
ENDMDL
MODEL 6
REMARK VINA RESULT:      -8.5      1.625      5.951
REMARK  7 active torsions:
REMARK  status: ('A' for Active; 'I' for Inactive)
REMARK    1  A    between atoms: C21_27  and  O2_2 
REMARK    2  A    between atoms: C8_14  and  O2_2 
REMARK    3  A    between atoms: C10_16  and  O3_3 
REMARK    4  A    between atoms: C22_28  and  O3_3 
REMARK    5  A    between atoms: C1_7  and  C7_13 
REMARK    6  A    between atoms: C5_11  and  C9_15 
REMARK    7  A    between atoms: C14_20  and  C9_15 
ROOT
HETATM    1  O1  UNK     1      18.508   1.365  33.974  1.00  0.00    -0.339 OA
HETATM    2  O4  UNK     1      19.737  -1.008  30.861  1.00  0.00    -0.292 OA
HETATM    3  C1  UNK     1      18.238  -0.044  33.975  1.00  0.00     0.169 C 
HETATM    4  C2  UNK     1      19.319  -0.810  33.216  1.00  0.00     0.121 C 
HETATM    5  C3  UNK     1      18.645   1.881  32.711  1.00  0.00     0.095 A 
HETATM    6  C4  UNK     1      19.038   1.120  31.606  1.00  0.00     0.078 A 
HETATM    7  C5  UNK     1      18.396   3.246  32.560  1.00  0.00     0.014 A 
HETATM    8  C6  UNK     1      19.376  -0.305  31.798  1.00  0.00     0.167 C 
HETATM    9  C8  UNK     1      19.152   1.713  30.346  1.00  0.00     0.098 A 
HETATM   10  C10 UNK     1      18.511   3.840  31.303  1.00  0.00     0.091 A 
HETATM   11  C11 UNK     1      18.883   3.074  30.198  1.00  0.00     0.076 A 
ENDROOT
BRANCH   3  12
HETATM   12  C7  UNK     1      18.145  -0.513  35.413  1.00  0.00    -0.029 A 
HETATM   13  C12 UNK     1      18.832  -1.657  35.818  1.00  0.00     0.010 A 
HETATM   14  C15 UNK     1      18.747  -2.087  37.142  1.00  0.00     0.001 A 
HETATM   15  C18 UNK     1      17.977  -1.373  38.060  1.00  0.00     0.000 A 
HETATM   16  C16 UNK     1      17.290  -0.229  37.654  1.00  0.00     0.001 A 
HETATM   17  C13 UNK     1      17.375   0.202  36.331  1.00  0.00     0.010 A 
ENDBRANCH   3  12
BRANCH   7  18
HETATM   18  C9  UNK     1      17.996   4.078  33.738  1.00  0.00     0.072 C 
BRANCH  18  19
HETATM   19  C14 UNK     1      18.907   5.258  33.956  1.00  0.00    -0.020 C 
HETATM   20  C17 UNK     1      18.567   6.551  34.126  1.00  0.00    -0.091 C 
HETATM   21  C19 UNK     1      17.119   6.966  34.100  1.00  0.00     0.042 C 
HETATM   22  C20 UNK     1      19.531   7.682  34.339  1.00  0.00     0.042 C 
ENDBRANCH  18  19
ENDBRANCH   7  18
BRANCH  10  23
HETATM   23  O3  UNK     1      18.262   5.170  31.134  1.00  0.00    -0.279 OA
BRANCH  23  24
HETATM   24  C22 UNK     1      19.207   5.832  30.334  1.00  0.00     0.260 C 
HETATM   25  O6  UNK     1      18.996   6.318  29.231  1.00  0.00    -0.265 OA
HETATM   26  C24 UNK     1      20.535   5.861  31.028  1.00  0.00     0.126 C 
ENDBRANCH  23  24
ENDBRANCH  10  23
BRANCH   9  27
HETATM   27  O2  UNK     1      19.527   1.017  29.237  1.00  0.00    -0.278 OA
BRANCH  27  28
HETATM   28  C21 UNK     1      18.519   0.897  28.267  1.00  0.00     0.260 C 
HETATM   29  O5  UNK     1      17.702   1.761  27.974  1.00  0.00    -0.265 OA
HETATM   30  C23 UNK     1      18.579  -0.457  27.627  1.00  0.00     0.126 C 
ENDBRANCH  27  28
ENDBRANCH   9  27
TORSDOF 7
ENDMDL
MODEL 7
REMARK VINA RESULT:      -8.4     13.242     16.613
REMARK  7 active torsions:
REMARK  status: ('A' for Active; 'I' for Inactive)
REMARK    1  A    between atoms: C21_27  and  O2_2 
REMARK    2  A    between atoms: C8_14  and  O2_2 
REMARK    3  A    between atoms: C10_16  and  O3_3 
REMARK    4  A    between atoms: C22_28  and  O3_3 
REMARK    5  A    between atoms: C1_7  and  C7_13 
REMARK    6  A    between atoms: C5_11  and  C9_15 
REMARK    7  A    between atoms: C14_20  and  C9_15 
ROOT
HETATM    1  O1  UNK     1      30.211  -7.613  35.340  1.00  0.00    -0.339 OA
HETATM    2  O4  UNK     1      33.775  -5.697  36.018  1.00  0.00    -0.292 OA
HETATM    3  C1  UNK     1      30.817  -7.629  36.641  1.00  0.00     0.169 C 
HETATM    4  C2  UNK     1      31.637  -6.363  36.879  1.00  0.00     0.121 C 
HETATM    5  C3  UNK     1      31.124  -7.451  34.329  1.00  0.00     0.095 A 
HETATM    6  C4  UNK     1      32.363  -6.827  34.501  1.00  0.00     0.078 A 
HETATM    7  C5  UNK     1      30.753  -7.922  33.068  1.00  0.00     0.014 A 
HETATM    8  C6  UNK     1      32.706  -6.263  35.823  1.00  0.00     0.167 C 
HETATM    9  C8  UNK     1      33.245  -6.702  33.426  1.00  0.00     0.098 A 
HETATM   10  C10 UNK     1      31.633  -7.796  31.992  1.00  0.00     0.091 A 
HETATM   11  C11 UNK     1      32.878  -7.192  32.172  1.00  0.00     0.076 A 
ENDROOT
BRANCH   3  12
HETATM   12  C7  UNK     1      29.721  -7.772  37.677  1.00  0.00    -0.029 A 
HETATM   13  C12 UNK     1      29.290  -6.656  38.394  1.00  0.00     0.010 A 
HETATM   14  C15 UNK     1      28.280  -6.789  39.347  1.00  0.00     0.001 A 
HETATM   15  C18 UNK     1      27.701  -8.036  39.582  1.00  0.00     0.000 A 
HETATM   16  C16 UNK     1      28.133  -9.151  38.865  1.00  0.00     0.001 A 
HETATM   17  C13 UNK     1      29.143  -9.020  37.912  1.00  0.00     0.010 A 
ENDBRANCH   3  12
BRANCH   7  18
HETATM   18  C9  UNK     1      29.422  -8.572  32.863  1.00  0.00     0.072 C 
BRANCH  18  19
HETATM   19  C14 UNK     1      28.378  -7.614  32.348  1.00  0.00    -0.020 C 
HETATM   20  C17 UNK     1      27.651  -7.707  31.217  1.00  0.00    -0.091 C 
HETATM   21  C19 UNK     1      27.843  -8.873  30.283  1.00  0.00     0.042 C 
HETATM   22  C20 UNK     1      26.623  -6.711  30.762  1.00  0.00     0.042 C 
ENDBRANCH  18  19
ENDBRANCH   7  18
BRANCH  10  23
HETATM   23  O3  UNK     1      31.293  -8.259  30.756  1.00  0.00    -0.279 OA
BRANCH  23  24
HETATM   24  C22 UNK     1      31.062  -7.247  29.810  1.00  0.00     0.260 C 
HETATM   25  O6  UNK     1      30.675  -6.112  30.055  1.00  0.00    -0.265 OA
HETATM   26  C24 UNK     1      31.358  -7.758  28.432  1.00  0.00     0.126 C 
ENDBRANCH  23  24
ENDBRANCH  10  23
BRANCH   9  27
HETATM   27  O2  UNK     1      34.466  -6.107  33.541  1.00  0.00    -0.278 OA
BRANCH  27  28
HETATM   28  C21 UNK     1      35.532  -6.891  33.070  1.00  0.00     0.260 C 
HETATM   29  O5  UNK     1      36.124  -6.730  32.011  1.00  0.00    -0.265 OA
HETATM   30  C23 UNK     1      35.852  -7.971  34.059  1.00  0.00     0.126 C 
ENDBRANCH  27  28
ENDBRANCH   9  27
TORSDOF 7
ENDMDL
MODEL 8
REMARK VINA RESULT:      -8.4     13.186     17.085
REMARK  7 active torsions:
REMARK  status: ('A' for Active; 'I' for Inactive)
REMARK    1  A    between atoms: C21_27  and  O2_2 
REMARK    2  A    between atoms: C8_14  and  O2_2 
REMARK    3  A    between atoms: C10_16  and  O3_3 
REMARK    4  A    between atoms: C22_28  and  O3_3 
REMARK    5  A    between atoms: C1_7  and  C7_13 
REMARK    6  A    between atoms: C5_11  and  C9_15 
REMARK    7  A    between atoms: C14_20  and  C9_15 
ROOT
HETATM    1  O1  UNK     1      32.875  -7.040  31.984  1.00  0.00    -0.339 OA
HETATM    2  O4  UNK     1      33.084  -9.838  28.991  1.00  0.00    -0.292 OA
HETATM    3  C1  UNK     1      33.719  -8.193  32.115  1.00  0.00     0.169 C 
HETATM    4  C2  UNK     1      34.217  -8.666  30.751  1.00  0.00     0.121 C 
HETATM    5  C3  UNK     1      31.810  -7.252  31.147  1.00  0.00     0.095 A 
HETATM    6  C4  UNK     1      31.812  -8.204  30.123  1.00  0.00     0.078 A 
HETATM    7  C5  UNK     1      30.692  -6.438  31.336  1.00  0.00     0.014 A 
HETATM    8  C6  UNK     1      33.032  -9.001  29.884  1.00  0.00     0.167 C 
HETATM    9  C8  UNK     1      30.687  -8.368  29.311  1.00  0.00     0.098 A 
HETATM   10  C10 UNK     1      29.568  -6.600  30.524  1.00  0.00     0.091 A 
HETATM   11  C11 UNK     1      29.564  -7.565  29.517  1.00  0.00     0.076 A 
ENDROOT
BRANCH   3  12
HETATM   12  C7  UNK     1      34.877  -7.837  33.025  1.00  0.00    -0.029 A 
HETATM   13  C12 UNK     1      34.748  -6.794  33.942  1.00  0.00     0.010 A 
HETATM   14  C15 UNK     1      35.814  -6.468  34.780  1.00  0.00     0.001 A 
HETATM   15  C18 UNK     1      37.008  -7.185  34.702  1.00  0.00     0.000 A 
HETATM   16  C16 UNK     1      37.136  -8.227  33.785  1.00  0.00     0.001 A 
HETATM   17  C13 UNK     1      36.071  -8.554  32.947  1.00  0.00     0.010 A 
ENDBRANCH   3  12
BRANCH   7  18
HETATM   18  C9  UNK     1      30.684  -5.400  32.412  1.00  0.00     0.072 C 
BRANCH  18  19
HETATM   19  C14 UNK     1      30.622  -5.995  33.796  1.00  0.00    -0.020 C 
HETATM   20  C17 UNK     1      31.294  -5.607  34.898  1.00  0.00    -0.091 C 
HETATM   21  C19 UNK     1      32.258  -4.452  34.834  1.00  0.00     0.042 C 
HETATM   22  C20 UNK     1      31.184  -6.248  36.252  1.00  0.00     0.042 C 
ENDBRANCH  18  19
ENDBRANCH   7  18
BRANCH  10  23
HETATM   23  O3  UNK     1      28.463  -5.821  30.700  1.00  0.00    -0.279 OA
BRANCH  23  24
HETATM   24  C22 UNK     1      27.408  -6.468  31.364  1.00  0.00     0.260 C 
HETATM   25  O6  UNK     1      27.379  -6.757  32.552  1.00  0.00    -0.265 OA
HETATM   26  C24 UNK     1      26.300  -6.763  30.397  1.00  0.00     0.126 C 
ENDBRANCH  23  24
ENDBRANCH  10  23
BRANCH   9  27
HETATM   27  O2  UNK     1      30.635  -9.283  28.303  1.00  0.00    -0.278 OA
BRANCH  27  28
HETATM   28  C21 UNK     1      29.598 -10.222  28.434  1.00  0.00     0.260 C 
HETATM   29  O5  UNK     1      28.513 -10.172  27.869  1.00  0.00    -0.265 OA
HETATM   30  C23 UNK     1      30.008 -11.312  29.379  1.00  0.00     0.126 C 
ENDBRANCH  27  28
ENDBRANCH   9  27
TORSDOF 7
ENDMDL
MODEL 9
REMARK VINA RESULT:      -8.3     14.674     18.201
REMARK  7 active torsions:
REMARK  status: ('A' for Active; 'I' for Inactive)
REMARK    1  A    between atoms: C21_27  and  O2_2 
REMARK    2  A    between atoms: C8_14  and  O2_2 
REMARK    3  A    between atoms: C10_16  and  O3_3 
REMARK    4  A    between atoms: C22_28  and  O3_3 
REMARK    5  A    between atoms: C1_7  and  C7_13 
REMARK    6  A    between atoms: C5_11  and  C9_15 
REMARK    7  A    between atoms: C14_20  and  C9_15 
ROOT
HETATM    1  O1  UNK     1      32.780  -8.525  35.850  1.00  0.00    -0.339 OA
HETATM    2  O4  UNK     1      33.479  -5.159  38.088  1.00  0.00    -0.292 OA
HETATM    3  C1  UNK     1      33.665  -7.500  35.375  1.00  0.00     0.169 C 
HETATM    4  C2  UNK     1      34.340  -6.776  36.539  1.00  0.00     0.121 C 
HETATM    5  C3  UNK     1      31.830  -8.051  36.718  1.00  0.00     0.095 A 
HETATM    6  C4  UNK     1      31.999  -6.899  37.491  1.00  0.00     0.078 A 
HETATM    7  C5  UNK     1      30.655  -8.796  36.831  1.00  0.00     0.014 A 
HETATM    8  C6  UNK     1      33.281  -6.166  37.420  1.00  0.00     0.167 C 
HETATM    9  C8  UNK     1      30.986  -6.471  38.351  1.00  0.00     0.098 A 
HETATM   10  C10 UNK     1      29.641  -8.371  37.691  1.00  0.00     0.091 A 
HETATM   11  C11 UNK     1      29.805  -7.209  38.446  1.00  0.00     0.076 A 
ENDROOT
BRANCH   3  12
HETATM   12  C7  UNK     1      34.690  -8.138  34.461  1.00  0.00    -0.029 A 
HETATM   13  C12 UNK     1      34.362  -9.285  33.740  1.00  0.00     0.010 A 
HETATM   14  C15 UNK     1      35.307  -9.871  32.898  1.00  0.00     0.001 A 
HETATM   15  C18 UNK     1      36.578  -9.310  32.777  1.00  0.00     0.000 A 
HETATM   16  C16 UNK     1      36.905  -8.163  33.499  1.00  0.00     0.001 A 
HETATM   17  C13 UNK     1      35.962  -7.576  34.341  1.00  0.00     0.010 A 
ENDBRANCH   3  12
BRANCH   7  18
HETATM   18  C9  UNK     1      30.469 -10.043  36.026  1.00  0.00     0.072 C 
BRANCH  18  19
HETATM   19  C14 UNK     1      29.798  -9.787  34.701  1.00  0.00    -0.020 C 
HETATM   20  C17 UNK     1      30.081 -10.342  33.506  1.00  0.00    -0.091 C 
HETATM   21  C19 UNK     1      31.196 -11.345  33.378  1.00  0.00     0.042 C 
HETATM   22  C20 UNK     1      29.369 -10.040  32.218  1.00  0.00     0.042 C 
ENDBRANCH  18  19
ENDBRANCH   7  18
BRANCH  10  23
HETATM   23  O3  UNK     1      28.483  -9.080  37.807  1.00  0.00    -0.279 OA
BRANCH  23  24
HETATM   24  C22 UNK     1      28.328  -9.724  39.045  1.00  0.00     0.260 C 
HETATM   25  O6  UNK     1      29.135 -10.485  39.562  1.00  0.00    -0.265 OA
HETATM   26  C24 UNK     1      27.012  -9.348  39.656  1.00  0.00     0.126 C 
ENDBRANCH  23  24
ENDBRANCH  10  23
BRANCH   9  27
HETATM   27  O2  UNK     1      31.097  -5.354  39.123  1.00  0.00    -0.278 OA
BRANCH  27  28
HETATM   28  C21 UNK     1      30.101  -4.393  38.888  1.00  0.00     0.260 C 
HETATM   29  O5  UNK     1      29.187  -4.109  39.652  1.00  0.00    -0.265 OA
HETATM   30  C23 UNK     1      30.311  -3.750  37.550  1.00  0.00     0.126 C 
ENDBRANCH  27  28
ENDBRANCH   9  27
TORSDOF 7
ENDMDL
MODEL 10
REMARK VINA RESULT:      -8.3     13.360     16.503
REMARK  7 active torsions:
REMARK  status: ('A' for Active; 'I' for Inactive)
REMARK    1  A    between atoms: C21_27  and  O2_2 
REMARK    2  A    between atoms: C8_14  and  O2_2 
REMARK    3  A    between atoms: C10_16  and  O3_3 
REMARK    4  A    between atoms: C22_28  and  O3_3 
REMARK    5  A    between atoms: C1_7  and  C7_13 
REMARK    6  A    between atoms: C5_11  and  C9_15 
REMARK    7  A    between atoms: C14_20  and  C9_15 
ROOT
HETATM    1  O1  UNK     1      31.253  -6.239  33.701  1.00  0.00    -0.339 OA
HETATM    2  O4  UNK     1      34.012  -9.186  34.431  1.00  0.00    -0.292 OA
HETATM    3  C1  UNK     1      31.316  -6.884  34.981  1.00  0.00     0.169 C 
HETATM    4  C2  UNK     1      32.738  -7.345  35.294  1.00  0.00     0.121 C 
HETATM    5  C3  UNK     1      31.722  -7.028  32.682  1.00  0.00     0.095 A 
HETATM    6  C4  UNK     1      32.645  -8.061  32.870  1.00  0.00     0.078 A 
HETATM    7  C5  UNK     1      31.253  -6.741  31.399  1.00  0.00     0.014 A 
HETATM    8  C6  UNK     1      33.192  -8.300  34.221  1.00  0.00     0.167 C 
HETATM    9  C8  UNK     1      33.074  -8.829  31.785  1.00  0.00     0.098 A 
HETATM   10  C10 UNK     1      31.682  -7.507  30.314  1.00  0.00     0.091 A 
HETATM   11  C11 UNK     1      32.587  -8.551  30.508  1.00  0.00     0.076 A 
ENDROOT
BRANCH   3  12
HETATM   12  C7  UNK     1      30.814  -5.914  36.031  1.00  0.00    -0.029 A 
HETATM   13  C12 UNK     1      31.475  -4.702  36.233  1.00  0.00     0.010 A 
HETATM   14  C15 UNK     1      31.012  -3.809  37.199  1.00  0.00     0.001 A 
HETATM   15  C18 UNK     1      29.888  -4.127  37.961  1.00  0.00     0.000 A 
HETATM   16  C16 UNK     1      29.228  -5.338  37.759  1.00  0.00     0.001 A 
HETATM   17  C13 UNK     1      29.690  -6.232  36.794  1.00  0.00     0.010 A 
ENDBRANCH   3  12
BRANCH   7  18
HETATM   18  C9  UNK     1      30.282  -5.625  31.180  1.00  0.00     0.072 C 
BRANCH  18  19
HETATM   19  C14 UNK     1      28.945  -6.105  30.676  1.00  0.00    -0.020 C 
HETATM   20  C17 UNK     1      27.834  -6.370  31.391  1.00  0.00    -0.091 C 
HETATM   21  C19 UNK     1      27.836  -6.206  32.888  1.00  0.00     0.042 C 
HETATM   22  C20 UNK     1      26.529  -6.848  30.822  1.00  0.00     0.042 C 
ENDBRANCH  18  19
ENDBRANCH   7  18
BRANCH  10  23
HETATM   23  O3  UNK     1      31.228  -7.248  29.055  1.00  0.00    -0.279 OA
BRANCH  23  24
HETATM   24  C22 UNK     1      31.002  -8.397  28.281  1.00  0.00     0.260 C 
HETATM   25  O6  UNK     1      31.770  -8.861  27.448  1.00  0.00    -0.265 OA
HETATM   26  C24 UNK     1      29.666  -8.987  28.618  1.00  0.00     0.126 C 
ENDBRANCH  23  24
ENDBRANCH  10  23
BRANCH   9  27
HETATM   27  O2  UNK     1      33.968  -9.850  31.914  1.00  0.00    -0.278 OA
BRANCH  27  28
HETATM   28  C21 UNK     1      35.142  -9.681  31.163  1.00  0.00     0.260 C 
HETATM   29  O5  UNK     1      35.505 -10.391  30.234  1.00  0.00    -0.265 OA
HETATM   30  C23 UNK     1      35.907  -8.493  31.664  1.00  0.00     0.126 C 
ENDBRANCH  27  28
ENDBRANCH   9  27
TORSDOF 7
ENDMDL
