MODEL 1
REMARK VINA RESULT:      -9.8      0.000      0.000
REMARK  7 active torsions:
REMARK  status: ('A' for Active; 'I' for Inactive)
REMARK    1  A    between atoms: C10_17  and  O2_2 
REMARK    2  A    between atoms: C5_12  and  O2_2 
REMARK    3  A    between atoms: C19_26  and  O3_3 
REMARK    4  A    between atoms: C20_27  and  O3_3 
REMARK    5  A    between atoms: C12_19  and  N1_7 
REMARK       I    between atoms: C15_22  and  N1_7 
REMARK    6  A    between atoms: C10_17  and  C15_22 
REMARK    7  A    between atoms: C13_20  and  C19_26 
ROOT
HETATM    1  O5  UNK     1      17.472   1.420  28.814  1.00  0.00    -0.271 OA
HETATM    2  N1  UNK     1      19.433   1.581  30.102  1.00  0.00    -0.325 N 
HETATM    3  C15 UNK     1      18.331   2.065  29.408  1.00  0.00     0.246 C 
HETATM    4  H11 UNK     1      20.049   2.267  30.534  1.00  0.00     0.169 HD
ENDROOT
BRANCH   3   5
HETATM    5  C10 UNK     1      18.274   3.576  29.438  1.00  0.00     0.278 C 
BRANCH   5   6
HETATM    6  O2  UNK     1      19.447   4.069  30.084  1.00  0.00    -0.342 OA
BRANCH   6   7
HETATM    7  C5  UNK     1      19.272   5.016  31.045  1.00  0.00     0.072 A 
HETATM    8  C6  UNK     1      18.000   5.288  31.536  1.00  0.00     0.075 A 
HETATM    9  C2  UNK     1      17.844   6.263  32.522  1.00  0.00     0.092 A 
HETATM   10  C1  UNK     1      18.924   6.982  33.037  1.00  0.00     0.004 A 
HETATM   11  O1  UNK     1      16.531   6.493  32.980  1.00  0.00    -0.275 OA
HETATM   12  C3  UNK     1      18.667   7.991  34.073  1.00  0.00    -0.043 A 
HETATM   13  C4  UNK     1      20.198   6.693  32.530  1.00  0.00     0.017 A 
HETATM   14  C8  UNK     1      17.409   8.188  34.491  1.00  0.00     0.090 A 
HETATM   15  C9  UNK     1      19.808   8.780  34.648  1.00  0.00     0.049 C 
HETATM   16  C11 UNK     1      16.259   7.439  33.957  1.00  0.00     0.288 A 
HETATM   17  O4  UNK     1      15.121   7.647  34.362  1.00  0.00    -0.260 OA
HETATM   18  C7  UNK     1      20.369   5.718  31.541  1.00  0.00     0.038 A 
ENDBRANCH   6   7
ENDBRANCH   5   6
ENDBRANCH   3   5
BRANCH   2  19
HETATM   19  C12 UNK     1      19.810   0.230  30.288  1.00  0.00     0.035 A 
HETATM   20  C14 UNK     1      19.817  -0.303  31.566  1.00  0.00     0.047 A 
HETATM   21  C13 UNK     1      20.191  -1.634  31.748  1.00  0.00     0.041 A 
HETATM   22  C17 UNK     1      20.552  -2.414  30.649  1.00  0.00     0.018 A 
HETATM   23  C18 UNK     1      20.541  -1.862  29.368  1.00  0.00     0.003 A 
HETATM   24  C16 UNK     1      20.167  -0.531  29.187  1.00  0.00     0.029 A 
BRANCH  21  25
HETATM   25  C19 UNK     1      20.203  -2.212  33.083  1.00  0.00     0.293 C 
HETATM   26  O6  UNK     1      20.847  -3.220  33.403  1.00  0.00    -0.259 OA
BRANCH  25  27
HETATM   27  O3  UNK     1      19.412  -1.503  33.946  1.00  0.00    -0.318 OA
BRANCH  27  28
HETATM   28  C20 UNK     1      19.613  -1.734  35.344  1.00  0.00     0.174 C 
HETATM   29  C21 UNK     1      18.591  -0.936  36.127  1.00  0.00     0.034 C 
ENDBRANCH  27  28
ENDBRANCH  25  27
ENDBRANCH  21  25
ENDBRANCH   2  19
TORSDOF 7
ENDMDL
MODEL 2
REMARK VINA RESULT:      -9.5      4.520     11.077
REMARK  7 active torsions:
REMARK  status: ('A' for Active; 'I' for Inactive)
REMARK    1  A    between atoms: C10_17  and  O2_2 
REMARK    2  A    between atoms: C5_12  and  O2_2 
REMARK    3  A    between atoms: C19_26  and  O3_3 
REMARK    4  A    between atoms: C20_27  and  O3_3 
REMARK    5  A    between atoms: C12_19  and  N1_7 
REMARK       I    between atoms: C15_22  and  N1_7 
REMARK    6  A    between atoms: C10_17  and  C15_22 
REMARK    7  A    between atoms: C13_20  and  C19_26 
ROOT
HETATM    1  O5  UNK     1      21.678  -2.166  34.218  1.00  0.00    -0.271 OA
HETATM    2  N1  UNK     1      19.499  -1.866  33.388  1.00  0.00    -0.325 N 
HETATM    3  C15 UNK     1      20.458  -2.183  34.341  1.00  0.00     0.246 C 
HETATM    4  H11 UNK     1      18.522  -1.941  33.666  1.00  0.00     0.169 HD
ENDROOT
BRANCH   3   5
HETATM    5  C10 UNK     1      19.824  -2.594  35.653  1.00  0.00     0.278 C 
BRANCH   5   6
HETATM    6  O2  UNK     1      20.828  -3.167  36.489  1.00  0.00    -0.342 OA
BRANCH   6   7
HETATM    7  C5  UNK     1      20.604  -4.428  36.950  1.00  0.00     0.072 A 
HETATM    8  C6  UNK     1      21.486  -5.009  37.855  1.00  0.00     0.075 A 
HETATM    9  C2  UNK     1      21.236  -6.302  38.315  1.00  0.00     0.092 A 
HETATM   10  C1  UNK     1      20.128  -7.042  37.897  1.00  0.00     0.004 A 
HETATM   11  O1  UNK     1      22.166  -6.837  39.231  1.00  0.00    -0.275 OA
HETATM   12  C3  UNK     1      19.945  -8.397  38.433  1.00  0.00    -0.043 A 
HETATM   13  C4  UNK     1      19.251  -6.439  36.986  1.00  0.00     0.017 A 
HETATM   14  C8  UNK     1      20.843  -8.879  39.303  1.00  0.00     0.090 A 
HETATM   15  C9  UNK     1      18.763  -9.217  38.004  1.00  0.00     0.049 C 
HETATM   16  C11 UNK     1      22.017  -8.113  39.752  1.00  0.00     0.288 A 
HETATM   17  O4  UNK     1      22.819  -8.586  40.549  1.00  0.00    -0.260 OA
HETATM   18  C7  UNK     1      19.489  -5.142  36.516  1.00  0.00     0.038 A 
ENDBRANCH   6   7
ENDBRANCH   5   6
ENDBRANCH   3   5
BRANCH   2  19
HETATM   19  C12 UNK     1      19.716  -1.443  32.055  1.00  0.00     0.035 A 
HETATM   20  C14 UNK     1      19.151  -0.256  31.620  1.00  0.00     0.047 A 
HETATM   21  C13 UNK     1      19.364   0.160  30.306  1.00  0.00     0.041 A 
HETATM   22  C17 UNK     1      20.138  -0.618  29.444  1.00  0.00     0.018 A 
HETATM   23  C18 UNK     1      20.699  -1.812  29.898  1.00  0.00     0.003 A 
HETATM   24  C16 UNK     1      20.487  -2.227  31.212  1.00  0.00     0.029 A 
BRANCH  21  25
HETATM   25  C19 UNK     1      18.780   1.405  29.831  1.00  0.00     0.293 C 
HETATM   26  O6  UNK     1      18.733   1.747  28.642  1.00  0.00    -0.259 OA
BRANCH  25  27
HETATM   27  O3  UNK     1      18.285   2.155  30.863  1.00  0.00    -0.318 OA
BRANCH  27  28
HETATM   28  C20 UNK     1      18.639   3.542  30.882  1.00  0.00     0.174 C 
HETATM   29  C21 UNK     1      18.167   4.153  32.184  1.00  0.00     0.034 C 
ENDBRANCH  27  28
ENDBRANCH  25  27
ENDBRANCH  21  25
ENDBRANCH   2  19
TORSDOF 7
ENDMDL
MODEL 3
REMARK VINA RESULT:      -9.4      6.312      9.939
REMARK  7 active torsions:
REMARK  status: ('A' for Active; 'I' for Inactive)
REMARK    1  A    between atoms: C10_17  and  O2_2 
REMARK    2  A    between atoms: C5_12  and  O2_2 
REMARK    3  A    between atoms: C19_26  and  O3_3 
REMARK    4  A    between atoms: C20_27  and  O3_3 
REMARK    5  A    between atoms: C12_19  and  N1_7 
REMARK       I    between atoms: C15_22  and  N1_7 
REMARK    6  A    between atoms: C10_17  and  C15_22 
REMARK    7  A    between atoms: C13_20  and  C19_26 
ROOT
HETATM    1  O5  UNK     1      22.534  -6.233  38.137  1.00  0.00    -0.271 OA
HETATM    2  N1  UNK     1      20.332  -6.597  37.395  1.00  0.00    -0.325 N 
HETATM    3  C15 UNK     1      21.427  -5.836  37.786  1.00  0.00     0.246 C 
HETATM    4  H11 UNK     1      19.484  -6.096  37.138  1.00  0.00     0.169 HD
ENDROOT
BRANCH   3   5
HETATM    5  C10 UNK     1      21.117  -4.356  37.749  1.00  0.00     0.278 C 
BRANCH   5   6
HETATM    6  O2  UNK     1      20.622  -4.021  36.453  1.00  0.00    -0.342 OA
BRANCH   6   7
HETATM    7  C5  UNK     1      19.853  -2.903  36.354  1.00  0.00     0.072 A 
HETATM    8  C6  UNK     1      19.832  -2.172  35.171  1.00  0.00     0.075 A 
HETATM    9  C2  UNK     1      19.036  -1.029  35.091  1.00  0.00     0.092 A 
HETATM   10  C1  UNK     1      18.254  -0.588  36.161  1.00  0.00     0.004 A 
HETATM   11  O1  UNK     1      19.056  -0.330  33.867  1.00  0.00    -0.275 OA
HETATM   12  C3  UNK     1      17.446   0.626  35.987  1.00  0.00    -0.043 A 
HETATM   13  C4  UNK     1      18.288  -1.339  37.343  1.00  0.00     0.017 A 
HETATM   14  C8  UNK     1      17.484   1.270  34.813  1.00  0.00     0.090 A 
HETATM   15  C9  UNK     1      16.594   1.125  37.118  1.00  0.00     0.049 C 
HETATM   16  C11 UNK     1      18.304   0.819  33.676  1.00  0.00     0.288 A 
HETATM   17  O4  UNK     1      18.314   1.434  32.616  1.00  0.00    -0.260 OA
HETATM   18  C7  UNK     1      19.082  -2.488  37.438  1.00  0.00     0.038 A 
ENDBRANCH   6   7
ENDBRANCH   5   6
ENDBRANCH   3   5
BRANCH   2  19
HETATM   19  C12 UNK     1      20.250  -8.007  37.307  1.00  0.00     0.035 A 
HETATM   20  C14 UNK     1      21.053  -8.678  36.400  1.00  0.00     0.047 A 
HETATM   21  C13 UNK     1      20.970 -10.068  36.312  1.00  0.00     0.041 A 
HETATM   22  C17 UNK     1      20.084 -10.767  37.133  1.00  0.00     0.018 A 
HETATM   23  C18 UNK     1      19.282 -10.076  38.040  1.00  0.00     0.003 A 
HETATM   24  C16 UNK     1      19.365  -8.687  38.128  1.00  0.00     0.029 A 
BRANCH  21  25
HETATM   25  C19 UNK     1      21.807 -10.789  35.367  1.00  0.00     0.293 C 
HETATM   26  O6  UNK     1      21.798 -10.605  34.142  1.00  0.00    -0.259 OA
BRANCH  25  27
HETATM   27  O3  UNK     1      22.608 -11.702  35.997  1.00  0.00    -0.318 OA
BRANCH  27  28
HETATM   28  C20 UNK     1      24.018 -11.581  35.781  1.00  0.00     0.174 C 
HETATM   29  C21 UNK     1      24.676 -12.915  36.065  1.00  0.00     0.034 C 
ENDBRANCH  27  28
ENDBRANCH  25  27
ENDBRANCH  21  25
ENDBRANCH   2  19
TORSDOF 7
ENDMDL
MODEL 4
REMARK VINA RESULT:      -9.4      4.321     11.063
REMARK  7 active torsions:
REMARK  status: ('A' for Active; 'I' for Inactive)
REMARK    1  A    between atoms: C10_17  and  O2_2 
REMARK    2  A    between atoms: C5_12  and  O2_2 
REMARK    3  A    between atoms: C19_26  and  O3_3 
REMARK    4  A    between atoms: C20_27  and  O3_3 
REMARK    5  A    between atoms: C12_19  and  N1_7 
REMARK       I    between atoms: C15_22  and  N1_7 
REMARK    6  A    between atoms: C10_17  and  C15_22 
REMARK    7  A    between atoms: C13_20  and  C19_26 
ROOT
HETATM    1  O5  UNK     1      21.619  -2.089  34.855  1.00  0.00    -0.271 OA
HETATM    2  N1  UNK     1      19.457  -1.958  33.940  1.00  0.00    -0.325 N 
HETATM    3  C15 UNK     1      20.398  -2.164  34.941  1.00  0.00     0.246 C 
HETATM    4  H11 UNK     1      18.476  -2.067  34.192  1.00  0.00     0.169 HD
ENDROOT
BRANCH   3   5
HETATM    5  C10 UNK     1      19.741  -2.525  36.256  1.00  0.00     0.278 C 
BRANCH   5   6
HETATM    6  O2  UNK     1      19.132  -3.809  36.129  1.00  0.00    -0.342 OA
BRANCH   6   7
HETATM    7  C5  UNK     1      19.892  -4.890  36.453  1.00  0.00     0.072 A 
HETATM    8  C6  UNK     1      19.994  -5.963  35.574  1.00  0.00     0.075 A 
HETATM    9  C2  UNK     1      20.780  -7.060  35.926  1.00  0.00     0.092 A 
HETATM   10  C1  UNK     1      21.472  -7.124  37.137  1.00  0.00     0.004 A 
HETATM   11  O1  UNK     1      20.843  -8.116  34.994  1.00  0.00    -0.275 OA
HETATM   12  C3  UNK     1      22.275  -8.320  37.426  1.00  0.00    -0.043 A 
HETATM   13  C4  UNK     1      21.357  -6.033  38.009  1.00  0.00     0.017 A 
HETATM   14  C8  UNK     1      22.318  -9.308  36.521  1.00  0.00     0.090 A 
HETATM   15  C9  UNK     1      23.031  -8.418  38.719  1.00  0.00     0.049 C 
HETATM   16  C11 UNK     1      21.594  -9.256  35.240  1.00  0.00     0.288 A 
HETATM   17  O4  UNK     1      21.656 -10.179  34.436  1.00  0.00    -0.260 OA
HETATM   18  C7  UNK     1      20.573  -4.926  37.669  1.00  0.00     0.038 A 
ENDBRANCH   6   7
ENDBRANCH   5   6
ENDBRANCH   3   5
BRANCH   2  19
HETATM   19  C12 UNK     1      19.698  -1.607  32.590  1.00  0.00     0.035 A 
HETATM   20  C14 UNK     1      19.228  -0.396  32.110  1.00  0.00     0.047 A 
HETATM   21  C13 UNK     1      19.464  -0.052  30.779  1.00  0.00     0.041 A 
HETATM   22  C17 UNK     1      20.166  -0.924  29.947  1.00  0.00     0.018 A 
HETATM   23  C18 UNK     1      20.632  -2.141  30.446  1.00  0.00     0.003 A 
HETATM   24  C16 UNK     1      20.397  -2.484  31.777  1.00  0.00     0.029 A 
BRANCH  21  25
HETATM   25  C19 UNK     1      18.979   1.216  30.257  1.00  0.00     0.293 C 
HETATM   26  O6  UNK     1      18.912   1.497  29.053  1.00  0.00    -0.259 OA
BRANCH  25  27
HETATM   27  O3  UNK     1      18.605   2.065  31.263  1.00  0.00    -0.318 OA
BRANCH  27  28
HETATM   28  C20 UNK     1      18.497   3.453  30.930  1.00  0.00     0.174 C 
HETATM   29  C21 UNK     1      18.127   4.230  32.175  1.00  0.00     0.034 C 
ENDBRANCH  27  28
ENDBRANCH  25  27
ENDBRANCH  21  25
ENDBRANCH   2  19
TORSDOF 7
ENDMDL
MODEL 5
REMARK VINA RESULT:      -9.3      5.340     12.308
REMARK  7 active torsions:
REMARK  status: ('A' for Active; 'I' for Inactive)
REMARK    1  A    between atoms: C10_17  and  O2_2 
REMARK    2  A    between atoms: C5_12  and  O2_2 
REMARK    3  A    between atoms: C19_26  and  O3_3 
REMARK    4  A    between atoms: C20_27  and  O3_3 
REMARK    5  A    between atoms: C12_19  and  N1_7 
REMARK       I    between atoms: C15_22  and  N1_7 
REMARK    6  A    between atoms: C10_17  and  C15_22 
REMARK    7  A    between atoms: C13_20  and  C19_26 
ROOT
HETATM    1  O5  UNK     1      21.125  -2.105  35.610  1.00  0.00    -0.271 OA
HETATM    2  N1  UNK     1      19.060  -1.927  36.719  1.00  0.00    -0.325 N 
HETATM    3  C15 UNK     1      20.254  -2.537  36.358  1.00  0.00     0.246 C 
HETATM    4  H11 UNK     1      18.448  -2.437  37.353  1.00  0.00     0.169 HD
ENDROOT
BRANCH   3   5
HETATM    5  C10 UNK     1      20.405  -3.894  37.010  1.00  0.00     0.278 C 
BRANCH   5   6
HETATM    6  O2  UNK     1      19.390  -4.762  36.508  1.00  0.00    -0.342 OA
BRANCH   6   7
HETATM    7  C5  UNK     1      19.555  -6.096  36.719  1.00  0.00     0.072 A 
HETATM    8  C6  UNK     1      20.393  -6.836  35.892  1.00  0.00     0.075 A 
HETATM    9  C2  UNK     1      20.548  -8.203  36.128  1.00  0.00     0.092 A 
HETATM   10  C1  UNK     1      19.889  -8.860  37.168  1.00  0.00     0.004 A 
HETATM   11  O1  UNK     1      21.411  -8.899  35.257  1.00  0.00    -0.275 OA
HETATM   12  C3  UNK     1      20.111 -10.302  37.341  1.00  0.00    -0.043 A 
HETATM   13  C4  UNK     1      19.049  -8.097  37.990  1.00  0.00     0.017 A 
HETATM   14  C8  UNK     1      20.937 -10.938  36.499  1.00  0.00     0.090 A 
HETATM   15  C9  UNK     1      19.417 -11.037  38.451  1.00  0.00     0.049 C 
HETATM   16  C11 UNK     1      21.639 -10.259  35.397  1.00  0.00     0.288 A 
HETATM   17  O4  UNK     1      22.387 -10.874  34.646  1.00  0.00    -0.260 OA
HETATM   18  C7  UNK     1      18.884  -6.726  37.766  1.00  0.00     0.038 A 
ENDBRANCH   6   7
ENDBRANCH   5   6
ENDBRANCH   3   5
BRANCH   2  19
HETATM   19  C12 UNK     1      18.580  -0.660  36.307  1.00  0.00     0.035 A 
HETATM   20  C14 UNK     1      18.663  -0.304  34.972  1.00  0.00     0.047 A 
HETATM   21  C13 UNK     1      18.193   0.944  34.568  1.00  0.00     0.041 A 
HETATM   22  C17 UNK     1      17.645   1.821  35.505  1.00  0.00     0.018 A 
HETATM   23  C18 UNK     1      17.569   1.447  36.847  1.00  0.00     0.003 A 
HETATM   24  C16 UNK     1      18.039   0.198  37.251  1.00  0.00     0.029 A 
BRANCH  21  25
HETATM   25  C19 UNK     1      18.271   1.335  33.169  1.00  0.00     0.293 C 
HETATM   26  O6  UNK     1      17.818   2.393  32.711  1.00  0.00    -0.259 OA
BRANCH  25  27
HETATM   27  O3  UNK     1      18.909   0.387  32.416  1.00  0.00    -0.318 OA
BRANCH  27  28
HETATM   28  C20 UNK     1      19.263   0.755  31.078  1.00  0.00     0.174 C 
HETATM   29  C21 UNK     1      20.465  -0.057  30.646  1.00  0.00     0.034 C 
ENDBRANCH  27  28
ENDBRANCH  25  27
ENDBRANCH  21  25
ENDBRANCH   2  19
TORSDOF 7
ENDMDL
MODEL 6
REMARK VINA RESULT:      -9.0      4.702      8.443
REMARK  7 active torsions:
REMARK  status: ('A' for Active; 'I' for Inactive)
REMARK    1  A    between atoms: C10_17  and  O2_2 
REMARK    2  A    between atoms: C5_12  and  O2_2 
REMARK    3  A    between atoms: C19_26  and  O3_3 
REMARK    4  A    between atoms: C20_27  and  O3_3 
REMARK    5  A    between atoms: C12_19  and  N1_7 
REMARK       I    between atoms: C15_22  and  N1_7 
REMARK    6  A    between atoms: C10_17  and  C15_22 
REMARK    7  A    between atoms: C13_20  and  C19_26 
ROOT
HETATM    1  O5  UNK     1      20.468  -3.123  37.922  1.00  0.00    -0.271 OA
HETATM    2  N1  UNK     1      19.790  -4.249  35.972  1.00  0.00    -0.325 N 
HETATM    3  C15 UNK     1      20.163  -3.149  36.734  1.00  0.00     0.246 C 
HETATM    4  H11 UNK     1      19.565  -4.083  34.993  1.00  0.00     0.169 HD
ENDROOT
BRANCH   3   5
HETATM    5  C10 UNK     1      20.157  -1.876  35.915  1.00  0.00     0.278 C 
BRANCH   5   6
HETATM    6  O2  UNK     1      19.070  -1.929  34.991  1.00  0.00    -0.342 OA
BRANCH   6   7
HETATM    7  C5  UNK     1      19.314  -1.500  33.723  1.00  0.00     0.072 A 
HETATM    8  C6  UNK     1      18.745  -0.317  33.264  1.00  0.00     0.075 A 
HETATM    9  C2  UNK     1      19.010   0.105  31.961  1.00  0.00     0.092 A 
HETATM   10  C1  UNK     1      19.828  -0.621  31.093  1.00  0.00     0.004 A 
HETATM   11  O1  UNK     1      18.405   1.312  31.553  1.00  0.00    -0.275 OA
HETATM   12  C3  UNK     1      20.051  -0.102  29.737  1.00  0.00    -0.043 A 
HETATM   13  C4  UNK     1      20.392  -1.810  31.575  1.00  0.00     0.017 A 
HETATM   14  C8  UNK     1      19.464   1.048  29.377  1.00  0.00     0.090 A 
HETATM   15  C9  UNK     1      20.927  -0.859  28.781  1.00  0.00     0.049 C 
HETATM   16  C11 UNK     1      18.598   1.825  30.280  1.00  0.00     0.288 A 
HETATM   17  O4  UNK     1      18.078   2.873  29.915  1.00  0.00    -0.260 OA
HETATM   18  C7  UNK     1      20.136  -2.245  32.880  1.00  0.00     0.038 A 
ENDBRANCH   6   7
ENDBRANCH   5   6
ENDBRANCH   3   5
BRANCH   2  19
HETATM   19  C12 UNK     1      19.683  -5.595  36.396  1.00  0.00     0.035 A 
HETATM   20  C14 UNK     1      20.835  -6.337  36.596  1.00  0.00     0.047 A 
HETATM   21  C13 UNK     1      20.730  -7.663  37.012  1.00  0.00     0.041 A 
HETATM   22  C17 UNK     1      19.472  -8.231  37.222  1.00  0.00     0.018 A 
HETATM   23  C18 UNK     1      18.321  -7.470  37.017  1.00  0.00     0.003 A 
HETATM   24  C16 UNK     1      18.428  -6.143  36.601  1.00  0.00     0.029 A 
BRANCH  21  25
HETATM   25  C19 UNK     1      21.929  -8.458  37.227  1.00  0.00     0.293 C 
HETATM   26  O6  UNK     1      23.054  -7.983  37.437  1.00  0.00    -0.259 OA
BRANCH  25  27
HETATM   27  O3  UNK     1      21.663  -9.798  37.170  1.00  0.00    -0.318 OA
BRANCH  27  28
HETATM   28  C20 UNK     1      22.437 -10.572  36.247  1.00  0.00     0.174 C 
HETATM   29  C21 UNK     1      21.725 -10.602  34.911  1.00  0.00     0.034 C 
ENDBRANCH  27  28
ENDBRANCH  25  27
ENDBRANCH  21  25
ENDBRANCH   2  19
TORSDOF 7
ENDMDL
MODEL 7
REMARK VINA RESULT:      -8.9      5.030     11.879
REMARK  7 active torsions:
REMARK  status: ('A' for Active; 'I' for Inactive)
REMARK    1  A    between atoms: C10_17  and  O2_2 
REMARK    2  A    between atoms: C5_12  and  O2_2 
REMARK    3  A    between atoms: C19_26  and  O3_3 
REMARK    4  A    between atoms: C20_27  and  O3_3 
REMARK    5  A    between atoms: C12_19  and  N1_7 
REMARK       I    between atoms: C15_22  and  N1_7 
REMARK    6  A    between atoms: C10_17  and  C15_22 
REMARK    7  A    between atoms: C13_20  and  C19_26 
ROOT
HETATM    1  O5  UNK     1      21.586  -2.179  36.074  1.00  0.00    -0.271 OA
HETATM    2  N1  UNK     1      19.638  -2.820  34.922  1.00  0.00    -0.325 N 
HETATM    3  C15 UNK     1      20.493  -2.734  36.014  1.00  0.00     0.246 C 
HETATM    4  H11 UNK     1      18.765  -3.328  35.052  1.00  0.00     0.169 HD
ENDROOT
BRANCH   3   5
HETATM    5  C10 UNK     1      19.924  -3.444  37.223  1.00  0.00     0.278 C 
BRANCH   5   6
HETATM    6  O2  UNK     1      20.939  -4.272  37.790  1.00  0.00    -0.342 OA
BRANCH   6   7
HETATM    7  C5  UNK     1      20.747  -5.617  37.728  1.00  0.00     0.072 A 
HETATM    8  C6  UNK     1      21.209  -6.340  36.633  1.00  0.00     0.075 A 
HETATM    9  C2  UNK     1      21.001  -7.719  36.591  1.00  0.00     0.092 A 
HETATM   10  C1  UNK     1      20.342  -8.406  37.612  1.00  0.00     0.004 A 
HETATM   11  O1  UNK     1      21.492  -8.397  35.456  1.00  0.00    -0.275 OA
HETATM   12  C3  UNK     1      20.167  -9.859  37.483  1.00  0.00    -0.043 A 
HETATM   13  C4  UNK     1      19.884  -7.660  38.706  1.00  0.00     0.017 A 
HETATM   14  C8  UNK     1      20.645 -10.477  36.394  1.00  0.00     0.090 A 
HETATM   15  C9  UNK     1      19.463 -10.626  38.564  1.00  0.00     0.049 C 
HETATM   16  C11 UNK     1      21.342  -9.767  35.309  1.00  0.00     0.288 A 
HETATM   17  O4  UNK     1      21.765 -10.366  34.326  1.00  0.00    -0.260 OA
HETATM   18  C7  UNK     1      20.085  -6.277  38.762  1.00  0.00     0.038 A 
ENDBRANCH   6   7
ENDBRANCH   5   6
ENDBRANCH   3   5
BRANCH   2  19
HETATM   19  C12 UNK     1      19.834  -2.279  33.629  1.00  0.00     0.035 A 
HETATM   20  C14 UNK     1      19.184  -1.108  33.278  1.00  0.00     0.047 A 
HETATM   21  C13 UNK     1      19.376  -0.577  32.003  1.00  0.00     0.041 A 
HETATM   22  C17 UNK     1      20.216  -1.224  31.096  1.00  0.00     0.018 A 
HETATM   23  C18 UNK     1      20.864  -2.403  31.466  1.00  0.00     0.003 A 
HETATM   24  C16 UNK     1      20.672  -2.934  32.741  1.00  0.00     0.029 A 
BRANCH  21  25
HETATM   25  C19 UNK     1      18.701   0.653  31.617  1.00  0.00     0.293 C 
HETATM   26  O6  UNK     1      18.399   1.562  32.402  1.00  0.00    -0.259 OA
BRANCH  25  27
HETATM   27  O3  UNK     1      18.440   0.684  30.274  1.00  0.00    -0.318 OA
BRANCH  27  28
HETATM   28  C20 UNK     1      18.868   1.847  29.559  1.00  0.00     0.174 C 
HETATM   29  C21 UNK     1      17.841   2.178  28.496  1.00  0.00     0.034 C 
ENDBRANCH  27  28
ENDBRANCH  25  27
ENDBRANCH  21  25
ENDBRANCH   2  19
TORSDOF 7
ENDMDL
MODEL 8
REMARK VINA RESULT:      -8.9      2.502      4.082
REMARK  7 active torsions:
REMARK  status: ('A' for Active; 'I' for Inactive)
REMARK    1  A    between atoms: C10_17  and  O2_2 
REMARK    2  A    between atoms: C5_12  and  O2_2 
REMARK    3  A    between atoms: C19_26  and  O3_3 
REMARK    4  A    between atoms: C20_27  and  O3_3 
REMARK    5  A    between atoms: C12_19  and  N1_7 
REMARK       I    between atoms: C15_22  and  N1_7 
REMARK    6  A    between atoms: C10_17  and  C15_22 
REMARK    7  A    between atoms: C13_20  and  C19_26 
ROOT
HETATM    1  O5  UNK     1      19.296   5.148  30.753  1.00  0.00    -0.271 OA
HETATM    2  N1  UNK     1      18.066   3.273  31.461  1.00  0.00    -0.325 N 
HETATM    3  C15 UNK     1      18.526   4.583  31.523  1.00  0.00     0.246 C 
HETATM    4  H11 UNK     1      17.428   2.969  32.194  1.00  0.00     0.169 HD
ENDROOT
BRANCH   3   5
HETATM    5  C10 UNK     1      17.959   5.317  32.718  1.00  0.00     0.278 C 
BRANCH   5   6
HETATM    6  O2  UNK     1      16.626   5.726  32.418  1.00  0.00    -0.342 OA
BRANCH   6   7
HETATM    7  C5  UNK     1      16.257   6.975  32.814  1.00  0.00     0.072 A 
HETATM    8  C6  UNK     1      17.224   7.944  33.061  1.00  0.00     0.075 A 
HETATM    9  C2  UNK     1      16.824   9.218  33.466  1.00  0.00     0.092 A 
HETATM   10  C1  UNK     1      15.481   9.559  33.635  1.00  0.00     0.004 A 
HETATM   11  O1  UNK     1      17.849  10.156  33.700  1.00  0.00    -0.275 OA
HETATM   12  C3  UNK     1      15.151  10.924  34.065  1.00  0.00    -0.043 A 
HETATM   13  C4  UNK     1      14.522   8.569  33.382  1.00  0.00     0.017 A 
HETATM   14  C8  UNK     1      16.146  11.796  34.280  1.00  0.00     0.090 A 
HETATM   15  C9  UNK     1      13.716  11.322  34.256  1.00  0.00     0.049 C 
HETATM   16  C11 UNK     1      17.567  11.452  34.106  1.00  0.00     0.288 A 
HETATM   17  O4  UNK     1      18.451  12.276  34.312  1.00  0.00    -0.260 OA
HETATM   18  C7  UNK     1      14.909   7.287  32.975  1.00  0.00     0.038 A 
ENDBRANCH   6   7
ENDBRANCH   5   6
ENDBRANCH   3   5
BRANCH   2  19
HETATM   19  C12 UNK     1      18.379   2.294  30.489  1.00  0.00     0.035 A 
HETATM   20  C14 UNK     1      19.311   1.315  30.788  1.00  0.00     0.047 A 
HETATM   21  C13 UNK     1      19.620   0.351  29.829  1.00  0.00     0.041 A 
HETATM   22  C17 UNK     1      18.994   0.381  28.582  1.00  0.00     0.018 A 
HETATM   23  C18 UNK     1      18.058   1.375  28.296  1.00  0.00     0.003 A 
HETATM   24  C16 UNK     1      17.748   2.338  29.257  1.00  0.00     0.029 A 
BRANCH  21  25
HETATM   25  C19 UNK     1      20.596  -0.686  30.126  1.00  0.00     0.293 C 
HETATM   26  O6  UNK     1      21.132  -1.407  29.273  1.00  0.00    -0.259 OA
BRANCH  25  27
HETATM   27  O3  UNK     1      20.850  -0.770  31.467  1.00  0.00    -0.318 OA
BRANCH  27  28
HETATM   28  C20 UNK     1      20.584  -2.026  32.099  1.00  0.00     0.174 C 
HETATM   29  C21 UNK     1      19.572  -1.816  33.206  1.00  0.00     0.034 C 
ENDBRANCH  27  28
ENDBRANCH  25  27
ENDBRANCH  21  25
ENDBRANCH   2  19
TORSDOF 7
ENDMDL
MODEL 9
REMARK VINA RESULT:      -8.7      4.748      7.772
REMARK  7 active torsions:
REMARK  status: ('A' for Active; 'I' for Inactive)
REMARK    1  A    between atoms: C10_17  and  O2_2 
REMARK    2  A    between atoms: C5_12  and  O2_2 
REMARK    3  A    between atoms: C19_26  and  O3_3 
REMARK    4  A    between atoms: C20_27  and  O3_3 
REMARK    5  A    between atoms: C12_19  and  N1_7 
REMARK       I    between atoms: C15_22  and  N1_7 
REMARK    6  A    between atoms: C10_17  and  C15_22 
REMARK    7  A    between atoms: C13_20  and  C19_26 
ROOT
HETATM    1  O5  UNK     1      20.507  -3.482  34.688  1.00  0.00    -0.271 OA
HETATM    2  N1  UNK     1      19.351  -4.133  36.629  1.00  0.00    -0.325 N 
HETATM    3  C15 UNK     1      19.873  -3.233  35.708  1.00  0.00     0.246 C 
HETATM    4  H11 UNK     1      18.852  -3.745  37.428  1.00  0.00     0.169 HD
ENDROOT
BRANCH   3   5
HETATM    5  C10 UNK     1      19.581  -1.801  36.101  1.00  0.00     0.278 C 
BRANCH   5   6
HETATM    6  O2  UNK     1      18.329  -1.415  35.536  1.00  0.00    -0.342 OA
BRANCH   6   7
HETATM    7  C5  UNK     1      18.344  -0.392  34.639  1.00  0.00     0.072 A 
HETATM    8  C6  UNK     1      18.647  -0.636  33.304  1.00  0.00     0.075 A 
HETATM    9  C2  UNK     1      18.656   0.429  32.402  1.00  0.00     0.092 A 
HETATM   10  C1  UNK     1      18.371   1.739  32.791  1.00  0.00     0.004 A 
HETATM   11  O1  UNK     1      18.971   0.118  31.063  1.00  0.00    -0.275 OA
HETATM   12  C3  UNK     1      18.404   2.797  31.773  1.00  0.00    -0.043 A 
HETATM   13  C4  UNK     1      18.067   1.964  34.140  1.00  0.00     0.017 A 
HETATM   14  C8  UNK     1      18.705   2.474  30.508  1.00  0.00     0.090 A 
HETATM   15  C9  UNK     1      18.101   4.216  32.160  1.00  0.00     0.049 C 
HETATM   16  C11 UNK     1      19.009   1.098  30.082  1.00  0.00     0.288 A 
HETATM   17  O4  UNK     1      19.280   0.838  28.916  1.00  0.00    -0.260 OA
HETATM   18  C7  UNK     1      18.054   0.906  35.057  1.00  0.00     0.038 A 
ENDBRANCH   6   7
ENDBRANCH   5   6
ENDBRANCH   3   5
BRANCH   2  19
HETATM   19  C12 UNK     1      19.426  -5.545  36.592  1.00  0.00     0.035 A 
HETATM   20  C14 UNK     1      20.639  -6.166  36.837  1.00  0.00     0.047 A 
HETATM   21  C13 UNK     1      20.713  -7.558  36.799  1.00  0.00     0.041 A 
HETATM   22  C17 UNK     1      19.573  -8.311  36.516  1.00  0.00     0.018 A 
HETATM   23  C18 UNK     1      18.358  -7.670  36.272  1.00  0.00     0.003 A 
HETATM   24  C16 UNK     1      18.285  -6.277  36.310  1.00  0.00     0.029 A 
BRANCH  21  25
HETATM   25  C19 UNK     1      21.979  -8.228  37.055  1.00  0.00     0.293 C 
HETATM   26  O6  UNK     1      22.547  -8.254  38.155  1.00  0.00    -0.259 OA
BRANCH  25  27
HETATM   27  O3  UNK     1      22.468  -8.829  35.927  1.00  0.00    -0.318 OA
BRANCH  27  28
HETATM   28  C20 UNK     1      22.817 -10.214  36.032  1.00  0.00     0.174 C 
HETATM   29  C21 UNK     1      21.706 -11.048  35.430  1.00  0.00     0.034 C 
ENDBRANCH  27  28
ENDBRANCH  25  27
ENDBRANCH  21  25
ENDBRANCH   2  19
TORSDOF 7
ENDMDL
MODEL 10
REMARK VINA RESULT:      -8.7     22.432     24.614
REMARK  7 active torsions:
REMARK  status: ('A' for Active; 'I' for Inactive)
REMARK    1  A    between atoms: C10_17  and  O2_2 
REMARK    2  A    between atoms: C5_12  and  O2_2 
REMARK    3  A    between atoms: C19_26  and  O3_3 
REMARK    4  A    between atoms: C20_27  and  O3_3 
REMARK    5  A    between atoms: C12_19  and  N1_7 
REMARK       I    between atoms: C15_22  and  N1_7 
REMARK    6  A    between atoms: C10_17  and  C15_22 
REMARK    7  A    between atoms: C13_20  and  C19_26 
ROOT
HETATM    1  O5  UNK     1      12.296   5.817  10.314  1.00  0.00    -0.271 OA
HETATM    2  N1  UNK     1      12.815   5.592   8.031  1.00  0.00    -0.325 N 
HETATM    3  C15 UNK     1      13.074   5.574   9.396  1.00  0.00     0.246 C 
HETATM    4  H11 UNK     1      13.587   5.365   7.407  1.00  0.00     0.169 HD
ENDROOT
BRANCH   3   5
HETATM    5  C10 UNK     1      14.513   5.206   9.685  1.00  0.00     0.278 C 
BRANCH   5   6
HETATM    6  O2  UNK     1      14.929   5.876  10.874  1.00  0.00    -0.342 OA
BRANCH   6   7
HETATM    7  C5  UNK     1      15.469   7.116  10.730  1.00  0.00     0.072 A 
HETATM    8  C6  UNK     1      14.813   8.229  11.247  1.00  0.00     0.075 A 
HETATM    9  C2  UNK     1      15.385   9.491  11.088  1.00  0.00     0.092 A 
HETATM   10  C1  UNK     1      16.598   9.683  10.424  1.00  0.00     0.004 A 
HETATM   11  O1  UNK     1      14.674  10.579  11.634  1.00  0.00    -0.275 OA
HETATM   12  C3  UNK     1      17.125  11.048  10.303  1.00  0.00    -0.043 A 
HETATM   13  C4  UNK     1      17.243   8.550   9.910  1.00  0.00     0.017 A 
HETATM   14  C8  UNK     1      16.429  12.063  10.832  1.00  0.00     0.090 A 
HETATM   15  C9  UNK     1      18.428  11.286   9.595  1.00  0.00     0.049 C 
HETATM   16  C11 UNK     1      15.148  11.878  11.535  1.00  0.00     0.288 A 
HETATM   17  O4  UNK     1      14.538  12.831  12.006  1.00  0.00    -0.260 OA
HETATM   18  C7  UNK     1      16.681   7.277  10.062  1.00  0.00     0.038 A 
ENDBRANCH   6   7
ENDBRANCH   5   6
ENDBRANCH   3   5
BRANCH   2  19
HETATM   19  C12 UNK     1      11.589   5.891   7.390  1.00  0.00     0.035 A 
HETATM   20  C14 UNK     1      10.399   5.664   8.061  1.00  0.00     0.047 A 
HETATM   21  C13 UNK     1       9.192   5.956   7.428  1.00  0.00     0.041 A 
HETATM   22  C17 UNK     1       9.190   6.472   6.132  1.00  0.00     0.018 A 
HETATM   23  C18 UNK     1      10.397   6.694   5.469  1.00  0.00     0.003 A 
HETATM   24  C16 UNK     1      11.605   6.402   6.103  1.00  0.00     0.029 A 
BRANCH  21  25
HETATM   25  C19 UNK     1       7.932   5.726   8.119  1.00  0.00     0.293 C 
HETATM   26  O6  UNK     1       7.464   4.606   8.364  1.00  0.00    -0.259 OA
BRANCH  25  27
HETATM   27  O3  UNK     1       7.324   6.901   8.465  1.00  0.00    -0.318 OA
BRANCH  27  28
HETATM   28  C20 UNK     1       7.432   7.306   9.834  1.00  0.00     0.174 C 
HETATM   29  C21 UNK     1       8.402   8.465   9.930  1.00  0.00     0.034 C 
ENDBRANCH  27  28
ENDBRANCH  25  27
ENDBRANCH  21  25
ENDBRANCH   2  19
TORSDOF 7
ENDMDL
