MODEL 1
REMARK VINA RESULT:      -7.5      0.000      0.000
REMARK  3 active torsions:
REMARK  status: ('A' for Active; 'I' for Inactive)
REMARK    1  A    between atoms: C10_17  and  O2_4 
REMARK    2  A    between atoms: C3_10  and  O2_4 
REMARK       I    between atoms: C11_18  and  N1_7 
REMARK    3  A    between atoms: C11_18  and  C6_13 
ROOT
HETATM    1 Cl1  UNK     1      18.514   5.904  33.413  1.00  0.00    -0.082 Cl
HETATM    2 Cl2  UNK     1      18.837   6.078  30.257  1.00  0.00    -0.082 Cl
HETATM    3  O1  UNK     1      18.234   0.778  32.795  1.00  0.00    -0.271 OA
HETATM    4  O3  UNK     1      17.966  -0.535  34.644  1.00  0.00    -0.259 OA
HETATM    5  C1  UNK     1      18.370   3.193  33.046  1.00  0.00     0.025 A 
HETATM    6  C2  UNK     1      18.374   2.063  32.234  1.00  0.00     0.124 A 
HETATM    7  C3  UNK     1      18.516   2.154  30.851  1.00  0.00     0.105 A 
HETATM    8  C4  UNK     1      18.218   3.026  34.483  1.00  0.00     0.039 A 
HETATM    9  C5  UNK     1      18.513   4.450  32.452  1.00  0.00     0.069 A 
HETATM   10  C6  UNK     1      18.085   1.804  35.010  1.00  0.00     0.108 A 
HETATM   11  C7  UNK     1      18.657   3.411  30.267  1.00  0.00     0.065 A 
HETATM   12  C8  UNK     1      18.656   4.556  31.066  1.00  0.00     0.059 A 
HETATM   13  C9  UNK     1      18.087   0.588  34.166  1.00  0.00     0.304 A 
ENDROOT
BRANCH  10  14
HETATM   14  C11 UNK     1      17.937   1.735  36.469  1.00  0.00     0.255 C 
HETATM   15  O4  UNK     1      18.832   2.101  37.225  1.00  0.00    -0.268 OA
HETATM   16  N1  UNK     1      16.724   1.228  36.869  1.00  0.00    -0.366 N 
HETATM   17  H8  UNK     1      16.501   1.129  37.854  1.00  0.00     0.159 HD
HETATM   18  H9  UNK     1      16.009   0.934  36.211  1.00  0.00     0.159 HD
ENDBRANCH  10  14
BRANCH   7  19
HETATM   19  O2  UNK     1      18.519   1.041  30.070  1.00  0.00    -0.349 OA
BRANCH  19  20
HETATM   20  C10 UNK     1      19.732   0.731  29.384  1.00  0.00     0.171 C 
HETATM   21  C12 UNK     1      20.545  -0.227  30.229  1.00  0.00     0.034 C 
ENDBRANCH  19  20
ENDBRANCH   7  19
TORSDOF 3
ENDMDL
MODEL 2
REMARK VINA RESULT:      -7.2      2.536      5.120
REMARK  3 active torsions:
REMARK  status: ('A' for Active; 'I' for Inactive)
REMARK    1  A    between atoms: C10_17  and  O2_4 
REMARK    2  A    between atoms: C3_10  and  O2_4 
REMARK       I    between atoms: C11_18  and  N1_7 
REMARK    3  A    between atoms: C11_18  and  C6_13 
ROOT
HETATM    1 Cl1  UNK     1      18.782   4.725  29.871  1.00  0.00    -0.082 Cl
HETATM    2 Cl2  UNK     1      17.889   6.082  32.601  1.00  0.00    -0.082 Cl
HETATM    3  O1  UNK     1      18.861   0.258  32.472  1.00  0.00    -0.271 OA
HETATM    4  O3  UNK     1      19.443  -1.649  31.357  1.00  0.00    -0.259 OA
HETATM    5  C1  UNK     1      18.813   2.378  31.282  1.00  0.00     0.025 A 
HETATM    6  C2  UNK     1      18.641   1.649  32.456  1.00  0.00     0.124 A 
HETATM    7  C3  UNK     1      18.249   2.257  33.646  1.00  0.00     0.105 A 
HETATM    8  C4  UNK     1      19.223   1.679  30.074  1.00  0.00     0.039 A 
HETATM    9  C5  UNK     1      18.584   3.756  31.305  1.00  0.00     0.069 A 
HETATM   10  C6  UNK     1      19.431   0.358  30.096  1.00  0.00     0.108 A 
HETATM   11  C7  UNK     1      18.024   3.632  33.660  1.00  0.00     0.065 A 
HETATM   12  C8  UNK     1      18.190   4.380  32.493  1.00  0.00     0.059 A 
HETATM   13  C9  UNK     1      19.254  -0.437  31.332  1.00  0.00     0.304 A 
ENDROOT
BRANCH  10  14
HETATM   14  C11 UNK     1      19.843  -0.259  28.830  1.00  0.00     0.255 C 
HETATM   15  O4  UNK     1      19.155  -0.169  27.816  1.00  0.00    -0.268 OA
HETATM   16  N1  UNK     1      21.042  -0.925  28.913  1.00  0.00    -0.366 N 
HETATM   17  H8  UNK     1      21.434  -1.394  28.104  1.00  0.00     0.159 HD
HETATM   18  H9  UNK     1      21.580  -0.977  29.772  1.00  0.00     0.159 HD
ENDBRANCH  10  14
BRANCH   7  19
HETATM   19  O2  UNK     1      18.085   1.533  34.785  1.00  0.00    -0.349 OA
BRANCH  19  20
HETATM   20  C10 UNK     1      18.718   2.026  35.966  1.00  0.00     0.171 C 
HETATM   21  C12 UNK     1      17.884   1.640  37.169  1.00  0.00     0.034 C 
ENDBRANCH  19  20
ENDBRANCH   7  19
TORSDOF 3
ENDMDL
MODEL 3
REMARK VINA RESULT:      -7.1      3.201      4.719
REMARK  3 active torsions:
REMARK  status: ('A' for Active; 'I' for Inactive)
REMARK    1  A    between atoms: C10_17  and  O2_4 
REMARK    2  A    between atoms: C3_10  and  O2_4 
REMARK       I    between atoms: C11_18  and  N1_7 
REMARK    3  A    between atoms: C11_18  and  C6_13 
ROOT
HETATM    1 Cl1  UNK     1      18.146   1.842  37.233  1.00  0.00    -0.082 Cl
HETATM    2 Cl2  UNK     1      18.374  -1.327  37.249  1.00  0.00    -0.082 Cl
HETATM    3  O1  UNK     1      18.410   1.529  32.080  1.00  0.00    -0.271 OA
HETATM    4  O3  UNK     1      18.328   3.459  30.860  1.00  0.00    -0.259 OA
HETATM    5  C1  UNK     1      18.289   1.636  34.506  1.00  0.00     0.025 A 
HETATM    6  C2  UNK     1      18.398   0.891  33.335  1.00  0.00     0.124 A 
HETATM    7  C3  UNK     1      18.497  -0.498  33.357  1.00  0.00     0.105 A 
HETATM    8  C4  UNK     1      18.189   3.084  34.411  1.00  0.00     0.039 A 
HETATM    9  C5  UNK     1      18.279   0.967  35.732  1.00  0.00     0.069 A 
HETATM   10  C6  UNK     1      18.202   3.685  33.215  1.00  0.00     0.108 A 
HETATM   11  C7  UNK     1      18.487  -1.157  34.584  1.00  0.00     0.065 A 
HETATM   12  C8  UNK     1      18.378  -0.427  35.769  1.00  0.00     0.059 A 
HETATM   13  C9  UNK     1      18.316   2.913  31.958  1.00  0.00     0.304 A 
ENDROOT
BRANCH  10  14
HETATM   14  C11 UNK     1      18.096   5.149  33.219  1.00  0.00     0.255 C 
HETATM   15  O4  UNK     1      18.902   5.851  33.822  1.00  0.00    -0.268 OA
HETATM   16  N1  UNK     1      17.026   5.619  32.496  1.00  0.00    -0.366 N 
HETATM   17  H8  UNK     1      16.844   6.615  32.423  1.00  0.00     0.159 HD
HETATM   18  H9  UNK     1      16.380   5.004  32.012  1.00  0.00     0.159 HD
ENDBRANCH  10  14
BRANCH   7  19
HETATM   19  O2  UNK     1      18.602  -1.213  32.205  1.00  0.00    -0.349 OA
BRANCH  19  20
HETATM   20  C10 UNK     1      19.884  -1.759  31.894  1.00  0.00     0.171 C 
HETATM   21  C12 UNK     1      20.521  -0.930  30.799  1.00  0.00     0.034 C 
ENDBRANCH  19  20
ENDBRANCH   7  19
TORSDOF 3
ENDMDL
MODEL 4
REMARK VINA RESULT:      -7.1      4.907      5.871
REMARK  3 active torsions:
REMARK  status: ('A' for Active; 'I' for Inactive)
REMARK    1  A    between atoms: C10_17  and  O2_4 
REMARK    2  A    between atoms: C3_10  and  O2_4 
REMARK       I    between atoms: C11_18  and  N1_7 
REMARK    3  A    between atoms: C11_18  and  C6_13 
ROOT
HETATM    1 Cl1  UNK     1      19.470   8.912  34.074  1.00  0.00    -0.082 Cl
HETATM    2 Cl2  UNK     1      21.424   6.623  33.058  1.00  0.00    -0.082 Cl
HETATM    3  O1  UNK     1      15.622   6.080  32.100  1.00  0.00    -0.271 OA
HETATM    4  O3  UNK     1      13.483   6.861  32.280  1.00  0.00    -0.259 OA
HETATM    5  C1  UNK     1      17.458   7.384  33.016  1.00  0.00     0.025 A 
HETATM    6  C2  UNK     1      16.997   6.252  32.350  1.00  0.00     0.124 A 
HETATM    7  C3  UNK     1      17.866   5.256  31.910  1.00  0.00     0.105 A 
HETATM    8  C4  UNK     1      16.496   8.386  33.450  1.00  0.00     0.039 A 
HETATM    9  C5  UNK     1      18.829   7.519  33.247  1.00  0.00     0.069 A 
HETATM   10  C6  UNK     1      15.191   8.216  33.209  1.00  0.00     0.108 A 
HETATM   11  C7  UNK     1      19.232   5.399  32.144  1.00  0.00     0.065 A 
HETATM   12  C8  UNK     1      19.713   6.527  32.811  1.00  0.00     0.059 A 
HETATM   13  C9  UNK     1      14.678   7.022  32.503  1.00  0.00     0.304 A 
ENDROOT
BRANCH  10  14
HETATM   14  C11 UNK     1      14.297   9.280  33.683  1.00  0.00     0.255 C 
HETATM   15  O4  UNK     1      14.380   9.732  34.821  1.00  0.00    -0.268 OA
HETATM   16  N1  UNK     1      13.390   9.690  32.736  1.00  0.00    -0.366 N 
HETATM   17  H8  UNK     1      12.716  10.421  32.942  1.00  0.00     0.159 HD
HETATM   18  H9  UNK     1      13.352   9.290  31.804  1.00  0.00     0.159 HD
ENDBRANCH  10  14
BRANCH   7  19
HETATM   19  O2  UNK     1      17.401   4.155  31.261  1.00  0.00    -0.349 OA
BRANCH  19  20
HETATM   20  C10 UNK     1      18.293   3.048  31.139  1.00  0.00     0.171 C 
HETATM   21  C12 UNK     1      18.341   2.611  29.689  1.00  0.00     0.034 C 
ENDBRANCH  19  20
ENDBRANCH   7  19
TORSDOF 3
ENDMDL
MODEL 5
REMARK VINA RESULT:      -7.1      3.573      4.741
REMARK  3 active torsions:
REMARK  status: ('A' for Active; 'I' for Inactive)
REMARK    1  A    between atoms: C10_17  and  O2_4 
REMARK    2  A    between atoms: C3_10  and  O2_4 
REMARK       I    between atoms: C11_18  and  N1_7 
REMARK    3  A    between atoms: C11_18  and  C6_13 
ROOT
HETATM    1 Cl1  UNK     1      20.820  -2.870  30.859  1.00  0.00    -0.082 Cl
HETATM    2 Cl2  UNK     1      20.202  -0.667  28.656  1.00  0.00    -0.082 Cl
HETATM    3  O1  UNK     1      18.551   0.315  34.240  1.00  0.00    -0.271 OA
HETATM    4  O3  UNK     1      18.408  -0.330  36.427  1.00  0.00    -0.259 OA
HETATM    5  C1  UNK     1      19.612  -1.156  32.621  1.00  0.00     0.025 A 
HETATM    6  C2  UNK     1      18.963   0.038  32.923  1.00  0.00     0.124 A 
HETATM    7  C3  UNK     1      18.698   0.995  31.946  1.00  0.00     0.105 A 
HETATM    8  C4  UNK     1      19.856  -2.113  33.689  1.00  0.00     0.039 A 
HETATM    9  C5  UNK     1      20.004  -1.396  31.302  1.00  0.00     0.069 A 
HETATM   10  C6  UNK     1      19.462  -1.844  34.939  1.00  0.00     0.108 A 
HETATM   11  C7  UNK     1      19.094   0.749  30.633  1.00  0.00     0.065 A 
HETATM   12  C8  UNK     1      19.745  -0.444  30.311  1.00  0.00     0.059 A 
HETATM   13  C9  UNK     1      18.772  -0.581  35.283  1.00  0.00     0.304 A 
ENDROOT
BRANCH  10  14
HETATM   14  C11 UNK     1      19.752  -2.869  35.950  1.00  0.00     0.255 C 
HETATM   15  O4  UNK     1      20.898  -3.251  36.168  1.00  0.00    -0.268 OA
HETATM   16  N1  UNK     1      18.630  -3.330  36.594  1.00  0.00    -0.366 N 
HETATM   17  H8  UNK     1      18.699  -4.042  37.315  1.00  0.00     0.159 HD
HETATM   18  H9  UNK     1      17.698  -2.989  36.384  1.00  0.00     0.159 HD
ENDBRANCH  10  14
BRANCH   7  19
HETATM   19  O2  UNK     1      18.064   2.158  32.255  1.00  0.00    -0.349 OA
BRANCH  19  20
HETATM   20  C10 UNK     1      18.285   3.269  31.387  1.00  0.00     0.171 C 
HETATM   21  C12 UNK     1      18.146   4.550  32.183  1.00  0.00     0.034 C 
ENDBRANCH  19  20
ENDBRANCH   7  19
TORSDOF 3
ENDMDL
MODEL 6
REMARK VINA RESULT:      -7.1      3.875      6.175
REMARK  3 active torsions:
REMARK  status: ('A' for Active; 'I' for Inactive)
REMARK    1  A    between atoms: C10_17  and  O2_4 
REMARK    2  A    between atoms: C3_10  and  O2_4 
REMARK       I    between atoms: C11_18  and  N1_7 
REMARK    3  A    between atoms: C11_18  and  C6_13 
ROOT
HETATM    1 Cl1  UNK     1      20.738  -1.605  29.536  1.00  0.00    -0.082 Cl
HETATM    2 Cl2  UNK     1      20.942  -3.635  31.971  1.00  0.00    -0.082 Cl
HETATM    3  O1  UNK     1      18.244   1.556  32.780  1.00  0.00    -0.271 OA
HETATM    4  O3  UNK     1      17.530   3.582  32.003  1.00  0.00    -0.259 OA
HETATM    5  C1  UNK     1      19.420   0.042  31.284  1.00  0.00     0.025 A 
HETATM    6  C2  UNK     1      18.895   0.331  32.541  1.00  0.00     0.124 A 
HETATM    7  C3  UNK     1      18.992  -0.569  33.600  1.00  0.00     0.105 A 
HETATM    8  C4  UNK     1      19.285   1.028  30.223  1.00  0.00     0.039 A 
HETATM    9  C5  UNK     1      20.060  -1.183  31.086  1.00  0.00     0.069 A 
HETATM   10  C6  UNK     1      18.665   2.191  30.456  1.00  0.00     0.108 A 
HETATM   11  C7  UNK     1      19.631  -1.790  33.393  1.00  0.00     0.065 A 
HETATM   12  C8  UNK     1      20.165  -2.096  32.139  1.00  0.00     0.059 A 
HETATM   13  C9  UNK     1      18.099   2.518  31.783  1.00  0.00     0.304 A 
ENDROOT
BRANCH  10  14
HETATM   14  C11 UNK     1      18.576   3.121  29.324  1.00  0.00     0.255 C 
HETATM   15  O4  UNK     1      18.047   2.798  28.265  1.00  0.00    -0.268 OA
HETATM   16  N1  UNK     1      19.137   4.349  29.585  1.00  0.00    -0.366 N 
HETATM   17  H8  UNK     1      19.139   5.080  28.880  1.00  0.00     0.159 HD
HETATM   18  H9  UNK     1      19.567   4.577  30.475  1.00  0.00     0.159 HD
ENDBRANCH  10  14
BRANCH   7  19
HETATM   19  O2  UNK     1      18.475  -0.274  34.822  1.00  0.00    -0.349 OA
BRANCH  19  20
HETATM   20  C10 UNK     1      17.289  -0.967  35.210  1.00  0.00     0.171 C 
HETATM   21  C12 UNK     1      16.103  -0.039  35.056  1.00  0.00     0.034 C 
ENDBRANCH  19  20
ENDBRANCH   7  19
TORSDOF 3
ENDMDL
MODEL 7
REMARK VINA RESULT:      -6.9      3.634      5.737
REMARK  3 active torsions:
REMARK  status: ('A' for Active; 'I' for Inactive)
REMARK    1  A    between atoms: C10_17  and  O2_4 
REMARK    2  A    between atoms: C3_10  and  O2_4 
REMARK       I    between atoms: C11_18  and  N1_7 
REMARK    3  A    between atoms: C11_18  and  C6_13 
ROOT
HETATM    1 Cl1  UNK     1      19.744   1.008  29.439  1.00  0.00    -0.082 Cl
HETATM    2 Cl2  UNK     1      19.389  -1.470  31.395  1.00  0.00    -0.082 Cl
HETATM    3  O1  UNK     1      17.934   3.927  33.303  1.00  0.00    -0.271 OA
HETATM    4  O3  UNK     1      17.734   6.178  32.974  1.00  0.00    -0.259 OA
HETATM    5  C1  UNK     1      18.781   2.521  31.509  1.00  0.00     0.025 A 
HETATM    6  C2  UNK     1      18.293   2.659  32.805  1.00  0.00     0.124 A 
HETATM    7  C3  UNK     1      18.142   1.564  33.653  1.00  0.00     0.105 A 
HETATM    8  C4  UNK     1      18.914   3.708  30.678  1.00  0.00     0.039 A 
HETATM    9  C5  UNK     1      19.128   1.248  31.051  1.00  0.00     0.069 A 
HETATM   10  C6  UNK     1      18.571   4.909  31.157  1.00  0.00     0.108 A 
HETATM   11  C7  UNK     1      18.490   0.297  33.187  1.00  0.00     0.065 A 
HETATM   12  C8  UNK     1      18.982   0.139  31.891  1.00  0.00     0.059 A 
HETATM   13  C9  UNK     1      18.050   5.079  32.531  1.00  0.00     0.304 A 
ENDROOT
BRANCH  10  14
HETATM   14  C11 UNK     1      18.739   6.047  30.245  1.00  0.00     0.255 C 
HETATM   15  O4  UNK     1      19.780   6.220  29.616  1.00  0.00    -0.268 OA
HETATM   16  N1  UNK     1      17.636   6.863  30.184  1.00  0.00    -0.366 N 
HETATM   17  H8  UNK     1      17.628   7.685  29.588  1.00  0.00     0.159 HD
HETATM   18  H9  UNK     1      16.793   6.686  30.721  1.00  0.00     0.159 HD
ENDBRANCH  10  14
BRANCH   7  19
HETATM   19  O2  UNK     1      17.664   1.713  34.917  1.00  0.00    -0.349 OA
BRANCH  19  20
HETATM   20  C10 UNK     1      18.607   1.623  35.983  1.00  0.00     0.171 C 
HETATM   21  C12 UNK     1      17.860   1.461  37.290  1.00  0.00     0.034 C 
ENDBRANCH  19  20
ENDBRANCH   7  19
TORSDOF 3
ENDMDL
MODEL 8
REMARK VINA RESULT:      -6.7      5.599      7.548
REMARK  3 active torsions:
REMARK  status: ('A' for Active; 'I' for Inactive)
REMARK    1  A    between atoms: C10_17  and  O2_4 
REMARK    2  A    between atoms: C3_10  and  O2_4 
REMARK       I    between atoms: C11_18  and  N1_7 
REMARK    3  A    between atoms: C11_18  and  C6_13 
ROOT
HETATM    1 Cl1  UNK     1      14.059   7.178  32.031  1.00  0.00    -0.082 Cl
HETATM    2 Cl2  UNK     1      13.548  10.076  33.227  1.00  0.00    -0.082 Cl
HETATM    3  O1  UNK     1      19.041   7.906  33.207  1.00  0.00    -0.271 OA
HETATM    4  O3  UNK     1      20.534   6.244  32.727  1.00  0.00    -0.259 OA
HETATM    5  C1  UNK     1      16.690   7.600  32.668  1.00  0.00     0.025 A 
HETATM    6  C2  UNK     1      17.716   8.382  33.190  1.00  0.00     0.124 A 
HETATM    7  C3  UNK     1      17.478   9.652  33.712  1.00  0.00     0.105 A 
HETATM    8  C4  UNK     1      17.009   6.283  32.140  1.00  0.00     0.039 A 
HETATM    9  C5  UNK     1      15.388   8.107  32.670  1.00  0.00     0.069 A 
HETATM   10  C6  UNK     1      18.270   5.836  32.158  1.00  0.00     0.108 A 
HETATM   11  C7  UNK     1      16.176  10.150  33.709  1.00  0.00     0.065 A 
HETATM   12  C8  UNK     1      15.134   9.379  33.190  1.00  0.00     0.059 A 
HETATM   13  C9  UNK     1      19.376   6.650  32.708  1.00  0.00     0.304 A 
ENDROOT
BRANCH  10  14
HETATM   14  C11 UNK     1      18.495   4.495  31.603  1.00  0.00     0.255 C 
HETATM   15  O4  UNK     1      17.882   3.516  32.017  1.00  0.00    -0.268 OA
HETATM   16  N1  UNK     1      19.439   4.471  30.605  1.00  0.00    -0.366 N 
HETATM   17  H8  UNK     1      19.684   3.603  30.141  1.00  0.00     0.159 HD
HETATM   18  H9  UNK     1      19.925   5.305  30.291  1.00  0.00     0.159 HD
ENDBRANCH  10  14
BRANCH   7  19
HETATM   19  O2  UNK     1      18.490  10.405  34.219  1.00  0.00    -0.349 OA
BRANCH  19  20
HETATM   20  C10 UNK     1      18.565  11.765  33.792  1.00  0.00     0.171 C 
HETATM   21  C12 UNK     1      18.337  12.669  34.984  1.00  0.00     0.034 C 
ENDBRANCH  19  20
ENDBRANCH   7  19
TORSDOF 3
ENDMDL
MODEL 9
REMARK VINA RESULT:      -6.6      4.358      6.778
REMARK  3 active torsions:
REMARK  status: ('A' for Active; 'I' for Inactive)
REMARK    1  A    between atoms: C10_17  and  O2_4 
REMARK    2  A    between atoms: C3_10  and  O2_4 
REMARK       I    between atoms: C11_18  and  N1_7 
REMARK    3  A    between atoms: C11_18  and  C6_13 
ROOT
HETATM    1 Cl1  UNK     1      21.102  -3.587  32.913  1.00  0.00    -0.082 Cl
HETATM    2 Cl2  UNK     1      20.197  -3.384  35.951  1.00  0.00    -0.082 Cl
HETATM    3  O1  UNK     1      18.413   0.761  32.140  1.00  0.00    -0.271 OA
HETATM    4  O3  UNK     1      18.355   1.653  30.038  1.00  0.00    -0.259 OA
HETATM    5  C1  UNK     1      19.667  -1.284  32.542  1.00  0.00     0.025 A 
HETATM    6  C2  UNK     1      18.862  -0.250  33.012  1.00  0.00     0.124 A 
HETATM    7  C3  UNK     1      18.473  -0.173  34.348  1.00  0.00     0.105 A 
HETATM    8  C4  UNK     1      20.037  -1.302  31.135  1.00  0.00     0.039 A 
HETATM    9  C5  UNK     1      20.094  -2.267  33.438  1.00  0.00     0.069 A 
HETATM   10  C6  UNK     1      19.607  -0.339  30.311  1.00  0.00     0.108 A 
HETATM   11  C7  UNK     1      18.902  -1.159  35.234  1.00  0.00     0.065 A 
HETATM   12  C8  UNK     1      19.711  -2.203  34.781  1.00  0.00     0.059 A 
HETATM   13  C9  UNK     1      18.751   0.768  30.789  1.00  0.00     0.304 A 
ENDROOT
BRANCH  10  14
HETATM   14  C11 UNK     1      20.032  -0.443  28.910  1.00  0.00     0.255 C 
HETATM   15  O4  UNK     1      21.210  -0.598  28.604  1.00  0.00    -0.268 OA
HETATM   16  N1  UNK     1      18.991  -0.348  28.018  1.00  0.00    -0.366 N 
HETATM   17  H8  UNK     1      19.155  -0.404  27.018  1.00  0.00     0.159 HD
HETATM   18  H9  UNK     1      18.028  -0.218  28.312  1.00  0.00     0.159 HD
ENDBRANCH  10  14
BRANCH   7  19
HETATM   19  O2  UNK     1      17.686   0.842  34.793  1.00  0.00    -0.349 OA
BRANCH  19  20
HETATM   20  C10 UNK     1      18.017   1.415  36.058  1.00  0.00     0.171 C 
HETATM   21  C12 UNK     1      19.238   2.296  35.895  1.00  0.00     0.034 C 
ENDBRANCH  19  20
ENDBRANCH   7  19
TORSDOF 3
ENDMDL
MODEL 10
REMARK VINA RESULT:      -6.6      2.319      4.213
REMARK  3 active torsions:
REMARK  status: ('A' for Active; 'I' for Inactive)
REMARK    1  A    between atoms: C10_17  and  O2_4 
REMARK    2  A    between atoms: C3_10  and  O2_4 
REMARK       I    between atoms: C11_18  and  N1_7 
REMARK    3  A    between atoms: C11_18  and  C6_13 
ROOT
HETATM    1 Cl1  UNK     1      18.797   2.603  29.595  1.00  0.00    -0.082 Cl
HETATM    2 Cl2  UNK     1      18.821   5.771  29.375  1.00  0.00    -0.082 Cl
HETATM    3  O1  UNK     1      18.150   3.267  34.682  1.00  0.00    -0.271 OA
HETATM    4  O3  UNK     1      17.983   1.420  36.015  1.00  0.00    -0.259 OA
HETATM    5  C1  UNK     1      18.456   2.994  32.285  1.00  0.00     0.025 A 
HETATM    6  C2  UNK     1      18.313   3.820  33.396  1.00  0.00     0.124 A 
HETATM    7  C3  UNK     1      18.325   5.209  33.285  1.00  0.00     0.105 A 
HETATM    8  C4  UNK     1      18.433   1.552  32.472  1.00  0.00     0.039 A 
HETATM    9  C5  UNK     1      18.614   3.580  31.026  1.00  0.00     0.069 A 
HETATM   10  C6  UNK     1      18.278   1.033  33.696  1.00  0.00     0.108 A 
HETATM   11  C7  UNK     1      18.485   5.784  32.026  1.00  0.00     0.065 A 
HETATM   12  C8  UNK     1      18.628   4.972  30.899  1.00  0.00     0.059 A 
HETATM   13  C9  UNK     1      18.125   1.891  34.891  1.00  0.00     0.304 A 
ENDROOT
BRANCH  10  14
HETATM   14  C11 UNK     1      18.268  -0.432  33.786  1.00  0.00     0.255 C 
HETATM   15  O4  UNK     1      19.292  -1.093  33.639  1.00  0.00    -0.268 OA
HETATM   16  N1  UNK     1      17.023  -0.953  34.044  1.00  0.00    -0.366 N 
HETATM   17  H8  UNK     1      16.885  -1.955  34.129  1.00  0.00     0.159 HD
HETATM   18  H9  UNK     1      16.199  -0.371  34.158  1.00  0.00     0.159 HD
ENDBRANCH  10  14
BRANCH   7  19
HETATM   19  O2  UNK     1      18.185   6.003  34.380  1.00  0.00    -0.349 OA
BRANCH  19  20
HETATM   20  C10 UNK     1      18.120   7.411  34.157  1.00  0.00     0.171 C 
HETATM   21  C12 UNK     1      19.336   8.065  34.780  1.00  0.00     0.034 C 
ENDBRANCH  19  20
ENDBRANCH   7  19
TORSDOF 3
ENDMDL
