MODEL 1
REMARK VINA RESULT:      -8.3      0.000      0.000
REMARK  2 active torsions:
REMARK  status: ('A' for Active; 'I' for Inactive)
REMARK    1  A    between atoms: C9_12  and  O2_2 
REMARK    2  A    between atoms: C2_5  and  C5_8 
ROOT
HETATM    1  O1  UNK     1      17.949   3.326  33.203  1.00  0.00    -0.321 OA
HETATM    2  O3  UNK     1      19.097   4.287  29.408  1.00  0.00    -0.286 OA
HETATM    3  C1  UNK     1      18.417   5.027  31.537  1.00  0.00     0.049 A 
HETATM    4  C2  UNK     1      18.702   2.578  31.018  1.00  0.00     0.048 A 
HETATM    5  C3  UNK     1      18.020   4.639  32.816  1.00  0.00     0.091 A 
HETATM    6  C4  UNK     1      18.773   3.990  30.551  1.00  0.00     0.197 A 
HETATM    7  C6  UNK     1      18.469   6.381  31.197  1.00  0.00     0.021 A 
HETATM    8  C7  UNK     1      17.674   5.604  33.763  1.00  0.00     0.075 A 
HETATM    9  C8  UNK     1      18.303   2.370  32.283  1.00  0.00     0.159 A 
HETATM   10  C9  UNK     1      17.727   6.957  33.426  1.00  0.00     0.070 A 
HETATM   11  C10 UNK     1      18.124   7.344  32.147  1.00  0.00     0.038 A 
ENDROOT
BRANCH   4  12
HETATM   12  C5  UNK     1      19.067   1.449  30.148  1.00  0.00    -0.020 A 
HETATM   13  C11 UNK     1      20.101   0.586  30.517  1.00  0.00     0.012 A 
HETATM   14  C13 UNK     1      20.447  -0.485  29.692  1.00  0.00     0.001 A 
HETATM   15  C15 UNK     1      19.761  -0.695  28.497  1.00  0.00     0.000 A 
HETATM   16  C14 UNK     1      18.728   0.166  28.125  1.00  0.00     0.001 A 
HETATM   17  C12 UNK     1      18.382   1.237  28.950  1.00  0.00     0.012 A 
ENDBRANCH   4  12
BRANCH  10  18
HETATM   18  O2  UNK     1      17.392   7.900  34.348  1.00  0.00    -0.356 OA
HETATM   19  C16 UNK     1      17.556   9.266  33.970  1.00  0.00     0.210 C 
ENDBRANCH  10  18
TORSDOF 2
ENDMDL
MODEL 2
REMARK VINA RESULT:      -7.9      0.949      2.311
REMARK  2 active torsions:
REMARK  status: ('A' for Active; 'I' for Inactive)
REMARK    1  A    between atoms: C9_12  and  O2_2 
REMARK    2  A    between atoms: C2_5  and  C5_8 
ROOT
HETATM    1  O1  UNK     1      19.014   6.002  30.389  1.00  0.00    -0.321 OA
HETATM    2  O3  UNK     1      17.839   2.704  32.484  1.00  0.00    -0.286 OA
HETATM    3  C1  UNK     1      18.082   5.044  32.415  1.00  0.00     0.049 A 
HETATM    4  C2  UNK     1      18.710   3.593  30.454  1.00  0.00     0.048 A 
HETATM    5  C3  UNK     1      18.509   6.134  31.657  1.00  0.00     0.091 A 
HETATM    6  C4  UNK     1      18.175   3.689  31.840  1.00  0.00     0.197 A 
HETATM    7  C6  UNK     1      17.577   5.239  33.703  1.00  0.00     0.021 A 
HETATM    8  C7  UNK     1      18.435   7.424  32.183  1.00  0.00     0.075 A 
HETATM    9  C8  UNK     1      19.077   4.738  29.857  1.00  0.00     0.159 A 
HETATM   10  C9  UNK     1      17.930   7.620  33.469  1.00  0.00     0.070 A 
HETATM   11  C10 UNK     1      17.502   6.530  34.227  1.00  0.00     0.038 A 
ENDROOT
BRANCH   4  12
HETATM   12  C5  UNK     1      18.819   2.306  29.749  1.00  0.00    -0.020 A 
HETATM   13  C11 UNK     1      17.948   2.004  28.701  1.00  0.00     0.012 A 
HETATM   14  C13 UNK     1      18.052   0.785  28.032  1.00  0.00     0.001 A 
HETATM   15  C15 UNK     1      19.029  -0.136  28.408  1.00  0.00     0.000 A 
HETATM   16  C14 UNK     1      19.901   0.162  29.455  1.00  0.00     0.001 A 
HETATM   17  C12 UNK     1      19.797   1.382  30.124  1.00  0.00     0.012 A 
ENDBRANCH   4  12
BRANCH  10  18
HETATM   18  O2  UNK     1      17.854   8.878  33.985  1.00  0.00    -0.356 OA
HETATM   19  C16 UNK     1      16.562   9.345  34.370  1.00  0.00     0.210 C 
ENDBRANCH  10  18
TORSDOF 2
ENDMDL
MODEL 3
REMARK VINA RESULT:      -7.7      1.392      7.057
REMARK  2 active torsions:
REMARK  status: ('A' for Active; 'I' for Inactive)
REMARK    1  A    between atoms: C9_12  and  O2_2 
REMARK    2  A    between atoms: C2_5  and  C5_8 
ROOT
HETATM    1  O1  UNK     1      18.796   5.221  29.479  1.00  0.00    -0.321 OA
HETATM    2  O3  UNK     1      18.358   4.362  33.444  1.00  0.00    -0.286 OA
HETATM    3  C1  UNK     1      18.576   3.565  31.239  1.00  0.00     0.049 A 
HETATM    4  C2  UNK     1      18.621   6.029  31.763  1.00  0.00     0.048 A 
HETATM    5  C3  UNK     1      18.715   3.918  29.898  1.00  0.00     0.091 A 
HETATM    6  C4  UNK     1      18.509   4.629  32.258  1.00  0.00     0.197 A 
HETATM    7  C6  UNK     1      18.498   2.220  31.607  1.00  0.00     0.021 A 
HETATM    8  C7  UNK     1      18.776   2.928  28.916  1.00  0.00     0.075 A 
HETATM    9  C8  UNK     1      18.753   6.202  30.439  1.00  0.00     0.159 A 
HETATM   10  C9  UNK     1      18.699   1.584  29.282  1.00  0.00     0.070 A 
HETATM   11  C10 UNK     1      18.561   1.231  30.624  1.00  0.00     0.038 A 
ENDROOT
BRANCH   4  12
HETATM   12  C5  UNK     1      18.607   7.182  32.677  1.00  0.00    -0.020 A 
HETATM   13  C11 UNK     1      19.690   7.416  33.527  1.00  0.00     0.012 A 
HETATM   14  C13 UNK     1      19.678   8.509  34.393  1.00  0.00     0.001 A 
HETATM   15  C15 UNK     1      18.583   9.372  34.411  1.00  0.00     0.000 A 
HETATM   16  C14 UNK     1      17.499   9.141  33.564  1.00  0.00     0.001 A 
HETATM   17  C12 UNK     1      17.511   8.047  32.698  1.00  0.00     0.012 A 
ENDBRANCH   4  12
BRANCH  10  18
HETATM   18  O2  UNK     1      18.760   0.615  28.328  1.00  0.00    -0.356 OA
HETATM   19  C16 UNK     1      19.694  -0.443  28.535  1.00  0.00     0.210 C 
ENDBRANCH  10  18
TORSDOF 2
ENDMDL
MODEL 4
REMARK VINA RESULT:      -7.2      2.985      5.360
REMARK  2 active torsions:
REMARK  status: ('A' for Active; 'I' for Inactive)
REMARK    1  A    between atoms: C9_12  and  O2_2 
REMARK    2  A    between atoms: C2_5  and  C5_8 
ROOT
HETATM    1  O1  UNK     1      17.990   9.235  34.064  1.00  0.00    -0.321 OA
HETATM    2  O3  UNK     1      15.389   7.506  31.438  1.00  0.00    -0.286 OA
HETATM    3  C1  UNK     1      15.830   9.249  32.958  1.00  0.00     0.049 A 
HETATM    4  C2  UNK     1      17.541   7.470  32.456  1.00  0.00     0.048 A 
HETATM    5  C3  UNK     1      16.754   9.790  33.850  1.00  0.00     0.091 A 
HETATM    6  C4  UNK     1      16.184   8.029  32.209  1.00  0.00     0.197 A 
HETATM    7  C6  UNK     1      14.585   9.857  32.782  1.00  0.00     0.021 A 
HETATM    8  C7  UNK     1      16.439  10.941  34.573  1.00  0.00     0.075 A 
HETATM    9  C8  UNK     1      18.316   8.110  33.346  1.00  0.00     0.159 A 
HETATM   10  C9  UNK     1      15.196  11.551  34.397  1.00  0.00     0.070 A 
HETATM   11  C10 UNK     1      14.271  11.010  33.504  1.00  0.00     0.038 A 
ENDROOT
BRANCH   4  12
HETATM   12  C5  UNK     1      18.035   6.279  31.746  1.00  0.00    -0.020 A 
HETATM   13  C11 UNK     1      17.753   5.003  32.238  1.00  0.00     0.012 A 
HETATM   14  C13 UNK     1      18.221   3.874  31.566  1.00  0.00     0.001 A 
HETATM   15  C15 UNK     1      18.970   4.018  30.398  1.00  0.00     0.000 A 
HETATM   16  C14 UNK     1      19.254   5.291  29.905  1.00  0.00     0.001 A 
HETATM   17  C12 UNK     1      18.786   6.421  30.577  1.00  0.00     0.012 A 
ENDBRANCH   4  12
BRANCH  10  18
HETATM   18  O2  UNK     1      14.885  12.675  35.099  1.00  0.00    -0.356 OA
HETATM   19  C16 UNK     1      15.812  13.094  36.099  1.00  0.00     0.210 C 
ENDBRANCH  10  18
TORSDOF 2
ENDMDL
MODEL 5
REMARK VINA RESULT:      -7.2     22.565     24.584
REMARK  2 active torsions:
REMARK  status: ('A' for Active; 'I' for Inactive)
REMARK    1  A    between atoms: C9_12  and  O2_2 
REMARK    2  A    between atoms: C2_5  and  C5_8 
ROOT
HETATM    1  O1  UNK     1      11.295   8.141   9.952  1.00  0.00    -0.321 OA
HETATM    2  O3  UNK     1      13.797   7.420   6.811  1.00  0.00    -0.286 OA
HETATM    3  C1  UNK     1      11.660   7.159   7.763  1.00  0.00     0.049 A 
HETATM    4  C2  UNK     1      13.480   8.447   8.936  1.00  0.00     0.048 A 
HETATM    5  C3  UNK     1      10.853   7.426   8.868  1.00  0.00     0.091 A 
HETATM    6  C4  UNK     1      13.047   7.658   7.749  1.00  0.00     0.197 A 
HETATM    7  C6  UNK     1      11.156   6.424   6.687  1.00  0.00     0.021 A 
HETATM    8  C7  UNK     1       9.539   6.959   8.905  1.00  0.00     0.075 A 
HETATM    9  C8  UNK     1      12.582   8.618   9.918  1.00  0.00     0.159 A 
HETATM   10  C9  UNK     1       9.034   6.225   7.831  1.00  0.00     0.070 A 
HETATM   11  C10 UNK     1       9.841   5.959   6.725  1.00  0.00     0.038 A 
ENDROOT
BRANCH   4  12
HETATM   12  C5  UNK     1      14.825   9.035   9.032  1.00  0.00    -0.020 A 
HETATM   13  C11 UNK     1      15.107  10.248   8.401  1.00  0.00     0.012 A 
HETATM   14  C13 UNK     1      16.382  10.806   8.493  1.00  0.00     0.001 A 
HETATM   15  C15 UNK     1      17.379  10.153   9.217  1.00  0.00     0.000 A 
HETATM   16  C14 UNK     1      17.101   8.940   9.848  1.00  0.00     0.001 A 
HETATM   17  C12 UNK     1      15.826   8.382   9.756  1.00  0.00     0.012 A 
ENDBRANCH   4  12
BRANCH  10  18
HETATM   18  O2  UNK     1       7.752   5.770   7.862  1.00  0.00    -0.356 OA
HETATM   19  C16 UNK     1       7.378   4.955   8.972  1.00  0.00     0.210 C 
ENDBRANCH  10  18
TORSDOF 2
ENDMDL
MODEL 6
REMARK VINA RESULT:      -7.2     12.267     15.356
REMARK  2 active torsions:
REMARK  status: ('A' for Active; 'I' for Inactive)
REMARK    1  A    between atoms: C9_12  and  O2_2 
REMARK    2  A    between atoms: C2_5  and  C5_8 
ROOT
HETATM    1  O1  UNK     1      18.528  -1.239  18.180  1.00  0.00    -0.321 OA
HETATM    2  O3  UNK     1      19.379   1.192  15.016  1.00  0.00    -0.286 OA
HETATM    3  C1  UNK     1      19.044   0.977  17.336  1.00  0.00     0.049 A 
HETATM    4  C2  UNK     1      18.926  -1.012  15.794  1.00  0.00     0.048 A 
HETATM    5  C3  UNK     1      18.740   0.101  18.377  1.00  0.00     0.091 A 
HETATM    6  C4  UNK     1      19.143   0.451  15.962  1.00  0.00     0.197 A 
HETATM    7  C6  UNK     1      19.249   2.334  17.596  1.00  0.00     0.021 A 
HETATM    8  C7  UNK     1      18.637   0.578  19.685  1.00  0.00     0.075 A 
HETATM    9  C8  UNK     1      18.643  -1.720  16.899  1.00  0.00     0.159 A 
HETATM   10  C9  UNK     1      18.841   1.933  19.947  1.00  0.00     0.070 A 
HETATM   11  C10 UNK     1      19.147   2.809  18.905  1.00  0.00     0.038 A 
ENDROOT
BRANCH   4  12
HETATM   12  C5  UNK     1      19.033  -1.671  14.483  1.00  0.00    -0.020 A 
HETATM   13  C11 UNK     1      19.339  -0.923  13.345  1.00  0.00     0.012 A 
HETATM   14  C13 UNK     1      19.441  -1.547  12.102  1.00  0.00     0.001 A 
HETATM   15  C15 UNK     1      19.239  -2.923  11.994  1.00  0.00     0.000 A 
HETATM   16  C14 UNK     1      18.933  -3.674  13.129  1.00  0.00     0.001 A 
HETATM   17  C12 UNK     1      18.830  -3.049  14.372  1.00  0.00     0.012 A 
ENDBRANCH   4  12
BRANCH  10  18
HETATM   18  O2  UNK     1      18.744   2.401  21.221  1.00  0.00    -0.356 OA
HETATM   19  C16 UNK     1      19.896   2.268  22.052  1.00  0.00     0.210 C 
ENDBRANCH  10  18
TORSDOF 2
ENDMDL
MODEL 7
REMARK VINA RESULT:      -7.2      1.637      7.046
REMARK  2 active torsions:
REMARK  status: ('A' for Active; 'I' for Inactive)
REMARK    1  A    between atoms: C9_12  and  O2_2 
REMARK    2  A    between atoms: C2_5  and  C5_8 
ROOT
HETATM    1  O1  UNK     1      18.057   4.088  33.605  1.00  0.00    -0.321 OA
HETATM    2  O3  UNK     1      18.389   6.825  30.598  1.00  0.00    -0.286 OA
HETATM    3  C1  UNK     1      18.424   4.564  31.255  1.00  0.00     0.049 A 
HETATM    4  C2  UNK     1      17.973   6.413  32.906  1.00  0.00     0.048 A 
HETATM    5  C3  UNK     1      18.311   3.676  32.323  1.00  0.00     0.091 A 
HETATM    6  C4  UNK     1      18.268   6.010  31.503  1.00  0.00     0.197 A 
HETATM    7  C6  UNK     1      18.685   4.087  29.968  1.00  0.00     0.021 A 
HETATM    8  C7  UNK     1      18.460   2.304  32.111  1.00  0.00     0.075 A 
HETATM    9  C8  UNK     1      17.893   5.434  33.821  1.00  0.00     0.159 A 
HETATM   10  C9  UNK     1      18.720   1.826  30.827  1.00  0.00     0.070 A 
HETATM   11  C10 UNK     1      18.832   2.715  29.758  1.00  0.00     0.038 A 
ENDROOT
BRANCH   4  12
HETATM   12  C5  UNK     1      17.757   7.818  33.284  1.00  0.00    -0.020 A 
HETATM   13  C11 UNK     1      16.474   8.367  33.236  1.00  0.00     0.012 A 
HETATM   14  C13 UNK     1      16.269   9.700  33.595  1.00  0.00     0.001 A 
HETATM   15  C15 UNK     1      17.345  10.486  34.003  1.00  0.00     0.000 A 
HETATM   16  C14 UNK     1      18.628   9.941  34.051  1.00  0.00     0.001 A 
HETATM   17  C12 UNK     1      18.834   8.608  33.692  1.00  0.00     0.012 A 
ENDBRANCH   4  12
BRANCH  10  18
HETATM   18  O2  UNK     1      18.863   0.489  30.616  1.00  0.00    -0.356 OA
HETATM   19  C16 UNK     1      20.184  -0.044  30.701  1.00  0.00     0.210 C 
ENDBRANCH  10  18
TORSDOF 2
ENDMDL
MODEL 8
REMARK VINA RESULT:      -7.1      4.094      6.356
REMARK  2 active torsions:
REMARK  status: ('A' for Active; 'I' for Inactive)
REMARK    1  A    between atoms: C9_12  and  O2_2 
REMARK    2  A    between atoms: C2_5  and  C5_8 
ROOT
HETATM    1  O1  UNK     1      16.455   8.960  35.302  1.00  0.00    -0.321 OA
HETATM    2  O3  UNK     1      16.007   8.718  31.254  1.00  0.00    -0.286 OA
HETATM    3  C1  UNK     1      15.260   9.621  33.296  1.00  0.00     0.049 A 
HETATM    4  C2  UNK     1      17.247   8.076  33.182  1.00  0.00     0.048 A 
HETATM    5  C3  UNK     1      15.454   9.657  34.676  1.00  0.00     0.091 A 
HETATM    6  C4  UNK     1      16.161   8.801  32.466  1.00  0.00     0.197 A 
HETATM    7  C6  UNK     1      14.222  10.351  32.713  1.00  0.00     0.021 A 
HETATM    8  C7  UNK     1      14.610  10.423  35.481  1.00  0.00     0.075 A 
HETATM    9  C8  UNK     1      17.301   8.216  34.516  1.00  0.00     0.159 A 
HETATM   10  C9  UNK     1      13.573  11.154  34.901  1.00  0.00     0.070 A 
HETATM   11  C10 UNK     1      13.380  11.118  33.520  1.00  0.00     0.038 A 
ENDROOT
BRANCH   4  12
HETATM   12  C5  UNK     1      18.237   7.254  32.470  1.00  0.00    -0.020 A 
HETATM   13  C11 UNK     1      17.928   6.707  31.223  1.00  0.00     0.012 A 
HETATM   14  C13 UNK     1      18.867   5.928  30.547  1.00  0.00     0.001 A 
HETATM   15  C15 UNK     1      20.119   5.694  31.116  1.00  0.00     0.000 A 
HETATM   16  C14 UNK     1      20.430   6.238  32.363  1.00  0.00     0.001 A 
HETATM   17  C12 UNK     1      19.491   7.017  33.038  1.00  0.00     0.012 A 
ENDBRANCH   4  12
BRANCH  10  18
HETATM   18  O2  UNK     1      12.749  11.904  35.683  1.00  0.00    -0.356 OA
HETATM   19  C16 UNK     1      11.892  12.832  35.020  1.00  0.00     0.210 C 
ENDBRANCH  10  18
TORSDOF 2
ENDMDL
MODEL 9
REMARK VINA RESULT:      -7.1      1.962      6.785
REMARK  2 active torsions:
REMARK  status: ('A' for Active; 'I' for Inactive)
REMARK    1  A    between atoms: C9_12  and  O2_2 
REMARK    2  A    between atoms: C2_5  and  C5_8 
ROOT
HETATM    1  O1  UNK     1      18.408   1.759  33.013  1.00  0.00    -0.321 OA
HETATM    2  O3  UNK     1      18.913   4.283  29.848  1.00  0.00    -0.286 OA
HETATM    3  C1  UNK     1      19.012   2.086  30.686  1.00  0.00     0.049 A 
HETATM    4  C2  UNK     1      18.261   4.014  32.122  1.00  0.00     0.048 A 
HETATM    5  C3  UNK     1      18.832   1.272  31.804  1.00  0.00     0.091 A 
HETATM    6  C4  UNK     1      18.739   3.531  30.797  1.00  0.00     0.197 A 
HETATM    7  C6  UNK     1      19.447   1.534  29.478  1.00  0.00     0.021 A 
HETATM    8  C7  UNK     1      19.088  -0.097  31.722  1.00  0.00     0.075 A 
HETATM    9  C8  UNK     1      18.137   3.103  33.099  1.00  0.00     0.159 A 
HETATM   10  C9  UNK     1      19.523  -0.649  30.516  1.00  0.00     0.070 A 
HETATM   11  C10 UNK     1      19.702   0.164  29.398  1.00  0.00     0.038 A 
ENDROOT
BRANCH   4  12
HETATM   12  C5  UNK     1      17.917   5.425  32.358  1.00  0.00    -0.020 A 
HETATM   13  C11 UNK     1      16.626   5.886  32.091  1.00  0.00     0.012 A 
HETATM   14  C13 UNK     1      16.299   7.223  32.316  1.00  0.00     0.001 A 
HETATM   15  C15 UNK     1      17.262   8.104  32.809  1.00  0.00     0.000 A 
HETATM   16  C14 UNK     1      18.552   7.646  33.077  1.00  0.00     0.001 A 
HETATM   17  C12 UNK     1      18.879   6.309  32.852  1.00  0.00     0.012 A 
ENDBRANCH   4  12
BRANCH  10  18
HETATM   18  O2  UNK     1      19.772  -1.985  30.432  1.00  0.00    -0.356 OA
HETATM   19  C16 UNK     1      20.698  -2.534  31.368  1.00  0.00     0.210 C 
ENDBRANCH  10  18
TORSDOF 2
ENDMDL
MODEL 10
REMARK VINA RESULT:      -7.1     22.815     24.630
REMARK  2 active torsions:
REMARK  status: ('A' for Active; 'I' for Inactive)
REMARK    1  A    between atoms: C9_12  and  O2_2 
REMARK    2  A    between atoms: C2_5  and  C5_8 
ROOT
HETATM    1  O1  UNK     1       7.121   7.374  10.910  1.00  0.00    -0.321 OA
HETATM    2  O3  UNK     1       7.506   3.887   8.827  1.00  0.00    -0.286 OA
HETATM    3  C1  UNK     1       6.411   5.085  10.532  1.00  0.00     0.049 A 
HETATM    4  C2  UNK     1       8.207   6.144   9.119  1.00  0.00     0.048 A 
HETATM    5  C3  UNK     1       6.331   6.297  11.217  1.00  0.00     0.091 A 
HETATM    6  C4  UNK     1       7.383   4.944   9.433  1.00  0.00     0.197 A 
HETATM    7  C6  UNK     1       5.580   4.020  10.890  1.00  0.00     0.021 A 
HETATM    8  C7  UNK     1       5.421   6.451  12.263  1.00  0.00     0.075 A 
HETATM    9  C8  UNK     1       8.009   7.238   9.870  1.00  0.00     0.159 A 
HETATM   10  C9  UNK     1       4.590   5.388  12.622  1.00  0.00     0.070 A 
HETATM   11  C10 UNK     1       4.670   4.176  11.937  1.00  0.00     0.038 A 
ENDROOT
BRANCH   4  12
HETATM   12  C5  UNK     1       9.188   6.150   8.022  1.00  0.00    -0.020 A 
HETATM   13  C11 UNK     1      10.533   5.881   8.282  1.00  0.00     0.012 A 
HETATM   14  C13 UNK     1      11.462   5.887   7.241  1.00  0.00     0.001 A 
HETATM   15  C15 UNK     1      11.049   6.162   5.938  1.00  0.00     0.000 A 
HETATM   16  C14 UNK     1       9.705   6.432   5.675  1.00  0.00     0.001 A 
HETATM   17  C12 UNK     1       8.776   6.426   6.716  1.00  0.00     0.012 A 
ENDBRANCH   4  12
BRANCH  10  18
HETATM   18  O2  UNK     1       3.700   5.535  13.641  1.00  0.00    -0.356 OA
HETATM   19  C16 UNK     1       3.655   4.498  14.619  1.00  0.00     0.210 C 
ENDBRANCH  10  18
TORSDOF 2
ENDMDL
