MODEL 1
REMARK VINA RESULT:      -7.7      0.000      0.000
REMARK  4 active torsions:
REMARK  status: ('A' for Active; 'I' for Inactive)
REMARK    1  A    between atoms: C4_9  and  O2_2 
REMARK    2  A    between atoms: C9_14  and  O3_3 
REMARK    3  A    between atoms: C13_18  and  O5_5 
REMARK    4  A    between atoms: C2_7  and  C5_10 
ROOT
HETATM    1  O1  UNK     1      16.453   5.883  32.423  1.00  0.00    -0.306 OA
HETATM    2  O4  UNK     1      18.818   7.857  35.089  1.00  0.00    -0.284 OA
HETATM    3  C1  UNK     1      16.720   7.684  34.028  1.00  0.00     0.053 A 
HETATM    4  C2  UNK     1      17.753   5.475  32.676  1.00  0.00     0.123 A 
HETATM    5  C3  UNK     1      15.964   6.968  33.102  1.00  0.00     0.090 A 
HETATM    6  C4  UNK     1      18.589   6.084  33.537  1.00  0.00     0.154 A 
HETATM    7  C6  UNK     1      18.104   7.264  34.292  1.00  0.00     0.221 A 
HETATM    8  C7  UNK     1      16.168   8.784  34.689  1.00  0.00     0.055 A 
HETATM    9  C8  UNK     1      14.649   7.349  32.831  1.00  0.00     0.041 A 
HETATM   10  C9  UNK     1      14.852   9.162  34.418  1.00  0.00     0.069 A 
HETATM   11  C11 UNK     1      14.095   8.447  33.490  1.00  0.00     0.039 A 
ENDROOT
BRANCH   4  12
HETATM   12  C5  UNK     1      18.152   4.299  31.881  1.00  0.00     0.003 A 
HETATM   13  C10 UNK     1      18.160   3.032  32.463  1.00  0.00     0.051 A 
HETATM   14  C13 UNK     1      18.539   1.920  31.710  1.00  0.00     0.069 A 
HETATM   15  C15 UNK     1      18.908   2.077  30.375  1.00  0.00     0.037 A 
HETATM   16  C14 UNK     1      18.899   3.344  29.791  1.00  0.00     0.004 A 
HETATM   17  C12 UNK     1      18.522   4.455  30.544  1.00  0.00     0.014 A 
BRANCH  14  18
HETATM   18  O5  UNK     1      18.549   0.683  32.279  1.00  0.00    -0.356 OA
HETATM   19  C18 UNK     1      19.310  -0.327  31.619  1.00  0.00     0.210 C 
ENDBRANCH  14  18
ENDBRANCH   4  12
BRANCH   6  20
HETATM   20  O2  UNK     1      19.889   5.672  33.742  1.00  0.00    -0.350 OA
HETATM   21  C16 UNK     1      20.783   6.401  32.924  1.00  0.00     0.210 C 
ENDBRANCH   6  20
BRANCH  10  22
HETATM   22  O3  UNK     1      14.308  10.235  35.056  1.00  0.00    -0.356 OA
HETATM   23  C17 UNK     1      13.607  11.182  34.250  1.00  0.00     0.210 C 
ENDBRANCH  10  22
TORSDOF 4
ENDMDL
MODEL 2
REMARK VINA RESULT:      -7.7      2.318      7.251
REMARK  4 active torsions:
REMARK  status: ('A' for Active; 'I' for Inactive)
REMARK    1  A    between atoms: C4_9  and  O2_2 
REMARK    2  A    between atoms: C9_14  and  O3_3 
REMARK    3  A    between atoms: C13_18  and  O5_5 
REMARK    4  A    between atoms: C2_7  and  C5_10 
ROOT
HETATM    1  O1  UNK     1      18.407   4.171  34.565  1.00  0.00    -0.306 OA
HETATM    2  O4  UNK     1      18.192   2.061  31.085  1.00  0.00    -0.284 OA
HETATM    3  C1  UNK     1      18.328   2.022  33.438  1.00  0.00     0.053 A 
HETATM    4  C2  UNK     1      18.326   4.808  33.337  1.00  0.00     0.123 A 
HETATM    5  C3  UNK     1      18.401   2.800  34.592  1.00  0.00     0.090 A 
HETATM    6  C4  UNK     1      18.259   4.174  32.151  1.00  0.00     0.154 A 
HETATM    7  C6  UNK     1      18.253   2.692  32.132  1.00  0.00     0.221 A 
HETATM    8  C7  UNK     1      18.326   0.628  33.528  1.00  0.00     0.055 A 
HETATM    9  C8  UNK     1      18.476   2.188  35.844  1.00  0.00     0.041 A 
HETATM   10  C9  UNK     1      18.400   0.018  34.781  1.00  0.00     0.069 A 
HETATM   11  C11 UNK     1      18.476   0.796  35.937  1.00  0.00     0.039 A 
ENDROOT
BRANCH   4  12
HETATM   12  C5  UNK     1      18.342   6.278  33.450  1.00  0.00     0.003 A 
HETATM   13  C10 UNK     1      17.278   7.029  32.950  1.00  0.00     0.051 A 
HETATM   14  C13 UNK     1      17.295   8.420  33.057  1.00  0.00     0.069 A 
HETATM   15  C15 UNK     1      18.376   9.059  33.664  1.00  0.00     0.037 A 
HETATM   16  C14 UNK     1      19.439   8.308  34.165  1.00  0.00     0.004 A 
HETATM   17  C12 UNK     1      19.423   6.919  34.057  1.00  0.00     0.014 A 
BRANCH  14  18
HETATM   18  O5  UNK     1      16.258   9.154  32.567  1.00  0.00    -0.356 OA
HETATM   19  C18 UNK     1      14.943   8.748  32.941  1.00  0.00     0.210 C 
ENDBRANCH  14  18
ENDBRANCH   4  12
BRANCH   6  20
HETATM   20  O2  UNK     1      18.212   4.839  30.944  1.00  0.00    -0.350 OA
HETATM   21  C16 UNK     1      19.516   5.084  30.453  1.00  0.00     0.210 C 
ENDBRANCH   6  20
BRANCH  10  22
HETATM   22  O3  UNK     1      18.402  -1.341  34.877  1.00  0.00    -0.356 OA
HETATM   23  C17 UNK     1      19.425  -1.933  35.678  1.00  0.00     0.210 C 
ENDBRANCH  10  22
TORSDOF 4
ENDMDL
MODEL 3
REMARK VINA RESULT:      -7.6     23.308     25.315
REMARK  4 active torsions:
REMARK  status: ('A' for Active; 'I' for Inactive)
REMARK    1  A    between atoms: C4_9  and  O2_2 
REMARK    2  A    between atoms: C9_14  and  O3_3 
REMARK    3  A    between atoms: C13_18  and  O5_5 
REMARK    4  A    between atoms: C2_7  and  C5_10 
ROOT
HETATM    1  O1  UNK     1      12.920   8.464   8.043  1.00  0.00    -0.306 OA
HETATM    2  O4  UNK     1      14.769   5.885  10.600  1.00  0.00    -0.284 OA
HETATM    3  C1  UNK     1      14.826   7.945   9.453  1.00  0.00     0.053 A 
HETATM    4  C2  UNK     1      12.333   7.262   8.408  1.00  0.00     0.123 A 
HETATM    5  C3  UNK     1      14.143   8.782   8.573  1.00  0.00     0.090 A 
HETATM    6  C4  UNK     1      12.891   6.363   9.240  1.00  0.00     0.154 A 
HETATM    7  C6  UNK     1      14.215   6.663   9.835  1.00  0.00     0.221 A 
HETATM    8  C7  UNK     1      16.072   8.322   9.960  1.00  0.00     0.055 A 
HETATM    9  C8  UNK     1      14.704  10.002   8.193  1.00  0.00     0.041 A 
HETATM   10  C9  UNK     1      16.630   9.543   9.580  1.00  0.00     0.069 A 
HETATM   11  C11 UNK     1      15.948  10.381   8.697  1.00  0.00     0.039 A 
ENDROOT
BRANCH   4  12
HETATM   12  C5  UNK     1      11.023   7.045   7.769  1.00  0.00     0.003 A 
HETATM   13  C10 UNK     1       9.852   7.164   8.517  1.00  0.00     0.051 A 
HETATM   14  C13 UNK     1       8.612   6.957   7.911  1.00  0.00     0.069 A 
HETATM   15  C15 UNK     1       8.545   6.631   6.556  1.00  0.00     0.037 A 
HETATM   16  C14 UNK     1       9.716   6.513   5.807  1.00  0.00     0.004 A 
HETATM   17  C12 UNK     1      10.954   6.719   6.413  1.00  0.00     0.014 A 
BRANCH  14  18
HETATM   18  O5  UNK     1       7.469   7.071   8.641  1.00  0.00    -0.356 OA
HETATM   19  C18 UNK     1       7.589   7.622   9.951  1.00  0.00     0.210 C 
ENDBRANCH  14  18
ENDBRANCH   4  12
BRANCH   6  20
HETATM   20  O2  UNK     1      12.295   5.161   9.558  1.00  0.00    -0.350 OA
HETATM   21  C16 UNK     1      12.513   4.206   8.537  1.00  0.00     0.210 C 
ENDBRANCH   6  20
BRANCH  10  22
HETATM   22  O3  UNK     1      17.846   9.917  10.068  1.00  0.00    -0.356 OA
HETATM   23  C17 UNK     1      18.323  11.211   9.699  1.00  0.00     0.210 C 
ENDBRANCH  10  22
TORSDOF 4
ENDMDL
MODEL 4
REMARK VINA RESULT:      -7.5      2.073      7.453
REMARK  4 active torsions:
REMARK  status: ('A' for Active; 'I' for Inactive)
REMARK    1  A    between atoms: C4_9  and  O2_2 
REMARK    2  A    between atoms: C9_14  and  O3_3 
REMARK    3  A    between atoms: C13_18  and  O5_5 
REMARK    4  A    between atoms: C2_7  and  C5_10 
ROOT
HETATM    1  O1  UNK     1      17.962   3.749  33.308  1.00  0.00    -0.306 OA
HETATM    2  O4  UNK     1      19.134   2.631  29.569  1.00  0.00    -0.284 OA
HETATM    3  C1  UNK     1      18.642   1.987  31.783  1.00  0.00     0.053 A 
HETATM    4  C2  UNK     1      18.079   4.672  32.281  1.00  0.00     0.123 A 
HETATM    5  C3  UNK     1      18.239   2.434  33.040  1.00  0.00     0.090 A 
HETATM    6  C4  UNK     1      18.467   4.373  31.028  1.00  0.00     0.154 A 
HETATM    7  C6  UNK     1      18.780   2.963  30.692  1.00  0.00     0.221 A 
HETATM    8  C7  UNK     1      18.912   0.633  31.569  1.00  0.00     0.055 A 
HETATM    9  C8  UNK     1      18.105   1.527  34.093  1.00  0.00     0.041 A 
HETATM   10  C9  UNK     1      18.775  -0.271  32.623  1.00  0.00     0.069 A 
HETATM   11  C11 UNK     1      18.373   0.175  33.883  1.00  0.00     0.039 A 
ENDROOT
BRANCH   4  12
HETATM   12  C5  UNK     1      17.753   6.046  32.704  1.00  0.00     0.003 A 
HETATM   13  C10 UNK     1      18.731   6.846  33.294  1.00  0.00     0.051 A 
HETATM   14  C13 UNK     1      18.422   8.146  33.695  1.00  0.00     0.069 A 
HETATM   15  C15 UNK     1      17.134   8.646  33.504  1.00  0.00     0.037 A 
HETATM   16  C14 UNK     1      16.155   7.847  32.912  1.00  0.00     0.004 A 
HETATM   17  C12 UNK     1      16.464   6.547  32.513  1.00  0.00     0.014 A 
BRANCH  14  18
HETATM   18  O5  UNK     1      19.376   8.927  34.273  1.00  0.00    -0.356 OA
HETATM   19  C18 UNK     1      19.190  10.339  34.200  1.00  0.00     0.210 C 
ENDBRANCH  14  18
ENDBRANCH   4  12
BRANCH   6  20
HETATM   20  O2  UNK     1      18.604   5.321  30.036  1.00  0.00    -0.350 OA
HETATM   21  C16 UNK     1      19.932   5.807  29.984  1.00  0.00     0.210 C 
ENDBRANCH   6  20
BRANCH  10  22
HETATM   22  O3  UNK     1      19.039  -1.593  32.424  1.00  0.00    -0.356 OA
HETATM   23  C17 UNK     1      20.231  -1.915  31.707  1.00  0.00     0.210 C 
ENDBRANCH  10  22
TORSDOF 4
ENDMDL
MODEL 5
REMARK VINA RESULT:      -7.3     23.018     24.914
REMARK  4 active torsions:
REMARK  status: ('A' for Active; 'I' for Inactive)
REMARK    1  A    between atoms: C4_9  and  O2_2 
REMARK    2  A    between atoms: C9_14  and  O3_3 
REMARK    3  A    between atoms: C13_18  and  O5_5 
REMARK    4  A    between atoms: C2_7  and  C5_10 
ROOT
HETATM    1  O1  UNK     1      14.143   9.171   8.215  1.00  0.00    -0.306 OA
HETATM    2  O4  UNK     1      16.576   7.467  11.005  1.00  0.00    -0.284 OA
HETATM    3  C1  UNK     1      16.182   9.264   9.530  1.00  0.00     0.053 A 
HETATM    4  C2  UNK     1      13.816   7.969   8.822  1.00  0.00     0.123 A 
HETATM    5  C3  UNK     1      15.309   9.793   8.582  1.00  0.00     0.090 A 
HETATM    6  C4  UNK     1      14.575   7.348   9.744  1.00  0.00     0.154 A 
HETATM    7  C6  UNK     1      15.846   7.983  10.169  1.00  0.00     0.221 A 
HETATM    8  C7  UNK     1      17.356   9.943   9.863  1.00  0.00     0.055 A 
HETATM    9  C8  UNK     1      15.606  11.005   7.958  1.00  0.00     0.041 A 
HETATM   10  C9  UNK     1      17.651  11.156   9.239  1.00  0.00     0.069 A 
HETATM   11  C11 UNK     1      16.778  11.686   8.288  1.00  0.00     0.039 A 
ENDROOT
BRANCH   4  12
HETATM   12  C5  UNK     1      12.541   7.408   8.338  1.00  0.00     0.003 A 
HETATM   13  C10 UNK     1      11.374   7.582   9.082  1.00  0.00     0.051 A 
HETATM   14  C13 UNK     1      10.169   7.050   8.623  1.00  0.00     0.069 A 
HETATM   15  C15 UNK     1      10.131   6.346   7.420  1.00  0.00     0.037 A 
HETATM   16  C14 UNK     1      11.297   6.173   6.675  1.00  0.00     0.004 A 
HETATM   17  C12 UNK     1      12.502   6.703   7.134  1.00  0.00     0.014 A 
BRANCH  14  18
HETATM   18  O5  UNK     1       9.030   7.218   9.350  1.00  0.00    -0.356 OA
HETATM   19  C18 UNK     1       7.800   7.263   8.627  1.00  0.00     0.210 C 
ENDBRANCH  14  18
ENDBRANCH   4  12
BRANCH   6  20
HETATM   20  O2  UNK     1      14.237   6.136  10.306  1.00  0.00    -0.350 OA
HETATM   21  C16 UNK     1      14.867   5.070   9.621  1.00  0.00     0.210 C 
ENDBRANCH   6  20
BRANCH  10  22
HETATM   22  O3  UNK     1      18.795  11.823   9.556  1.00  0.00    -0.356 OA
HETATM   23  C17 UNK     1      19.632  12.226   8.472  1.00  0.00     0.210 C 
ENDBRANCH  10  22
TORSDOF 4
ENDMDL
MODEL 6
REMARK VINA RESULT:      -7.3      1.725      2.159
REMARK  4 active torsions:
REMARK  status: ('A' for Active; 'I' for Inactive)
REMARK    1  A    between atoms: C4_9  and  O2_2 
REMARK    2  A    between atoms: C9_14  and  O3_3 
REMARK    3  A    between atoms: C13_18  and  O5_5 
REMARK    4  A    between atoms: C2_7  and  C5_10 
ROOT
HETATM    1  O1  UNK     1      16.991   6.757  32.688  1.00  0.00    -0.306 OA
HETATM    2  O4  UNK     1      20.041   8.772  34.489  1.00  0.00    -0.284 OA
HETATM    3  C1  UNK     1      17.813   8.797  33.716  1.00  0.00     0.053 A 
HETATM    4  C2  UNK     1      18.219   6.156  32.917  1.00  0.00     0.123 A 
HETATM    5  C3  UNK     1      16.812   8.054  33.094  1.00  0.00     0.090 A 
HETATM    6  C4  UNK     1      19.269   6.765  33.499  1.00  0.00     0.154 A 
HETATM    7  C6  UNK     1      19.122   8.169  33.951  1.00  0.00     0.221 A 
HETATM    8  C7  UNK     1      17.573  10.116  34.107  1.00  0.00     0.055 A 
HETATM    9  C8  UNK     1      15.562   8.629  32.856  1.00  0.00     0.041 A 
HETATM   10  C9  UNK     1      16.322  10.688  33.870  1.00  0.00     0.069 A 
HETATM   11  C11 UNK     1      15.319   9.946  33.245  1.00  0.00     0.039 A 
ENDROOT
BRANCH   4  12
HETATM   12  C5  UNK     1      18.277   4.765  32.433  1.00  0.00     0.003 A 
HETATM   13  C10 UNK     1      18.441   4.505  31.073  1.00  0.00     0.051 A 
HETATM   14  C13 UNK     1      18.495   3.188  30.616  1.00  0.00     0.069 A 
HETATM   15  C15 UNK     1      18.385   2.131  31.520  1.00  0.00     0.037 A 
HETATM   16  C14 UNK     1      18.222   2.391  32.880  1.00  0.00     0.004 A 
HETATM   17  C12 UNK     1      18.167   3.707  33.337  1.00  0.00     0.014 A 
BRANCH  14  18
HETATM   18  O5  UNK     1      18.654   2.933  29.288  1.00  0.00    -0.356 OA
HETATM   19  C18 UNK     1      18.010   1.770  28.769  1.00  0.00     0.210 C 
ENDBRANCH  14  18
ENDBRANCH   4  12
BRANCH   6  20
HETATM   20  O2  UNK     1      20.489   6.149  33.683  1.00  0.00    -0.350 OA
HETATM   21  C16 UNK     1      21.331   6.356  32.566  1.00  0.00     0.210 C 
ENDBRANCH   6  20
BRANCH  10  22
HETATM   22  O3  UNK     1      16.080  11.974  34.246  1.00  0.00    -0.356 OA
HETATM   23  C17 UNK     1      17.163  12.897  34.132  1.00  0.00     0.210 C 
ENDBRANCH  10  22
TORSDOF 4
ENDMDL
MODEL 7
REMARK VINA RESULT:      -7.2      2.857      7.338
REMARK  4 active torsions:
REMARK  status: ('A' for Active; 'I' for Inactive)
REMARK    1  A    between atoms: C4_9  and  O2_2 
REMARK    2  A    between atoms: C9_14  and  O3_3 
REMARK    3  A    between atoms: C13_18  and  O5_5 
REMARK    4  A    between atoms: C2_7  and  C5_10 
ROOT
HETATM    1  O1  UNK     1      18.044   3.265  34.785  1.00  0.00    -0.306 OA
HETATM    2  O4  UNK     1      18.681   0.350  32.010  1.00  0.00    -0.284 OA
HETATM    3  C1  UNK     1      18.182   0.902  34.247  1.00  0.00     0.053 A 
HETATM    4  C2  UNK     1      18.318   3.574  33.462  1.00  0.00     0.123 A 
HETATM    5  C3  UNK     1      17.977   1.945  35.148  1.00  0.00     0.090 A 
HETATM    6  C4  UNK     1      18.545   2.663  32.498  1.00  0.00     0.154 A 
HETATM    7  C6  UNK     1      18.486   1.223  32.845  1.00  0.00     0.221 A 
HETATM    8  C7  UNK     1      18.102  -0.425  34.676  1.00  0.00     0.055 A 
HETATM    9  C8  UNK     1      17.691   1.666  36.486  1.00  0.00     0.041 A 
HETATM   10  C9  UNK     1      17.814  -0.701  36.013  1.00  0.00     0.069 A 
HETATM   11  C11 UNK     1      17.610   0.342  36.917  1.00  0.00     0.039 A 
ENDROOT
BRANCH   4  12
HETATM   12  C5  UNK     1      18.362   5.025  33.208  1.00  0.00     0.003 A 
HETATM   13  C10 UNK     1      17.300   5.653  32.558  1.00  0.00     0.051 A 
HETATM   14  C13 UNK     1      17.343   7.027  32.317  1.00  0.00     0.069 A 
HETATM   15  C15 UNK     1      18.448   7.772  32.727  1.00  0.00     0.037 A 
HETATM   16  C14 UNK     1      19.511   7.144  33.377  1.00  0.00     0.004 A 
HETATM   17  C12 UNK     1      19.468   5.772  33.617  1.00  0.00     0.014 A 
BRANCH  14  18
HETATM   18  O5  UNK     1      16.307   7.640  31.682  1.00  0.00    -0.356 OA
HETATM   19  C18 UNK     1      14.991   7.198  32.010  1.00  0.00     0.210 C 
ENDBRANCH  14  18
ENDBRANCH   4  12
BRANCH   6  20
HETATM   20  O2  UNK     1      18.848   3.004  31.197  1.00  0.00    -0.350 OA
HETATM   21  C16 UNK     1      17.750   2.748  30.341  1.00  0.00     0.210 C 
ENDBRANCH   6  20
BRANCH  10  22
HETATM   22  O3  UNK     1      17.737  -1.993  36.440  1.00  0.00    -0.356 OA
HETATM   23  C17 UNK     1      18.961  -2.627  36.810  1.00  0.00     0.210 C 
ENDBRANCH  10  22
TORSDOF 4
ENDMDL
MODEL 8
REMARK VINA RESULT:      -7.2      2.347      3.900
REMARK  4 active torsions:
REMARK  status: ('A' for Active; 'I' for Inactive)
REMARK    1  A    between atoms: C4_9  and  O2_2 
REMARK    2  A    between atoms: C9_14  and  O3_3 
REMARK    3  A    between atoms: C13_18  and  O5_5 
REMARK    4  A    between atoms: C2_7  and  C5_10 
ROOT
HETATM    1  O1  UNK     1      18.072   8.977  33.207  1.00  0.00    -0.306 OA
HETATM    2  O4  UNK     1      14.223   9.429  34.466  1.00  0.00    -0.284 OA
HETATM    3  C1  UNK     1      16.379  10.361  34.262  1.00  0.00     0.053 A 
HETATM    4  C2  UNK     1      17.130   7.975  33.028  1.00  0.00     0.123 A 
HETATM    5  C3  UNK     1      17.680  10.143  33.811  1.00  0.00     0.090 A 
HETATM    6  C4  UNK     1      15.847   8.056  33.426  1.00  0.00     0.154 A 
HETATM    7  C6  UNK     1      15.379   9.298  34.087  1.00  0.00     0.221 A 
HETATM    8  C7  UNK     1      16.038  11.570  34.871  1.00  0.00     0.055 A 
HETATM    9  C8  UNK     1      18.649  11.135  33.969  1.00  0.00     0.041 A 
HETATM   10  C9  UNK     1      17.008  12.562  35.027  1.00  0.00     0.069 A 
HETATM   11  C11 UNK     1      18.311  12.344  34.577  1.00  0.00     0.039 A 
ENDROOT
BRANCH   4  12
HETATM   12  C5  UNK     1      17.682   6.778  32.369  1.00  0.00     0.003 A 
HETATM   13  C10 UNK     1      17.560   5.528  32.974  1.00  0.00     0.051 A 
HETATM   14  C13 UNK     1      18.084   4.396  32.350  1.00  0.00     0.069 A 
HETATM   15  C15 UNK     1      18.730   4.515  31.119  1.00  0.00     0.037 A 
HETATM   16  C14 UNK     1      18.852   5.765  30.513  1.00  0.00     0.004 A 
HETATM   17  C12 UNK     1      18.329   6.896  31.138  1.00  0.00     0.014 A 
BRANCH  14  18
HETATM   18  O5  UNK     1      17.966   3.175  32.941  1.00  0.00    -0.356 OA
HETATM   19  C18 UNK     1      18.382   3.071  34.302  1.00  0.00     0.210 C 
ENDBRANCH  14  18
ENDBRANCH   4  12
BRANCH   6  20
HETATM   20  O2  UNK     1      14.943   7.028  33.262  1.00  0.00    -0.350 OA
HETATM   21  C16 UNK     1      14.214   7.186  32.059  1.00  0.00     0.210 C 
ENDBRANCH   6  20
BRANCH  10  22
HETATM   22  O3  UNK     1      16.684  13.743  35.623  1.00  0.00    -0.356 OA
HETATM   23  C17 UNK     1      15.751  13.690  36.701  1.00  0.00     0.210 C 
ENDBRANCH  10  22
TORSDOF 4
ENDMDL
MODEL 9
REMARK VINA RESULT:      -7.2      7.273     10.370
REMARK  4 active torsions:
REMARK  status: ('A' for Active; 'I' for Inactive)
REMARK    1  A    between atoms: C4_9  and  O2_2 
REMARK    2  A    between atoms: C9_14  and  O3_3 
REMARK    3  A    between atoms: C13_18  and  O5_5 
REMARK    4  A    between atoms: C2_7  and  C5_10 
ROOT
HETATM    1  O1  UNK     1      20.317  -3.206  34.402  1.00  0.00    -0.306 OA
HETATM    2  O4  UNK     1      17.463  -0.372  35.058  1.00  0.00    -0.284 OA
HETATM    3  C1  UNK     1      19.100  -1.260  33.612  1.00  0.00     0.053 A 
HETATM    4  C2  UNK     1      19.575  -3.184  35.573  1.00  0.00     0.123 A 
HETATM    5  C3  UNK     1      20.063  -2.254  33.449  1.00  0.00     0.090 A 
HETATM    6  C4  UNK     1      18.625  -2.275  35.857  1.00  0.00     0.154 A 
HETATM    7  C6  UNK     1      18.319  -1.224  34.857  1.00  0.00     0.221 A 
HETATM    8  C7  UNK     1      18.886  -0.315  32.606  1.00  0.00     0.055 A 
HETATM    9  C8  UNK     1      20.820  -2.308  32.278  1.00  0.00     0.041 A 
HETATM   10  C9  UNK     1      19.644  -0.372  31.435  1.00  0.00     0.069 A 
HETATM   11  C11 UNK     1      20.609  -1.365  31.272  1.00  0.00     0.039 A 
ENDROOT
BRANCH   4  12
HETATM   12  C5  UNK     1      19.948  -4.260  36.510  1.00  0.00     0.003 A 
HETATM   13  C10 UNK     1      19.152  -5.401  36.617  1.00  0.00     0.051 A 
HETATM   14  C13 UNK     1      19.505  -6.417  37.504  1.00  0.00     0.069 A 
HETATM   15  C15 UNK     1      20.655  -6.293  38.284  1.00  0.00     0.037 A 
HETATM   16  C14 UNK     1      21.451  -5.153  38.177  1.00  0.00     0.004 A 
HETATM   17  C12 UNK     1      21.098  -4.137  37.291  1.00  0.00     0.014 A 
BRANCH  14  18
HETATM   18  O5  UNK     1      18.728  -7.530  37.610  1.00  0.00    -0.356 OA
HETATM   19  C18 UNK     1      19.039  -8.623  36.748  1.00  0.00     0.210 C 
ENDBRANCH  14  18
ENDBRANCH   4  12
BRANCH   6  20
HETATM   20  O2  UNK     1      17.927  -2.261  37.046  1.00  0.00    -0.350 OA
HETATM   21  C16 UNK     1      18.446  -1.279  37.923  1.00  0.00     0.210 C 
ENDBRANCH   6  20
BRANCH  10  22
HETATM   22  O3  UNK     1      19.443   0.548  30.451  1.00  0.00    -0.356 OA
HETATM   23  C17 UNK     1      19.966   0.239  29.159  1.00  0.00     0.210 C 
ENDBRANCH  10  22
TORSDOF 4
ENDMDL
MODEL 10
REMARK VINA RESULT:      -7.2      2.374      4.188
REMARK  4 active torsions:
REMARK  status: ('A' for Active; 'I' for Inactive)
REMARK    1  A    between atoms: C4_9  and  O2_2 
REMARK    2  A    between atoms: C9_14  and  O3_3 
REMARK    3  A    between atoms: C13_18  and  O5_5 
REMARK    4  A    between atoms: C2_7  and  C5_10 
ROOT
HETATM    1  O1  UNK     1      18.176   3.424  33.059  1.00  0.00    -0.306 OA
HETATM    2  O4  UNK     1      18.765   5.144  29.412  1.00  0.00    -0.284 OA
HETATM    3  C1  UNK     1      18.205   5.425  31.685  1.00  0.00     0.053 A 
HETATM    4  C2  UNK     1      18.551   2.672  31.957  1.00  0.00     0.123 A 
HETATM    5  C3  UNK     1      18.017   4.777  32.904  1.00  0.00     0.090 A 
HETATM    6  C4  UNK     1      18.755   3.174  30.725  1.00  0.00     0.154 A 
HETATM    7  C6  UNK     1      18.590   4.632  30.509  1.00  0.00     0.221 A 
HETATM    8  C7  UNK     1      18.026   6.807  31.587  1.00  0.00     0.055 A 
HETATM    9  C8  UNK     1      17.647   5.508  34.034  1.00  0.00     0.041 A 
HETATM   10  C9  UNK     1      17.658   7.537  32.719  1.00  0.00     0.069 A 
HETATM   11  C11 UNK     1      17.468   6.888  33.939  1.00  0.00     0.039 A 
ENDROOT
BRANCH   4  12
HETATM   12  C5  UNK     1      18.687   1.236  32.261  1.00  0.00     0.003 A 
HETATM   13  C10 UNK     1      19.302   0.383  31.344  1.00  0.00     0.051 A 
HETATM   14  C13 UNK     1      19.429  -0.976  31.633  1.00  0.00     0.069 A 
HETATM   15  C15 UNK     1      18.942  -1.481  32.838  1.00  0.00     0.037 A 
HETATM   16  C14 UNK     1      18.328  -0.629  33.755  1.00  0.00     0.004 A 
HETATM   17  C12 UNK     1      18.200   0.729  33.467  1.00  0.00     0.014 A 
BRANCH  14  18
HETATM   18  O5  UNK     1      20.028  -1.809  30.737  1.00  0.00    -0.356 OA
HETATM   19  C18 UNK     1      20.356  -1.262  29.461  1.00  0.00     0.210 C 
ENDBRANCH  14  18
ENDBRANCH   4  12
BRANCH   6  20
HETATM   20  O2  UNK     1      19.096   2.393  29.641  1.00  0.00    -0.350 OA
HETATM   21  C16 UNK     1      17.968   2.147  28.823  1.00  0.00     0.210 C 
ENDBRANCH   6  20
BRANCH  10  22
HETATM   22  O3  UNK     1      17.479   8.884  32.631  1.00  0.00    -0.356 OA
HETATM   23  C17 UNK     1      17.737   9.650  33.808  1.00  0.00     0.210 C 
ENDBRANCH  10  22
TORSDOF 4
ENDMDL
