MODEL 1
REMARK VINA RESULT:      -8.2      0.000      0.000
REMARK  3 active torsions:
REMARK  status: ('A' for Active; 'I' for Inactive)
REMARK    1  A    between atoms: C5_9  and  O2_2 
REMARK    2  A    between atoms: C11_15  and  O3_3 
REMARK    3  A    between atoms: C1_5  and  C4_8 
ROOT
HETATM    1  O1  UNK     1      18.595   0.136  32.412  1.00  0.00    -0.306 OA
HETATM    2  O4  UNK     1      21.051  -3.111  32.570  1.00  0.00    -0.284 OA
HETATM    3  C1  UNK     1      18.719  -0.621  33.567  1.00  0.00     0.123 A 
HETATM    4  C2  UNK     1      20.191  -1.318  31.303  1.00  0.00     0.051 A 
HETATM    5  C3  UNK     1      19.332  -0.221  31.313  1.00  0.00     0.090 A 
HETATM    6  C5  UNK     1      19.504  -1.707  33.685  1.00  0.00     0.154 A 
HETATM    7  C6  UNK     1      20.317  -2.133  32.520  1.00  0.00     0.221 A 
HETATM    8  C8  UNK     1      20.917  -1.634  30.152  1.00  0.00     0.018 A 
HETATM    9  C9  UNK     1      19.194   0.568  30.171  1.00  0.00     0.038 A 
HETATM   10  C12 UNK     1      20.777  -0.845  29.011  1.00  0.00     0.001 A 
HETATM   11  C13 UNK     1      19.918   0.254  29.020  1.00  0.00     0.003 A 
ENDROOT
BRANCH   3  12
HETATM   12  C4  UNK     1      17.873  -0.131  34.670  1.00  0.00     0.003 A 
HETATM   13  C10 UNK     1      16.510  -0.426  34.687  1.00  0.00     0.014 A 
HETATM   14  C14 UNK     1      15.709   0.038  35.731  1.00  0.00     0.004 A 
HETATM   15  C15 UNK     1      16.272   0.796  36.758  1.00  0.00     0.037 A 
HETATM   16  C11 UNK     1      17.635   1.092  36.741  1.00  0.00     0.069 A 
HETATM   17  C7  UNK     1      18.436   0.628  35.696  1.00  0.00     0.051 A 
BRANCH  16  18
HETATM   18  O3  UNK     1      18.184   1.831  37.742  1.00  0.00    -0.356 OA
HETATM   19  C17 UNK     1      17.796   1.506  39.077  1.00  0.00     0.210 C 
ENDBRANCH  16  18
ENDBRANCH   3  12
BRANCH   6  20
HETATM   20  O2  UNK     1      19.580  -2.457  34.839  1.00  0.00    -0.350 OA
HETATM   21  C16 UNK     1      20.718  -2.099  35.600  1.00  0.00     0.210 C 
ENDBRANCH   6  20
TORSDOF 3
ENDMDL
MODEL 2
REMARK VINA RESULT:      -7.7     25.266     27.402
REMARK  3 active torsions:
REMARK  status: ('A' for Active; 'I' for Inactive)
REMARK    1  A    between atoms: C5_9  and  O2_2 
REMARK    2  A    between atoms: C11_15  and  O3_3 
REMARK    3  A    between atoms: C1_5  and  C4_8 
ROOT
HETATM    1  O1  UNK     1      12.993   8.429   8.096  1.00  0.00    -0.306 OA
HETATM    2  O4  UNK     1      14.758   5.824  10.685  1.00  0.00    -0.284 OA
HETATM    3  C1  UNK     1      12.397   7.220   8.425  1.00  0.00     0.123 A 
HETATM    4  C2  UNK     1      14.849   7.899   9.567  1.00  0.00     0.051 A 
HETATM    5  C3  UNK     1      14.195   8.744   8.673  1.00  0.00     0.090 A 
HETATM    6  C5  UNK     1      12.927   6.314   9.265  1.00  0.00     0.154 A 
HETATM    7  C6  UNK     1      14.229   6.610   9.911  1.00  0.00     0.221 A 
HETATM    8  C8  UNK     1      16.074   8.273  10.125  1.00  0.00     0.018 A 
HETATM    9  C9  UNK     1      14.763   9.971   8.331  1.00  0.00     0.038 A 
HETATM   10  C12 UNK     1      16.640   9.501   9.781  1.00  0.00     0.001 A 
HETATM   11  C13 UNK     1      15.987  10.348   8.886  1.00  0.00     0.003 A 
ENDROOT
BRANCH   3  12
HETATM   12  C4  UNK     1      11.112   7.006   7.735  1.00  0.00     0.003 A 
HETATM   13  C10 UNK     1      11.095   6.707   6.373  1.00  0.00     0.014 A 
HETATM   14  C14 UNK     1       9.879   6.504   5.719  1.00  0.00     0.004 A 
HETATM   15  C15 UNK     1       8.681   6.598   6.428  1.00  0.00     0.037 A 
HETATM   16  C11 UNK     1       8.699   6.897   7.790  1.00  0.00     0.069 A 
HETATM   17  C7  UNK     1       9.915   7.101   8.444  1.00  0.00     0.051 A 
BRANCH  16  18
HETATM   18  O3  UNK     1       7.531   6.990   8.482  1.00  0.00    -0.356 OA
HETATM   19  C17 UNK     1       7.591   7.577   9.782  1.00  0.00     0.210 C 
ENDBRANCH  16  18
ENDBRANCH   3  12
BRANCH   6  20
HETATM   20  O2  UNK     1      12.323   5.107   9.547  1.00  0.00    -0.350 OA
HETATM   21  C16 UNK     1      12.548   4.176   8.505  1.00  0.00     0.210 C 
ENDBRANCH   6  20
TORSDOF 3
ENDMDL
MODEL 3
REMARK VINA RESULT:      -7.7      3.814      5.205
REMARK  3 active torsions:
REMARK  status: ('A' for Active; 'I' for Inactive)
REMARK    1  A    between atoms: C5_9  and  O2_2 
REMARK    2  A    between atoms: C11_15  and  O3_3 
REMARK    3  A    between atoms: C1_5  and  C4_8 
ROOT
HETATM    1  O1  UNK     1      19.339   1.919  30.449  1.00  0.00    -0.306 OA
HETATM    2  O4  UNK     1      18.351  -0.277  33.737  1.00  0.00    -0.284 OA
HETATM    3  C1  UNK     1      18.737   2.502  31.554  1.00  0.00     0.123 A 
HETATM    4  C2  UNK     1      19.303  -0.229  31.579  1.00  0.00     0.051 A 
HETATM    5  C3  UNK     1      19.613   0.577  30.485  1.00  0.00     0.090 A 
HETATM    6  C5  UNK     1      18.379   1.836  32.666  1.00  0.00     0.154 A 
HETATM    7  C6  UNK     1      18.653   0.381  32.749  1.00  0.00     0.221 A 
HETATM    8  C8  UNK     1      19.606  -1.592  31.559  1.00  0.00     0.018 A 
HETATM    9  C9  UNK     1      20.230   0.022  29.364  1.00  0.00     0.038 A 
HETATM   10  C12 UNK     1      20.222  -2.144  30.437  1.00  0.00     0.001 A 
HETATM   11  C13 UNK     1      20.534  -1.339  29.341  1.00  0.00     0.003 A 
ENDROOT
BRANCH   3  12
HETATM   12  C4  UNK     1      18.497   3.946  31.383  1.00  0.00     0.003 A 
HETATM   13  C10 UNK     1      19.191   4.656  30.404  1.00  0.00     0.014 A 
HETATM   14  C14 UNK     1      18.965   6.023  30.241  1.00  0.00     0.004 A 
HETATM   15  C15 UNK     1      18.044   6.680  31.058  1.00  0.00     0.037 A 
HETATM   16  C11 UNK     1      17.350   5.970  32.038  1.00  0.00     0.069 A 
HETATM   17  C7  UNK     1      17.577   4.602  32.201  1.00  0.00     0.051 A 
BRANCH  16  18
HETATM   18  O3  UNK     1      16.452   6.610  32.835  1.00  0.00    -0.356 OA
HETATM   19  C17 UNK     1      15.283   7.133  32.205  1.00  0.00     0.210 C 
ENDBRANCH  16  18
ENDBRANCH   3  12
BRANCH   6  20
HETATM   20  O2  UNK     1      17.752   2.440  33.735  1.00  0.00    -0.350 OA
HETATM   21  C16 UNK     1      18.617   2.511  34.852  1.00  0.00     0.210 C 
ENDBRANCH   6  20
TORSDOF 3
ENDMDL
MODEL 4
REMARK VINA RESULT:      -7.7      1.734      3.216
REMARK  3 active torsions:
REMARK  status: ('A' for Active; 'I' for Inactive)
REMARK    1  A    between atoms: C5_9  and  O2_2 
REMARK    2  A    between atoms: C11_15  and  O3_3 
REMARK    3  A    between atoms: C1_5  and  C4_8 
ROOT
HETATM    1  O1  UNK     1      19.067  -0.891  32.894  1.00  0.00    -0.306 OA
HETATM    2  O4  UNK     1      18.655   2.630  30.884  1.00  0.00    -0.284 OA
HETATM    3  C1  UNK     1      18.463   0.211  33.481  1.00  0.00     0.123 A 
HETATM    4  C2  UNK     1      19.406   0.394  30.863  1.00  0.00     0.051 A 
HETATM    5  C3  UNK     1      19.519  -0.780  31.605  1.00  0.00     0.090 A 
HETATM    6  C5  UNK     1      18.300   1.402  32.878  1.00  0.00     0.154 A 
HETATM    7  C6  UNK     1      18.777   1.570  31.483  1.00  0.00     0.221 A 
HETATM    8  C8  UNK     1      19.885   0.448  29.552  1.00  0.00     0.018 A 
HETATM    9  C9  UNK     1      20.112  -1.908  31.039  1.00  0.00     0.038 A 
HETATM   10  C12 UNK     1      20.478  -0.681  28.988  1.00  0.00     0.001 A 
HETATM   11  C13 UNK     1      20.591  -1.857  29.729  1.00  0.00     0.003 A 
ENDROOT
BRANCH   3  12
HETATM   12  C4  UNK     1      18.026  -0.043  34.865  1.00  0.00     0.003 A 
HETATM   13  C10 UNK     1      16.849   0.535  35.341  1.00  0.00     0.014 A 
HETATM   14  C14 UNK     1      16.434   0.295  36.652  1.00  0.00     0.004 A 
HETATM   15  C15 UNK     1      17.197  -0.523  37.486  1.00  0.00     0.037 A 
HETATM   16  C11 UNK     1      18.374  -1.101  37.010  1.00  0.00     0.069 A 
HETATM   17  C7  UNK     1      18.789  -0.860  35.699  1.00  0.00     0.051 A 
BRANCH  16  18
HETATM   18  O3  UNK     1      19.117  -1.899  37.823  1.00  0.00    -0.356 OA
HETATM   19  C17 UNK     1      19.890  -2.923  37.197  1.00  0.00     0.210 C 
ENDBRANCH  16  18
ENDBRANCH   3  12
BRANCH   6  20
HETATM   20  O2  UNK     1      17.723   2.487  33.501  1.00  0.00    -0.350 OA
HETATM   21  C16 UNK     1      18.707   3.295  34.120  1.00  0.00     0.210 C 
ENDBRANCH   6  20
TORSDOF 3
ENDMDL
MODEL 5
REMARK VINA RESULT:      -7.6      5.877      8.486
REMARK  3 active torsions:
REMARK  status: ('A' for Active; 'I' for Inactive)
REMARK    1  A    between atoms: C5_9  and  O2_2 
REMARK    2  A    between atoms: C11_15  and  O3_3 
REMARK    3  A    between atoms: C1_5  and  C4_8 
ROOT
HETATM    1  O1  UNK     1      16.459   5.940  32.454  1.00  0.00    -0.306 OA
HETATM    2  O4  UNK     1      18.844   7.945  35.080  1.00  0.00    -0.284 OA
HETATM    3  C1  UNK     1      17.759   5.530  32.710  1.00  0.00     0.123 A 
HETATM    4  C2  UNK     1      16.741   7.766  34.028  1.00  0.00     0.051 A 
HETATM    5  C3  UNK     1      15.978   7.039  33.117  1.00  0.00     0.090 A 
HETATM    6  C5  UNK     1      18.600   6.147  33.558  1.00  0.00     0.154 A 
HETATM    7  C6  UNK     1      18.123   7.343  34.295  1.00  0.00     0.221 A 
HETATM    8  C8  UNK     1      16.196   8.879  34.674  1.00  0.00     0.018 A 
HETATM    9  C9  UNK     1      14.664   7.420  32.846  1.00  0.00     0.038 A 
HETATM   10  C12 UNK     1      14.882   9.259  34.401  1.00  0.00     0.001 A 
HETATM   11  C13 UNK     1      14.117   8.531  33.489  1.00  0.00     0.003 A 
ENDROOT
BRANCH   3  12
HETATM   12  C4  UNK     1      18.150   4.340  31.932  1.00  0.00     0.003 A 
HETATM   13  C10 UNK     1      18.524   4.474  30.596  1.00  0.00     0.014 A 
HETATM   14  C14 UNK     1      18.895   3.349  29.859  1.00  0.00     0.004 A 
HETATM   15  C15 UNK     1      18.892   2.090  30.460  1.00  0.00     0.037 A 
HETATM   16  C11 UNK     1      18.517   1.955  31.796  1.00  0.00     0.069 A 
HETATM   17  C7  UNK     1      18.146   3.081  32.533  1.00  0.00     0.051 A 
BRANCH  16  18
HETATM   18  O3  UNK     1      18.514   0.728  32.383  1.00  0.00    -0.356 OA
HETATM   19  C17 UNK     1      19.256  -0.304  31.732  1.00  0.00     0.210 C 
ENDBRANCH  16  18
ENDBRANCH   3  12
BRANCH   6  20
HETATM   20  O2  UNK     1      19.897   5.732  33.767  1.00  0.00    -0.350 OA
HETATM   21  C16 UNK     1      20.791   6.424  32.916  1.00  0.00     0.210 C 
ENDBRANCH   6  20
TORSDOF 3
ENDMDL
MODEL 6
REMARK VINA RESULT:      -7.6      5.455      7.069
REMARK  3 active torsions:
REMARK  status: ('A' for Active; 'I' for Inactive)
REMARK    1  A    between atoms: C5_9  and  O2_2 
REMARK    2  A    between atoms: C11_15  and  O3_3 
REMARK    3  A    between atoms: C1_5  and  C4_8 
ROOT
HETATM    1  O1  UNK     1      18.379   4.090  34.481  1.00  0.00    -0.306 OA
HETATM    2  O4  UNK     1      18.228   2.094  30.931  1.00  0.00    -0.284 OA
HETATM    3  C1  UNK     1      18.339   4.767  33.272  1.00  0.00     0.123 A 
HETATM    4  C2  UNK     1      18.300   1.978  33.286  1.00  0.00     0.051 A 
HETATM    5  C3  UNK     1      18.353   2.719  34.465  1.00  0.00     0.090 A 
HETATM    6  C5  UNK     1      18.294   4.172  32.067  1.00  0.00     0.154 A 
HETATM    7  C6  UNK     1      18.269   2.690  32.000  1.00  0.00     0.221 A 
HETATM    8  C8  UNK     1      18.276   0.582  33.331  1.00  0.00     0.018 A 
HETATM    9  C9  UNK     1      18.384   2.067  35.698  1.00  0.00     0.038 A 
HETATM   10  C12 UNK     1      18.307  -0.067  34.565  1.00  0.00     0.001 A 
HETATM   11  C13 UNK     1      18.361   0.673  35.746  1.00  0.00     0.003 A 
ENDROOT
BRANCH   3  12
HETATM   12  C4  UNK     1      18.373   6.232  33.432  1.00  0.00     0.003 A 
HETATM   13  C10 UNK     1      19.458   6.838  34.065  1.00  0.00     0.014 A 
HETATM   14  C14 UNK     1      19.491   8.224  34.217  1.00  0.00     0.004 A 
HETATM   15  C15 UNK     1      18.440   9.004  33.734  1.00  0.00     0.037 A 
HETATM   16  C11 UNK     1      17.355   8.398  33.101  1.00  0.00     0.069 A 
HETATM   17  C7  UNK     1      17.321   7.011  32.950  1.00  0.00     0.051 A 
BRANCH  16  18
HETATM   18  O3  UNK     1      16.330   9.158  32.631  1.00  0.00    -0.356 OA
HETATM   19  C17 UNK     1      15.028   8.884  33.147  1.00  0.00     0.210 C 
ENDBRANCH  16  18
ENDBRANCH   3  12
BRANCH   6  20
HETATM   20  O2  UNK     1      18.287   4.875  30.881  1.00  0.00    -0.350 OA
HETATM   21  C16 UNK     1      19.607   5.160  30.456  1.00  0.00     0.210 C 
ENDBRANCH   6  20
TORSDOF 3
ENDMDL
MODEL 7
REMARK VINA RESULT:      -7.5     25.008     27.201
REMARK  3 active torsions:
REMARK  status: ('A' for Active; 'I' for Inactive)
REMARK    1  A    between atoms: C5_9  and  O2_2 
REMARK    2  A    between atoms: C11_15  and  O3_3 
REMARK    3  A    between atoms: C1_5  and  C4_8 
ROOT
HETATM    1  O1  UNK     1      13.656   8.870   8.142  1.00  0.00    -0.306 OA
HETATM    2  O4  UNK     1      15.435   7.034  11.315  1.00  0.00    -0.284 OA
HETATM    3  C1  UNK     1      13.152   7.693   8.672  1.00  0.00     0.123 A 
HETATM    4  C2  UNK     1      15.424   8.845   9.805  1.00  0.00     0.051 A 
HETATM    5  C3  UNK     1      14.771   9.422   8.717  1.00  0.00     0.090 A 
HETATM    6  C5  UNK     1      13.692   7.032   9.712  1.00  0.00     0.154 A 
HETATM    7  C6  UNK     1      14.901   7.590  10.364  1.00  0.00     0.221 A 
HETATM    8  C8  UNK     1      16.558   9.453  10.350  1.00  0.00     0.018 A 
HETATM    9  C9  UNK     1      15.248  10.612   8.168  1.00  0.00     0.038 A 
HETATM   10  C12 UNK     1      17.033  10.643   9.799  1.00  0.00     0.001 A 
HETATM   11  C13 UNK     1      16.380  11.222   8.710  1.00  0.00     0.003 A 
ENDROOT
BRANCH   3  12
HETATM   12  C4  UNK     1      11.955   7.208   7.961  1.00  0.00     0.003 A 
HETATM   13  C10 UNK     1      12.083   6.623   6.702  1.00  0.00     0.014 A 
HETATM   14  C14 UNK     1      10.951   6.164   6.028  1.00  0.00     0.004 A 
HETATM   15  C15 UNK     1       9.691   6.289   6.615  1.00  0.00     0.037 A 
HETATM   16  C11 UNK     1       9.563   6.874   7.874  1.00  0.00     0.069 A 
HETATM   17  C7  UNK     1      10.696   7.334   8.548  1.00  0.00     0.051 A 
BRANCH  16  18
HETATM   18  O3  UNK     1       8.335   6.996   8.447  1.00  0.00    -0.356 OA
HETATM   19  C17 UNK     1       8.195   7.970   9.481  1.00  0.00     0.210 C 
ENDBRANCH  16  18
ENDBRANCH   3  12
BRANCH   6  20
HETATM   20  O2  UNK     1      13.183   5.846  10.195  1.00  0.00    -0.350 OA
HETATM   21  C16 UNK     1      13.802   4.739   9.568  1.00  0.00     0.210 C 
ENDBRANCH   6  20
TORSDOF 3
ENDMDL
MODEL 8
REMARK VINA RESULT:      -7.4     25.480     27.749
REMARK  3 active torsions:
REMARK  status: ('A' for Active; 'I' for Inactive)
REMARK    1  A    between atoms: C5_9  and  O2_2 
REMARK    2  A    between atoms: C11_15  and  O3_3 
REMARK    3  A    between atoms: C1_5  and  C4_8 
ROOT
HETATM    1  O1  UNK     1      12.774   7.503   7.653  1.00  0.00    -0.306 OA
HETATM    2  O4  UNK     1       9.562   8.288  10.035  1.00  0.00    -0.284 OA
HETATM    3  C1  UNK     1      12.914   8.175   8.858  1.00  0.00     0.123 A 
HETATM    4  C2  UNK     1      10.386   7.324   8.046  1.00  0.00     0.051 A 
HETATM    5  C3  UNK     1      11.523   7.089   7.276  1.00  0.00     0.090 A 
HETATM    6  C5  UNK     1      11.898   8.471   9.688  1.00  0.00     0.154 A 
HETATM    7  C6  UNK     1      10.525   8.047   9.319  1.00  0.00     0.221 A 
HETATM    8  C8  UNK     1       9.135   6.879   7.611  1.00  0.00     0.018 A 
HETATM    9  C9  UNK     1      11.417   6.407   6.065  1.00  0.00     0.038 A 
HETATM   10  C12 UNK     1       9.031   6.197   6.399  1.00  0.00     0.001 A 
HETATM   11  C13 UNK     1      10.169   5.961   5.627  1.00  0.00     0.003 A 
ENDROOT
BRANCH   3  12
HETATM   12  C4  UNK     1      14.308   8.563   9.142  1.00  0.00     0.003 A 
HETATM   13  C10 UNK     1      15.113   7.741   9.930  1.00  0.00     0.014 A 
HETATM   14  C14 UNK     1      16.432   8.108  10.199  1.00  0.00     0.004 A 
HETATM   15  C15 UNK     1      16.946   9.296   9.678  1.00  0.00     0.037 A 
HETATM   16  C11 UNK     1      16.140  10.118   8.890  1.00  0.00     0.069 A 
HETATM   17  C7  UNK     1      14.821   9.751   8.622  1.00  0.00     0.051 A 
BRANCH  16  18
HETATM   18  O3  UNK     1      16.641  11.276   8.382  1.00  0.00    -0.356 OA
HETATM   19  C17 UNK     1      15.845  11.957   7.411  1.00  0.00     0.210 C 
ENDBRANCH  16  18
ENDBRANCH   3  12
BRANCH   6  20
HETATM   20  O2  UNK     1      12.067   9.169  10.864  1.00  0.00    -0.350 OA
HETATM   21  C16 UNK     1      11.796  10.545  10.678  1.00  0.00     0.210 C 
ENDBRANCH   6  20
TORSDOF 3
ENDMDL
MODEL 9
REMARK VINA RESULT:      -7.3      5.206      6.457
REMARK  3 active torsions:
REMARK  status: ('A' for Active; 'I' for Inactive)
REMARK    1  A    between atoms: C5_9  and  O2_2 
REMARK    2  A    between atoms: C11_15  and  O3_3 
REMARK    3  A    between atoms: C1_5  and  C4_8 
ROOT
HETATM    1  O1  UNK     1      18.050   3.442  33.441  1.00  0.00    -0.306 OA
HETATM    2  O4  UNK     1      19.123   2.367  29.659  1.00  0.00    -0.284 OA
HETATM    3  C1  UNK     1      18.184   4.383  32.432  1.00  0.00     0.123 A 
HETATM    4  C2  UNK     1      18.641   1.691  31.867  1.00  0.00     0.051 A 
HETATM    5  C3  UNK     1      18.275   2.123  33.139  1.00  0.00     0.090 A 
HETATM    6  C5  UNK     1      18.540   4.099  31.166  1.00  0.00     0.154 A 
HETATM    7  C6  UNK     1      18.797   2.686  30.795  1.00  0.00     0.221 A 
HETATM    8  C8  UNK     1      18.857   0.333  31.618  1.00  0.00     0.018 A 
HETATM    9  C9  UNK     1      18.121   1.199  34.173  1.00  0.00     0.038 A 
HETATM   10  C12 UNK     1      18.703  -0.589  32.653  1.00  0.00     0.001 A 
HETATM   11  C13 UNK     1      18.336  -0.157  33.928  1.00  0.00     0.003 A 
ENDROOT
BRANCH   3  12
HETATM   12  C4  UNK     1      17.917   5.758  32.889  1.00  0.00     0.003 A 
HETATM   13  C10 UNK     1      16.683   6.352  32.626  1.00  0.00     0.014 A 
HETATM   14  C14 UNK     1      16.428   7.654  33.059  1.00  0.00     0.004 A 
HETATM   15  C15 UNK     1      17.409   8.361  33.757  1.00  0.00     0.037 A 
HETATM   16  C11 UNK     1      18.643   7.767  34.019  1.00  0.00     0.069 A 
HETATM   17  C7  UNK     1      18.897   6.465  33.585  1.00  0.00     0.051 A 
BRANCH  16  18
HETATM   18  O3  UNK     1      19.599   8.456  34.699  1.00  0.00    -0.356 OA
HETATM   19  C17 UNK     1      19.738   9.844  34.396  1.00  0.00     0.210 C 
ENDBRANCH  16  18
ENDBRANCH   3  12
BRANCH   6  20
HETATM   20  O2  UNK     1      18.696   5.063  30.194  1.00  0.00    -0.350 OA
HETATM   21  C16 UNK     1      20.000   5.611  30.230  1.00  0.00     0.210 C 
ENDBRANCH   6  20
TORSDOF 3
ENDMDL
MODEL 10
REMARK VINA RESULT:      -7.3      1.556      5.999
REMARK  3 active torsions:
REMARK  status: ('A' for Active; 'I' for Inactive)
REMARK    1  A    between atoms: C5_9  and  O2_2 
REMARK    2  A    between atoms: C11_15  and  O3_3 
REMARK    3  A    between atoms: C1_5  and  C4_8 
ROOT
HETATM    1  O1  UNK     1      18.282  -0.441  33.318  1.00  0.00    -0.306 OA
HETATM    2  O4  UNK     1      20.409  -2.809  35.863  1.00  0.00    -0.284 OA
HETATM    3  C1  UNK     1      19.347  -1.209  32.872  1.00  0.00     0.123 A 
HETATM    4  C2  UNK     1      18.627  -1.292  35.565  1.00  0.00     0.051 A 
HETATM    5  C3  UNK     1      17.942  -0.502  34.645  1.00  0.00     0.090 A 
HETATM    6  C5  UNK     1      20.094  -2.005  33.657  1.00  0.00     0.154 A 
HETATM    7  C6  UNK     1      19.765  -2.100  35.101  1.00  0.00     0.221 A 
HETATM    8  C8  UNK     1      18.236  -1.314  36.906  1.00  0.00     0.018 A 
HETATM    9  C9  UNK     1      16.860   0.273  35.061  1.00  0.00     0.038 A 
HETATM   10  C12 UNK     1      17.153  -0.538  37.320  1.00  0.00     0.001 A 
HETATM   11  C13 UNK     1      16.466   0.254  36.400  1.00  0.00     0.003 A 
ENDROOT
BRANCH   3  12
HETATM   12  C4  UNK     1      19.605  -1.050  31.430  1.00  0.00     0.003 A 
HETATM   13  C10 UNK     1      20.150  -2.106  30.700  1.00  0.00     0.014 A 
HETATM   14  C14 UNK     1      20.395  -1.957  29.334  1.00  0.00     0.004 A 
HETATM   15  C15 UNK     1      20.094  -0.751  28.700  1.00  0.00     0.037 A 
HETATM   16  C11 UNK     1      19.550   0.305  29.430  1.00  0.00     0.069 A 
HETATM   17  C7  UNK     1      19.306   0.156  30.796  1.00  0.00     0.051 A 
BRANCH  16  18
HETATM   18  O3  UNK     1      19.257   1.481  28.811  1.00  0.00    -0.356 OA
HETATM   19  C17 UNK     1      18.026   2.111  29.165  1.00  0.00     0.210 C 
ENDBRANCH  16  18
ENDBRANCH   3  12
BRANCH   6  20
HETATM   20  O2  UNK     1      21.166  -2.732  33.188  1.00  0.00    -0.350 OA
HETATM   21  C16 UNK     1      22.388  -2.111  33.539  1.00  0.00     0.210 C 
ENDBRANCH   6  20
TORSDOF 3
ENDMDL
