MODEL 1
REMARK VINA RESULT:      -7.4      0.000      0.000
REMARK  2 active torsions:
REMARK  status: ('A' for Active; 'I' for Inactive)
REMARK    1  A    between atoms: C3_9  and  N1_6 
REMARK    2  A    between atoms: C4_10  and  C9_15 
ROOT
HETATM    1  O1  UNK     1      18.626   0.715  33.068  1.00  0.00    -0.275 OA
HETATM    2  O2  UNK     1      18.872  -1.423  33.844  1.00  0.00    -0.260 OA
HETATM    3  C1  UNK     1      19.123   1.201  30.727  1.00  0.00     0.013 A 
HETATM    4  C2  UNK     1      18.714   1.621  31.993  1.00  0.00     0.092 A 
HETATM    5  C3  UNK     1      18.436   3.888  31.241  1.00  0.00     0.032 A 
HETATM    6  C4  UNK     1      19.466  -0.214  30.532  1.00  0.00     0.066 A 
HETATM    7  C5  UNK     1      18.370   2.947  32.264  1.00  0.00     0.067 A 
HETATM    8  C6  UNK     1      19.184   2.164  29.710  1.00  0.00     0.017 A 
HETATM    9  C7  UNK     1      18.843   3.497  29.967  1.00  0.00     0.030 A 
HETATM   10  C8  UNK     1      19.374  -1.054  31.573  1.00  0.00     0.099 A 
HETATM   11  C10 UNK     1      18.942  -0.626  32.914  1.00  0.00     0.289 A 
ENDROOT
BRANCH   6  12
HETATM   12  C9  UNK     1      19.911  -0.697  29.182  1.00  0.00     0.418 C 
HETATM   13  F1  UNK     1      19.926  -2.043  29.136  1.00  0.00    -0.166 F 
HETATM   14  F2  UNK     1      19.082  -0.257  28.216  1.00  0.00    -0.166 F 
HETATM   15  F3  UNK     1      21.152  -0.258  28.897  1.00  0.00    -0.166 F 
ENDBRANCH   6  12
BRANCH   5  16
HETATM   16  N1  UNK     1      18.094   5.232  31.492  1.00  0.00    -0.389 N 
HETATM   17  C11 UNK     1      17.307   5.588  32.651  1.00  0.00     0.149 C 
HETATM   18  C12 UNK     1      18.527   6.284  30.602  1.00  0.00     0.149 C 
ENDBRANCH   5  16
TORSDOF 2
ENDMDL
MODEL 2
REMARK VINA RESULT:      -7.4      2.612      4.584
REMARK  2 active torsions:
REMARK  status: ('A' for Active; 'I' for Inactive)
REMARK    1  A    between atoms: C3_9  and  N1_6 
REMARK    2  A    between atoms: C4_10  and  C9_15 
ROOT
HETATM    1  O1  UNK     1      18.423   1.982  31.747  1.00  0.00    -0.275 OA
HETATM    2  O2  UNK     1      18.317   3.497  30.037  1.00  0.00    -0.260 OA
HETATM    3  C1  UNK     1      19.311  -0.251  31.312  1.00  0.00     0.013 A 
HETATM    4  C2  UNK     1      18.765   0.688  32.187  1.00  0.00     0.092 A 
HETATM    5  C3  UNK     1      18.849  -0.858  34.027  1.00  0.00     0.032 A 
HETATM    6  C4  UNK     1      19.525   0.135  29.911  1.00  0.00     0.066 A 
HETATM    7  C5  UNK     1      18.530   0.403  33.534  1.00  0.00     0.067 A 
HETATM    8  C6  UNK     1      19.626  -1.516  31.828  1.00  0.00     0.017 A 
HETATM    9  C7  UNK     1      19.395  -1.815  33.176  1.00  0.00     0.030 A 
HETATM   10  C8  UNK     1      19.189   1.372  29.519  1.00  0.00     0.099 A 
HETATM   11  C10 UNK     1      18.613   2.374  30.431  1.00  0.00     0.289 A 
ENDROOT
BRANCH   6  12
HETATM   12  C9  UNK     1      20.110  -0.853  28.943  1.00  0.00     0.418 C 
HETATM   13  F1  UNK     1      19.930  -2.115  29.380  1.00  0.00    -0.166 F 
HETATM   14  F2  UNK     1      19.528  -0.744  27.733  1.00  0.00    -0.166 F 
HETATM   15  F3  UNK     1      21.433  -0.651  28.788  1.00  0.00    -0.166 F 
ENDBRANCH   6  12
BRANCH   5  16
HETATM   16  N1  UNK     1      18.620  -1.166  35.384  1.00  0.00    -0.389 N 
HETATM   17  C11 UNK     1      19.465  -2.109  36.079  1.00  0.00     0.149 C 
HETATM   18  C12 UNK     1      17.539  -0.540  36.111  1.00  0.00     0.149 C 
ENDBRANCH   5  16
TORSDOF 2
ENDMDL
MODEL 3
REMARK VINA RESULT:      -7.3     23.599     24.787
REMARK  2 active torsions:
REMARK  status: ('A' for Active; 'I' for Inactive)
REMARK    1  A    between atoms: C3_9  and  N1_6 
REMARK    2  A    between atoms: C4_10  and  C9_15 
ROOT
HETATM    1  O1  UNK     1      10.092   5.324   9.944  1.00  0.00    -0.275 OA
HETATM    2  O2  UNK     1       7.808   5.249  10.036  1.00  0.00    -0.260 OA
HETATM    3  C1  UNK     1      11.184   5.950   7.851  1.00  0.00     0.013 A 
HETATM    4  C2  UNK     1      11.257   5.564   9.189  1.00  0.00     0.092 A 
HETATM    5  C3  UNK     1      13.661   5.623   9.159  1.00  0.00     0.032 A 
HETATM    6  C4  UNK     1       9.859   6.101   7.234  1.00  0.00     0.066 A 
HETATM    7  C5  UNK     1      12.475   5.398   9.852  1.00  0.00     0.067 A 
HETATM    8  C6  UNK     1      12.388   6.171   7.170  1.00  0.00     0.017 A 
HETATM    9  C7  UNK     1      13.617   6.008   7.821  1.00  0.00     0.030 A 
HETATM   10  C8  UNK     1       8.766   5.864   7.975  1.00  0.00     0.099 A 
HETATM   11  C10 UNK     1       8.829   5.458   9.389  1.00  0.00     0.289 A 
ENDROOT
BRANCH   6  12
HETATM   12  C9  UNK     1       9.745   6.513   5.795  1.00  0.00     0.418 C 
HETATM   13  F1  UNK     1      10.033   5.482   4.978  1.00  0.00    -0.166 F 
HETATM   14  F2  UNK     1       8.497   6.934   5.512  1.00  0.00    -0.166 F 
HETATM   15  F3  UNK     1      10.597   7.518   5.512  1.00  0.00    -0.166 F 
ENDBRANCH   6  12
BRANCH   5  16
HETATM   16  N1  UNK     1      14.901   5.461   9.808  1.00  0.00    -0.389 N 
HETATM   17  C11 UNK     1      15.649   6.609  10.267  1.00  0.00     0.149 C 
HETATM   18  C12 UNK     1      15.450   4.144  10.036  1.00  0.00     0.149 C 
ENDBRANCH   5  16
TORSDOF 2
ENDMDL
MODEL 4
REMARK VINA RESULT:      -7.1      3.836      5.469
REMARK  2 active torsions:
REMARK  status: ('A' for Active; 'I' for Inactive)
REMARK    1  A    between atoms: C3_9  and  N1_6 
REMARK    2  A    between atoms: C4_10  and  C9_15 
ROOT
HETATM    1  O1  UNK     1      18.460   1.519  30.804  1.00  0.00    -0.275 OA
HETATM    2  O2  UNK     1      18.630   1.629  28.526  1.00  0.00    -0.260 OA
HETATM    3  C1  UNK     1      18.479   3.586  32.106  1.00  0.00     0.013 A 
HETATM    4  C2  UNK     1      18.409   2.194  32.040  1.00  0.00     0.092 A 
HETATM    5  C3  UNK     1      18.228   2.009  34.431  1.00  0.00     0.032 A 
HETATM    6  C4  UNK     1      18.609   4.343  30.854  1.00  0.00     0.066 A 
HETATM    7  C5  UNK     1      18.285   1.399  33.182  1.00  0.00     0.067 A 
HETATM    8  C6  UNK     1      18.421   4.181  33.373  1.00  0.00     0.017 A 
HETATM    9  C7  UNK     1      18.296   3.397  34.526  1.00  0.00     0.030 A 
HETATM   10  C8  UNK     1      18.656   3.675  29.692  1.00  0.00     0.099 A 
HETATM   11  C10 UNK     1      18.582   2.207  29.608  1.00  0.00     0.289 A 
ENDROOT
BRANCH   6  12
HETATM   12  C9  UNK     1      18.688   5.842  30.890  1.00  0.00     0.418 C 
HETATM   13  F1  UNK     1      18.786   6.346  29.645  1.00  0.00    -0.166 F 
HETATM   14  F2  UNK     1      17.590   6.368  31.468  1.00  0.00    -0.166 F 
HETATM   15  F3  UNK     1      19.763   6.252  31.591  1.00  0.00    -0.166 F 
ENDBRANCH   6  12
BRANCH   5  16
HETATM   16  N1  UNK     1      18.102   1.226  35.596  1.00  0.00    -0.389 N 
HETATM   17  C11 UNK     1      18.563  -0.143  35.617  1.00  0.00     0.149 C 
HETATM   18  C12 UNK     1      17.516   1.776  36.796  1.00  0.00     0.149 C 
ENDBRANCH   5  16
TORSDOF 2
ENDMDL
MODEL 5
REMARK VINA RESULT:      -6.9      3.258      5.159
REMARK  2 active torsions:
REMARK  status: ('A' for Active; 'I' for Inactive)
REMARK    1  A    between atoms: C3_9  and  N1_6 
REMARK    2  A    between atoms: C4_10  and  C9_15 
ROOT
HETATM    1  O1  UNK     1      19.815  -0.993  30.587  1.00  0.00    -0.275 OA
HETATM    2  O2  UNK     1      20.420  -0.868  28.385  1.00  0.00    -0.260 OA
HETATM    3  C1  UNK     1      18.857   0.973  31.676  1.00  0.00     0.013 A 
HETATM    4  C2  UNK     1      19.277  -0.357  31.724  1.00  0.00     0.092 A 
HETATM    5  C3  UNK     1      18.663  -0.553  34.040  1.00  0.00     0.032 A 
HETATM    6  C4  UNK     1      18.988   1.707  30.411  1.00  0.00     0.066 A 
HETATM    7  C5  UNK     1      19.188  -1.126  32.886  1.00  0.00     0.067 A 
HETATM    8  C6  UNK     1      18.332   1.531  32.849  1.00  0.00     0.017 A 
HETATM    9  C7  UNK     1      18.236   0.772  34.022  1.00  0.00     0.030 A 
HETATM   10  C8  UNK     1      19.504   1.078  29.345  1.00  0.00     0.099 A 
HETATM   11  C10 UNK     1      19.951  -0.325  29.380  1.00  0.00     0.289 A 
ENDROOT
BRANCH   6  12
HETATM   12  C9  UNK     1      18.546   3.139  30.327  1.00  0.00     0.418 C 
HETATM   13  F1  UNK     1      19.419   3.947  30.960  1.00  0.00    -0.166 F 
HETATM   14  F2  UNK     1      18.461   3.542  29.044  1.00  0.00    -0.166 F 
HETATM   15  F3  UNK     1      17.336   3.305  30.896  1.00  0.00    -0.166 F 
ENDBRANCH   6  12
BRANCH   5  16
HETATM   16  N1  UNK     1      18.563  -1.312  35.224  1.00  0.00    -0.389 N 
HETATM   17  C11 UNK     1      19.670  -2.125  35.674  1.00  0.00     0.149 C 
HETATM   18  C12 UNK     1      17.356  -1.288  36.018  1.00  0.00     0.149 C 
ENDBRANCH   5  16
TORSDOF 2
ENDMDL
MODEL 6
REMARK VINA RESULT:      -6.9     22.737     23.915
REMARK  2 active torsions:
REMARK  status: ('A' for Active; 'I' for Inactive)
REMARK    1  A    between atoms: C3_9  and  N1_6 
REMARK    2  A    between atoms: C4_10  and  C9_15 
ROOT
HETATM    1  O1  UNK     1      13.967   4.754   8.973  1.00  0.00    -0.275 OA
HETATM    2  O2  UNK     1      15.918   3.914   9.819  1.00  0.00    -0.260 OA
HETATM    3  C1  UNK     1      13.628   7.173   8.927  1.00  0.00     0.013 A 
HETATM    4  C2  UNK     1      13.175   5.880   8.666  1.00  0.00     0.092 A 
HETATM    5  C3  UNK     1      11.102   6.699   7.765  1.00  0.00     0.032 A 
HETATM    6  C4  UNK     1      14.955   7.345   9.534  1.00  0.00     0.066 A 
HETATM    7  C5  UNK     1      11.928   5.628   8.092  1.00  0.00     0.067 A 
HETATM    8  C6  UNK     1      12.782   8.239   8.592  1.00  0.00     0.017 A 
HETATM    9  C7  UNK     1      11.528   8.001   8.015  1.00  0.00     0.030 A 
HETATM   10  C8  UNK     1      15.686   6.257   9.817  1.00  0.00     0.099 A 
HETATM   11  C10 UNK     1      15.222   4.886   9.546  1.00  0.00     0.289 A 
ENDROOT
BRANCH   6  12
HETATM   12  C9  UNK     1      15.470   8.724   9.829  1.00  0.00     0.418 C 
HETATM   13  F1  UNK     1      16.704   8.669  10.366  1.00  0.00    -0.166 F 
HETATM   14  F2  UNK     1      15.538   9.463   8.704  1.00  0.00    -0.166 F 
HETATM   15  F3  UNK     1      14.665   9.364  10.699  1.00  0.00    -0.166 F 
ENDBRANCH   6  12
BRANCH   5  16
HETATM   16  N1  UNK     1       9.839   6.467   7.184  1.00  0.00    -0.389 N 
HETATM   17  C11 UNK     1       8.651   6.402   8.003  1.00  0.00     0.149 C 
HETATM   18  C12 UNK     1       9.703   6.297   5.756  1.00  0.00     0.149 C 
ENDBRANCH   5  16
TORSDOF 2
ENDMDL
MODEL 7
REMARK VINA RESULT:      -6.8      3.879      4.643
REMARK  2 active torsions:
REMARK  status: ('A' for Active; 'I' for Inactive)
REMARK    1  A    between atoms: C3_9  and  N1_6 
REMARK    2  A    between atoms: C4_10  and  C9_15 
ROOT
HETATM    1  O1  UNK     1      18.384   1.074  32.007  1.00  0.00    -0.275 OA
HETATM    2  O2  UNK     1      18.408  -1.181  32.386  1.00  0.00    -0.260 OA
HETATM    3  C1  UNK     1      18.340   2.605  33.911  1.00  0.00     0.013 A 
HETATM    4  C2  UNK     1      18.359   2.381  32.534  1.00  0.00     0.092 A 
HETATM    5  C3  UNK     1      18.332   4.740  32.068  1.00  0.00     0.032 A 
HETATM    6  C4  UNK     1      18.346   1.444  34.811  1.00  0.00     0.066 A 
HETATM    7  C5  UNK     1      18.355   3.427  31.608  1.00  0.00     0.067 A 
HETATM    8  C6  UNK     1      18.317   3.934  34.354  1.00  0.00     0.017 A 
HETATM    9  C7  UNK     1      18.313   4.992  33.438  1.00  0.00     0.030 A 
HETATM   10  C8  UNK     1      18.368   0.212  34.284  1.00  0.00     0.099 A 
HETATM   11  C10 UNK     1      18.389  -0.039  32.833  1.00  0.00     0.289 A 
ENDROOT
BRANCH   6  12
HETATM   12  C9  UNK     1      18.325   1.651  36.298  1.00  0.00     0.418 C 
HETATM   13  F1  UNK     1      19.377   2.393  36.693  1.00  0.00    -0.166 F 
HETATM   14  F2  UNK     1      17.200   2.286  36.680  1.00  0.00    -0.166 F 
HETATM   15  F3  UNK     1      18.378   0.473  36.950  1.00  0.00    -0.166 F 
ENDBRANCH   6  12
BRANCH   5  16
HETATM   16  N1  UNK     1      18.329   5.811  31.151  1.00  0.00    -0.389 N 
HETATM   17  C11 UNK     1      17.484   6.963  31.366  1.00  0.00     0.149 C 
HETATM   18  C12 UNK     1      19.174   5.783  29.980  1.00  0.00     0.149 C 
ENDBRANCH   5  16
TORSDOF 2
ENDMDL
MODEL 8
REMARK VINA RESULT:      -6.8      3.624      5.235
REMARK  2 active torsions:
REMARK  status: ('A' for Active; 'I' for Inactive)
REMARK    1  A    between atoms: C3_9  and  N1_6 
REMARK    2  A    between atoms: C4_10  and  C9_15 
ROOT
HETATM    1  O1  UNK     1      18.733   0.893  33.603  1.00  0.00    -0.275 OA
HETATM    2  O2  UNK     1      18.340   1.301  35.819  1.00  0.00    -0.260 OA
HETATM    3  C1  UNK     1      18.540   2.724  31.998  1.00  0.00     0.013 A 
HETATM    4  C2  UNK     1      18.801   1.384  32.284  1.00  0.00     0.092 A 
HETATM    5  C3  UNK     1      19.226   0.889  29.970  1.00  0.00     0.032 A 
HETATM    6  C4  UNK     1      18.189   3.624  33.105  1.00  0.00     0.066 A 
HETATM    7  C5  UNK     1      19.142   0.463  31.291  1.00  0.00     0.067 A 
HETATM    8  C6  UNK     1      18.630   3.134  30.661  1.00  0.00     0.017 A 
HETATM    9  C7  UNK     1      18.970   2.221  29.655  1.00  0.00     0.030 A 
HETATM   10  C8  UNK     1      18.130   3.130  34.350  1.00  0.00     0.099 A 
HETATM   11  C10 UNK     1      18.404   1.718  34.667  1.00  0.00     0.289 A 
ENDROOT
BRANCH   6  12
HETATM   12  C9  UNK     1      17.902   5.072  32.831  1.00  0.00     0.418 C 
HETATM   13  F1  UNK     1      16.875   5.201  31.968  1.00  0.00    -0.166 F 
HETATM   14  F2  UNK     1      17.576   5.721  33.965  1.00  0.00    -0.166 F 
HETATM   15  F3  UNK     1      18.976   5.684  32.295  1.00  0.00    -0.166 F 
ENDBRANCH   6  12
BRANCH   5  16
HETATM   16  N1  UNK     1      19.569  -0.025  28.952  1.00  0.00    -0.389 N 
HETATM   17  C11 UNK     1      20.803  -0.772  29.017  1.00  0.00     0.149 C 
HETATM   18  C12 UNK     1      18.690  -0.240  27.826  1.00  0.00     0.149 C 
ENDBRANCH   5  16
TORSDOF 2
ENDMDL
MODEL 9
REMARK VINA RESULT:      -6.7      2.864      4.994
REMARK  2 active torsions:
REMARK  status: ('A' for Active; 'I' for Inactive)
REMARK    1  A    between atoms: C3_9  and  N1_6 
REMARK    2  A    between atoms: C4_10  and  C9_15 
ROOT
HETATM    1  O1  UNK     1      18.013   3.300  33.655  1.00  0.00    -0.275 OA
HETATM    2  O2  UNK     1      17.735   5.422  32.848  1.00  0.00    -0.260 OA
HETATM    3  C1  UNK     1      18.479   1.480  32.095  1.00  0.00     0.013 A 
HETATM    4  C2  UNK     1      18.269   1.939  33.395  1.00  0.00     0.092 A 
HETATM    5  C3  UNK     1      18.549  -0.268  34.307  1.00  0.00     0.032 A 
HETATM    6  C4  UNK     1      18.429   2.448  30.990  1.00  0.00     0.066 A 
HETATM    7  C5  UNK     1      18.300   1.087  34.501  1.00  0.00     0.067 A 
HETATM    8  C6  UNK     1      18.729   0.112  31.920  1.00  0.00     0.017 A 
HETATM    9  C7  UNK     1      18.763  -0.754  33.019  1.00  0.00     0.030 A 
HETATM   10  C8  UNK     1      18.182   3.736  31.266  1.00  0.00     0.099 A 
HETATM   11  C10 UNK     1      17.959   4.235  32.634  1.00  0.00     0.289 A 
ENDROOT
BRANCH   6  12
HETATM   12  C9  UNK     1      18.650   1.985  29.579  1.00  0.00     0.418 C 
HETATM   13  F1  UNK     1      17.716   1.084  29.219  1.00  0.00    -0.166 F 
HETATM   14  F2  UNK     1      18.585   3.020  28.718  1.00  0.00    -0.166 F 
HETATM   15  F3  UNK     1      19.860   1.408  29.445  1.00  0.00    -0.166 F 
ENDBRANCH   6  12
BRANCH   5  16
HETATM   16  N1  UNK     1      18.586  -1.145  35.409  1.00  0.00    -0.389 N 
HETATM   17  C11 UNK     1      19.703  -2.040  35.603  1.00  0.00     0.149 C 
HETATM   18  C12 UNK     1      17.510  -1.165  36.374  1.00  0.00     0.149 C 
ENDBRANCH   5  16
TORSDOF 2
ENDMDL
MODEL 10
REMARK VINA RESULT:      -6.7      6.223      8.226
REMARK  2 active torsions:
REMARK  status: ('A' for Active; 'I' for Inactive)
REMARK    1  A    between atoms: C3_9  and  N1_6 
REMARK    2  A    between atoms: C4_10  and  C9_15 
ROOT
HETATM    1  O1  UNK     1      14.812   8.565  32.706  1.00  0.00    -0.275 OA
HETATM    2  O2  UNK     1      13.722   6.782  31.777  1.00  0.00    -0.260 OA
HETATM    3  C1  UNK     1      17.209   8.402  33.147  1.00  0.00     0.013 A 
HETATM    4  C2  UNK     1      16.016   9.124  33.180  1.00  0.00     0.092 A 
HETATM    5  C3  UNK     1      17.102  11.032  34.159  1.00  0.00     0.032 A 
HETATM    6  C4  UNK     1      17.190   7.037  32.605  1.00  0.00     0.066 A 
HETATM    7  C5  UNK     1      15.946  10.427  33.678  1.00  0.00     0.067 A 
HETATM    8  C6  UNK     1      18.363   9.029  33.636  1.00  0.00     0.017 A 
HETATM    9  C7  UNK     1      18.308  10.335  34.139  1.00  0.00     0.030 A 
HETATM   10  C8  UNK     1      16.031   6.529  32.162  1.00  0.00     0.099 A 
HETATM   11  C10 UNK     1      14.764   7.280  32.190  1.00  0.00     0.289 A 
ENDROOT
BRANCH   6  12
HETATM   12  C9  UNK     1      18.458   6.233  32.556  1.00  0.00     0.418 C 
HETATM   13  F1  UNK     1      18.952   6.044  33.795  1.00  0.00    -0.166 F 
HETATM   14  F2  UNK     1      18.239   5.023  32.005  1.00  0.00    -0.166 F 
HETATM   15  F3  UNK     1      19.399   6.860  31.823  1.00  0.00    -0.166 F 
ENDBRANCH   6  12
BRANCH   5  16
HETATM   16  N1  UNK     1      17.054  12.347  34.666  1.00  0.00    -0.389 N 
HETATM   17  C11 UNK     1      17.996  13.345  34.218  1.00  0.00     0.149 C 
HETATM   18  C12 UNK     1      16.057  12.727  35.641  1.00  0.00     0.149 C 
ENDBRANCH   5  16
TORSDOF 2
ENDMDL
