MODEL 1
REMARK VINA RESULT:      -9.2      0.000      0.000
REMARK  1 active torsions:
REMARK  status: ('A' for Active; 'I' for Inactive)
REMARK    1  A    between atoms: C10_15  and  C6_11 
ROOT
HETATM    1  O1  UNK     1      33.096  -5.139  37.737  1.00  0.00    -0.293 OA
HETATM    2  N1  UNK     1      31.827  -7.896  33.995  1.00  0.00    -0.357 N 
HETATM    3  N2  UNK     1      30.082  -5.717  35.114  1.00  0.00    -0.375 N 
HETATM    4  C1  UNK     1      35.137  -6.496  35.050  1.00  0.00    -0.036 C 
HETATM    5  C2  UNK     1      34.139  -7.570  34.588  1.00  0.00     0.067 C 
HETATM    6  C3  UNK     1      34.848  -6.170  36.514  1.00  0.00     0.092 C 
HETATM    7  C4  UNK     1      32.678  -7.239  34.862  1.00  0.00     0.022 C 
HETATM    8  C5  UNK     1      32.326  -6.419  35.875  1.00  0.00     0.037 C 
HETATM    9  C6  UNK     1      30.908  -6.080  36.252  1.00  0.00     0.160 C 
HETATM   10  C7  UNK     1      33.395  -5.838  36.767  1.00  0.00     0.160 C 
HETATM   11  C8  UNK     1      35.035  -5.230  34.176  1.00  0.00     0.015 C 
HETATM   12  C9  UNK     1      36.570  -7.048  34.925  1.00  0.00     0.015 C 
HETATM   13  C11 UNK     1      30.505  -7.620  33.594  1.00  0.00     0.059 A 
HETATM   14  C12 UNK     1      29.720  -6.559  34.074  1.00  0.00     0.055 A 
HETATM   15  C15 UNK     1      29.968  -8.456  32.585  1.00  0.00     0.032 A 
HETATM   16  C16 UNK     1      28.447  -6.348  33.495  1.00  0.00     0.031 A 
HETATM   17  C18 UNK     1      28.704  -8.239  32.042  1.00  0.00     0.002 A 
HETATM   18  C19 UNK     1      27.943  -7.175  32.492  1.00  0.00     0.002 A 
HETATM   19  H12 UNK     1      32.264  -8.656  33.481  1.00  0.00     0.166 HD
HETATM   20  H13 UNK     1      29.504  -4.890  35.237  1.00  0.00     0.160 HD
ENDROOT
BRANCH   9  21
HETATM   21  C10 UNK     1      30.254  -7.148  37.074  1.00  0.00     0.042 A 
HETATM   22  C13 UNK     1      28.847  -6.949  37.507  1.00  0.00     0.195 A 
HETATM   23  O3  UNK     1      28.212  -5.945  37.214  1.00  0.00    -0.287 OA
HETATM   24  C17 UNK     1      28.253  -8.031  38.314  1.00  0.00     0.048 A 
HETATM   25  C20 UNK     1      29.025  -9.153  38.618  1.00  0.00     0.089 A 
HETATM   26  C21 UNK     1      26.937  -7.938  38.771  1.00  0.00     0.018 A 
HETATM   27  O2  UNK     1      30.322  -9.297  38.196  1.00  0.00    -0.321 OA
HETATM   28  C22 UNK     1      28.483 -10.189  39.380  1.00  0.00     0.038 A 
HETATM   29  C14 UNK     1      30.863  -8.282  37.446  1.00  0.00     0.156 A 
HETATM   30  C24 UNK     1      27.167 -10.098  39.836  1.00  0.00     0.003 A 
HETATM   31  C23 UNK     1      26.397  -8.975  39.533  1.00  0.00     0.001 A 
ENDBRANCH   9  21
TORSDOF 1
ENDMDL
MODEL 2
REMARK VINA RESULT:      -9.1      2.362      6.780
REMARK  1 active torsions:
REMARK  status: ('A' for Active; 'I' for Inactive)
REMARK    1  A    between atoms: C10_15  and  C6_11 
ROOT
HETATM    1  O1  UNK     1      27.303  -6.850  35.399  1.00  0.00    -0.293 OA
HETATM    2  N1  UNK     1      31.846  -7.576  36.829  1.00  0.00    -0.357 N 
HETATM    3  N2  UNK     1      30.972  -5.173  35.245  1.00  0.00    -0.375 N 
HETATM    4  C1  UNK     1      28.565  -8.328  38.473  1.00  0.00    -0.036 C 
HETATM    5  C2  UNK     1      29.991  -8.607  37.968  1.00  0.00     0.067 C 
HETATM    6  C3  UNK     1      27.631  -8.277  37.266  1.00  0.00     0.092 C 
HETATM    7  C4  UNK     1      30.469  -7.670  36.866  1.00  0.00     0.022 C 
HETATM    8  C5  UNK     1      29.593  -7.066  36.036  1.00  0.00     0.037 C 
HETATM    9  C6  UNK     1      29.977  -6.170  34.888  1.00  0.00     0.160 C 
HETATM   10  C7  UNK     1      28.117  -7.339  36.184  1.00  0.00     0.160 C 
HETATM   11  C8  UNK     1      28.506  -7.009  39.269  1.00  0.00     0.015 C 
HETATM   12  C9  UNK     1      28.127  -9.471  39.408  1.00  0.00     0.015 C 
HETATM   13  C11 UNK     1      32.701  -6.587  36.304  1.00  0.00     0.059 A 
HETATM   14  C12 UNK     1      32.280  -5.433  35.622  1.00  0.00     0.055 A 
HETATM   15  C15 UNK     1      34.085  -6.762  36.546  1.00  0.00     0.032 A 
HETATM   16  C16 UNK     1      33.255  -4.479  35.250  1.00  0.00     0.031 A 
HETATM   17  C18 UNK     1      35.029  -5.816  36.152  1.00  0.00     0.002 A 
HETATM   18  C19 UNK     1      34.611  -4.664  35.510  1.00  0.00     0.002 A 
HETATM   19  H12 UNK     1      32.326  -8.297  37.360  1.00  0.00     0.166 HD
HETATM   20  H13 UNK     1      30.783  -4.229  34.920  1.00  0.00     0.160 HD
ENDROOT
BRANCH   9  21
HETATM   21  C10 UNK     1      30.394  -6.934  33.668  1.00  0.00     0.042 A 
HETATM   22  C13 UNK     1      30.520  -6.203  32.382  1.00  0.00     0.195 A 
HETATM   23  O3  UNK     1      30.297  -5.004  32.290  1.00  0.00    -0.287 OA
HETATM   24  C17 UNK     1      30.931  -7.004  31.214  1.00  0.00     0.048 A 
HETATM   25  C20 UNK     1      31.173  -8.369  31.378  1.00  0.00     0.089 A 
HETATM   26  C21 UNK     1      31.079  -6.410  29.958  1.00  0.00     0.018 A 
HETATM   27  O2  UNK     1      31.045  -9.004  32.586  1.00  0.00    -0.321 OA
HETATM   28  C22 UNK     1      31.564  -9.146  30.286  1.00  0.00     0.038 A 
HETATM   29  C14 UNK     1      30.661  -8.247  33.665  1.00  0.00     0.156 A 
HETATM   30  C24 UNK     1      31.712  -8.553  29.031  1.00  0.00     0.003 A 
HETATM   31  C23 UNK     1      31.469  -7.188  28.869  1.00  0.00     0.001 A 
ENDBRANCH   9  21
TORSDOF 1
ENDMDL
MODEL 3
REMARK VINA RESULT:      -8.9      2.403      6.624
REMARK  1 active torsions:
REMARK  status: ('A' for Active; 'I' for Inactive)
REMARK    1  A    between atoms: C10_15  and  C6_11 
ROOT
HETATM    1  O1  UNK     1      30.216  -5.355  30.441  1.00  0.00    -0.293 OA
HETATM    2  N1  UNK     1      29.004  -8.701  33.690  1.00  0.00    -0.357 N 
HETATM    3  N2  UNK     1      29.449  -5.807  34.379  1.00  0.00    -0.375 N 
HETATM    4  C1  UNK     1      28.011  -8.229  30.109  1.00  0.00    -0.036 C 
HETATM    5  C2  UNK     1      28.513  -8.987  31.349  1.00  0.00     0.067 C 
HETATM    6  C3  UNK     1      29.126  -7.301  29.630  1.00  0.00     0.092 C 
HETATM    7  C4  UNK     1      29.081  -8.100  32.449  1.00  0.00     0.022 C 
HETATM    8  C5  UNK     1      29.616  -6.893  32.165  1.00  0.00     0.037 C 
HETATM    9  C6  UNK     1      30.248  -5.975  33.178  1.00  0.00     0.160 C 
HETATM   10  C7  UNK     1      29.674  -6.423  30.733  1.00  0.00     0.160 C 
HETATM   11  C8  UNK     1      26.731  -7.430  30.427  1.00  0.00     0.015 C 
HETATM   12  C9  UNK     1      27.679  -9.241  28.996  1.00  0.00     0.015 C 
HETATM   13  C11 UNK     1      29.010  -8.162  34.991  1.00  0.00     0.059 A 
HETATM   14  C12 UNK     1      29.153  -6.799  35.301  1.00  0.00     0.055 A 
HETATM   15  C15 UNK     1      28.797  -9.077  36.050  1.00  0.00     0.032 A 
HETATM   16  C16 UNK     1      29.031  -6.400  36.652  1.00  0.00     0.031 A 
HETATM   17  C18 UNK     1      28.698  -8.662  37.376  1.00  0.00     0.002 A 
HETATM   18  C19 UNK     1      28.806  -7.316  37.678  1.00  0.00     0.002 A 
HETATM   19  H12 UNK     1      28.809  -9.698  33.657  1.00  0.00     0.166 HD
HETATM   20  H13 UNK     1      29.347  -4.851  34.708  1.00  0.00     0.160 HD
ENDROOT
BRANCH   9  21
HETATM   21  C10 UNK     1      31.655  -6.365  33.518  1.00  0.00     0.042 A 
HETATM   22  C13 UNK     1      32.393  -5.556  34.521  1.00  0.00     0.195 A 
HETATM   23  O3  UNK     1      31.889  -4.589  35.074  1.00  0.00    -0.287 OA
HETATM   24  C17 UNK     1      33.773  -5.983  34.815  1.00  0.00     0.048 A 
HETATM   25  C20 UNK     1      34.296  -7.095  34.154  1.00  0.00     0.089 A 
HETATM   26  C21 UNK     1      34.551  -5.287  35.744  1.00  0.00     0.018 A 
HETATM   27  O2  UNK     1      33.578  -7.815  33.234  1.00  0.00    -0.321 OA
HETATM   28  C22 UNK     1      35.600  -7.517  34.418  1.00  0.00     0.038 A 
HETATM   29  C14 UNK     1      32.294  -7.406  32.968  1.00  0.00     0.156 A 
HETATM   30  C24 UNK     1      36.378  -6.823  35.346  1.00  0.00     0.003 A 
HETATM   31  C23 UNK     1      35.854  -5.711  36.006  1.00  0.00     0.001 A 
ENDBRANCH   9  21
TORSDOF 1
ENDMDL
MODEL 4
REMARK VINA RESULT:      -8.9      1.067      1.182
REMARK  1 active torsions:
REMARK  status: ('A' for Active; 'I' for Inactive)
REMARK    1  A    between atoms: C10_15  and  C6_11 
ROOT
HETATM    1  O1  UNK     1      34.111  -5.689  36.598  1.00  0.00    -0.293 OA
HETATM    2  N1  UNK     1      31.836  -8.106  33.106  1.00  0.00    -0.357 N 
HETATM    3  N2  UNK     1      30.716  -5.640  34.414  1.00  0.00    -0.375 N 
HETATM    4  C1  UNK     1      35.467  -7.390  33.683  1.00  0.00    -0.036 C 
HETATM    5  C2  UNK     1      34.226  -8.243  33.377  1.00  0.00     0.067 C 
HETATM    6  C3  UNK     1      35.448  -7.030  35.167  1.00  0.00     0.092 C 
HETATM    7  C4  UNK     1      32.908  -7.637  33.839  1.00  0.00     0.022 C 
HETATM    8  C5  UNK     1      32.862  -6.775  34.878  1.00  0.00     0.037 C 
HETATM    9  C6  UNK     1      31.602  -6.169  35.436  1.00  0.00     0.160 C 
HETATM   10  C7  UNK     1      34.135  -6.423  35.608  1.00  0.00     0.160 C 
HETATM   11  C8  UNK     1      35.496  -6.119  32.810  1.00  0.00     0.015 C 
HETATM   12  C9  UNK     1      36.734  -8.210  33.375  1.00  0.00     0.015 C 
HETATM   13  C11 UNK     1      30.551  -7.573  32.881  1.00  0.00     0.059 A 
HETATM   14  C12 UNK     1      30.060  -6.384  33.446  1.00  0.00     0.055 A 
HETATM   15  C15 UNK     1      29.731  -8.276  31.967  1.00  0.00     0.032 A 
HETATM   16  C16 UNK     1      28.787  -5.923  33.039  1.00  0.00     0.031 A 
HETATM   17  C18 UNK     1      28.471  -7.811  31.596  1.00  0.00     0.002 A 
HETATM   18  C19 UNK     1      28.001  -6.624  32.127  1.00  0.00     0.002 A 
HETATM   19  H12 UNK     1      32.043  -8.931  32.549  1.00  0.00     0.166 HD
HETATM   20  H13 UNK     1      30.332  -4.717  34.600  1.00  0.00     0.160 HD
ENDROOT
BRANCH   9  21
HETATM   21  C10 UNK     1      30.869  -7.098  36.355  1.00  0.00     0.042 A 
HETATM   22  C13 UNK     1      29.774  -6.549  37.195  1.00  0.00     0.195 A 
HETATM   23  O3  UNK     1      29.456  -5.368  37.157  1.00  0.00    -0.287 OA
HETATM   24  C17 UNK     1      29.088  -7.506  38.082  1.00  0.00     0.048 A 
HETATM   25  C20 UNK     1      29.494  -8.841  38.082  1.00  0.00     0.089 A 
HETATM   26  C21 UNK     1      28.045  -7.087  38.912  1.00  0.00     0.018 A 
HETATM   27  O2  UNK     1      30.511  -9.307  37.289  1.00  0.00    -0.321 OA
HETATM   28  C22 UNK     1      28.858  -9.765  38.913  1.00  0.00     0.038 A 
HETATM   29  C14 UNK     1      31.142  -8.405  36.469  1.00  0.00     0.156 A 
HETATM   30  C24 UNK     1      27.816  -9.348  39.743  1.00  0.00     0.003 A 
HETATM   31  C23 UNK     1      27.411  -8.012  39.741  1.00  0.00     0.001 A 
ENDBRANCH   9  21
TORSDOF 1
ENDMDL
MODEL 5
REMARK VINA RESULT:      -8.6      2.004      4.966
REMARK  1 active torsions:
REMARK  status: ('A' for Active; 'I' for Inactive)
REMARK    1  A    between atoms: C10_15  and  C6_11 
ROOT
HETATM    1  O1  UNK     1      29.132  -9.878  32.583  1.00  0.00    -0.293 OA
HETATM    2  N1  UNK     1      30.135  -5.576  34.509  1.00  0.00    -0.357 N 
HETATM    3  N2  UNK     1      31.579  -8.105  35.261  1.00  0.00    -0.375 N 
HETATM    4  C1  UNK     1      29.110  -6.580  31.048  1.00  0.00    -0.036 C 
HETATM    5  C2  UNK     1      29.072  -5.772  32.356  1.00  0.00     0.067 C 
HETATM    6  C3  UNK     1      28.521  -7.963  31.322  1.00  0.00     0.092 C 
HETATM    7  C4  UNK     1      29.696  -6.474  33.555  1.00  0.00     0.022 C 
HETATM    8  C5  UNK     1      29.747  -7.821  33.626  1.00  0.00     0.037 C 
HETATM    9  C6  UNK     1      30.295  -8.599  34.794  1.00  0.00     0.160 C 
HETATM   10  C7  UNK     1      29.156  -8.648  32.512  1.00  0.00     0.160 C 
HETATM   11  C8  UNK     1      30.549  -6.695  30.508  1.00  0.00     0.015 C 
HETATM   12  C9  UNK     1      28.255  -5.864  29.986  1.00  0.00     0.015 C 
HETATM   13  C11 UNK     1      31.092  -5.697  35.535  1.00  0.00     0.059 A 
HETATM   14  C12 UNK     1      31.810  -6.866  35.837  1.00  0.00     0.055 A 
HETATM   15  C15 UNK     1      31.377  -4.521  36.269  1.00  0.00     0.032 A 
HETATM   16  C16 UNK     1      32.816  -6.800  36.829  1.00  0.00     0.031 A 
HETATM   17  C18 UNK     1      32.361  -4.485  37.255  1.00  0.00     0.002 A 
HETATM   18  C19 UNK     1      33.091  -5.627  37.529  1.00  0.00     0.002 A 
HETATM   19  H12 UNK     1      29.777  -4.633  34.387  1.00  0.00     0.166 HD
HETATM   20  H13 UNK     1      32.283  -8.816  35.440  1.00  0.00     0.160 HD
ENDROOT
BRANCH   9  21
HETATM   21  C10 UNK     1      29.318  -8.713  35.925  1.00  0.00     0.042 A 
HETATM   22  C13 UNK     1      29.742  -9.422  37.159  1.00  0.00     0.195 A 
HETATM   23  O3  UNK     1      30.857  -9.910  37.279  1.00  0.00    -0.287 OA
HETATM   24  C17 UNK     1      28.742  -9.507  38.239  1.00  0.00     0.048 A 
HETATM   25  C20 UNK     1      27.485  -8.932  38.047  1.00  0.00     0.089 A 
HETATM   26  C21 UNK     1      29.043 -10.153  39.440  1.00  0.00     0.018 A 
HETATM   27  O2  UNK     1      27.135  -8.285  36.889  1.00  0.00    -0.321 OA
HETATM   28  C22 UNK     1      26.523  -9.000  39.056  1.00  0.00     0.038 A 
HETATM   29  C14 UNK     1      28.075  -8.213  35.892  1.00  0.00     0.156 A 
HETATM   30  C24 UNK     1      26.823  -9.645  40.257  1.00  0.00     0.003 A 
HETATM   31  C23 UNK     1      28.080 -10.221  40.447  1.00  0.00     0.001 A 
ENDBRANCH   9  21
TORSDOF 1
ENDMDL
MODEL 6
REMARK VINA RESULT:      -8.6      2.871      4.881
REMARK  1 active torsions:
REMARK  status: ('A' for Active; 'I' for Inactive)
REMARK    1  A    between atoms: C10_15  and  C6_11 
ROOT
HETATM    1  O1  UNK     1      33.258 -10.202  34.133  1.00  0.00    -0.293 OA
HETATM    2  N1  UNK     1      28.989  -9.730  31.949  1.00  0.00    -0.357 N 
HETATM    3  N2  UNK     1      31.030  -7.526  32.090  1.00  0.00    -0.375 N 
HETATM    4  C1  UNK     1      31.347 -12.630  32.214  1.00  0.00    -0.036 C 
HETATM    5  C2  UNK     1      29.999 -11.893  32.280  1.00  0.00     0.067 C 
HETATM    6  C3  UNK     1      32.191 -12.194  33.410  1.00  0.00     0.092 C 
HETATM    7  C4  UNK     1      30.109 -10.381  32.430  1.00  0.00     0.022 C 
HETATM    8  C5  UNK     1      31.187  -9.814  33.011  1.00  0.00     0.037 C 
HETATM    9  C6  UNK     1      31.356  -8.337  33.250  1.00  0.00     0.160 C 
HETATM   10  C7  UNK     1      32.294 -10.691  33.541  1.00  0.00     0.160 C 
HETATM   11  C8  UNK     1      32.078 -12.332  30.889  1.00  0.00     0.015 C 
HETATM   12  C9  UNK     1      31.098 -14.148  32.292  1.00  0.00     0.015 C 
HETATM   13  C11 UNK     1      28.795  -8.407  31.507  1.00  0.00     0.059 A 
HETATM   14  C12 UNK     1      29.775  -7.401  31.516  1.00  0.00     0.055 A 
HETATM   15  C15 UNK     1      27.523  -8.107  30.963  1.00  0.00     0.032 A 
HETATM   16  C16 UNK     1      29.458  -6.149  30.939  1.00  0.00     0.031 A 
HETATM   17  C18 UNK     1      27.228  -6.860  30.417  1.00  0.00     0.002 A 
HETATM   18  C19 UNK     1      28.203  -5.879  30.396  1.00  0.00     0.002 A 
HETATM   19  H12 UNK     1      28.191 -10.339  31.792  1.00  0.00     0.166 HD
HETATM   20  H13 UNK     1      31.695  -6.789  31.869  1.00  0.00     0.160 HD
ENDROOT
BRANCH   9  21
HETATM   21  C10 UNK     1      30.622  -7.857  34.466  1.00  0.00     0.042 A 
HETATM   22  C13 UNK     1      30.960  -6.521  35.018  1.00  0.00     0.195 A 
HETATM   23  O3  UNK     1      31.814  -5.805  34.512  1.00  0.00    -0.287 OA
HETATM   24  C17 UNK     1      30.210  -6.100  36.215  1.00  0.00     0.048 A 
HETATM   25  C20 UNK     1      29.247  -6.958  36.749  1.00  0.00     0.089 A 
HETATM   26  C21 UNK     1      30.454  -4.860  36.810  1.00  0.00     0.018 A 
HETATM   27  O2  UNK     1      28.966  -8.186  36.206  1.00  0.00    -0.321 OA
HETATM   28  C22 UNK     1      28.524  -6.580  37.881  1.00  0.00     0.038 A 
HETATM   29  C14 UNK     1      29.673  -8.565  35.092  1.00  0.00     0.156 A 
HETATM   30  C24 UNK     1      28.767  -5.341  38.477  1.00  0.00     0.003 A 
HETATM   31  C23 UNK     1      29.731  -4.484  37.942  1.00  0.00     0.001 A 
ENDBRANCH   9  21
TORSDOF 1
ENDMDL
MODEL 7
REMARK VINA RESULT:      -8.4      2.289      6.176
REMARK  1 active torsions:
REMARK  status: ('A' for Active; 'I' for Inactive)
REMARK    1  A    between atoms: C10_15  and  C6_11 
ROOT
HETATM    1  O1  UNK     1      31.234  -8.659  38.089  1.00  0.00    -0.293 OA
HETATM    2  N1  UNK     1      30.476  -5.469  34.559  1.00  0.00    -0.357 N 
HETATM    3  N2  UNK     1      30.252  -8.444  34.179  1.00  0.00    -0.375 N 
HETATM    4  C1  UNK     1      29.709  -5.359  38.224  1.00  0.00    -0.036 C 
HETATM    5  C2  UNK     1      30.252  -4.854  36.877  1.00  0.00     0.067 C 
HETATM    6  C3  UNK     1      30.643  -6.454  38.737  1.00  0.00     0.092 C 
HETATM    7  C4  UNK     1      30.530  -5.946  35.854  1.00  0.00     0.022 C 
HETATM    8  C5  UNK     1      30.825  -7.206  36.240  1.00  0.00     0.037 C 
HETATM    9  C6  UNK     1      31.166  -8.334  35.302  1.00  0.00     0.160 C 
HETATM   10  C7  UNK     1      30.904  -7.534  37.711  1.00  0.00     0.160 C 
HETATM   11  C8  UNK     1      28.269  -5.891  38.078  1.00  0.00     0.015 C 
HETATM   12  C9  UNK     1      29.689  -4.195  39.231  1.00  0.00     0.015 C 
HETATM   13  C11 UNK     1      30.261  -6.122  33.330  1.00  0.00     0.059 A 
HETATM   14  C12 UNK     1      30.092  -7.507  33.170  1.00  0.00     0.055 A 
HETATM   15  C15 UNK     1      30.154  -5.292  32.188  1.00  0.00     0.032 A 
HETATM   16  C16 UNK     1      29.777  -8.002  31.883  1.00  0.00     0.031 A 
HETATM   17  C18 UNK     1      29.862  -5.805  30.926  1.00  0.00     0.002 A 
HETATM   18  C19 UNK     1      29.662  -7.165  30.774  1.00  0.00     0.002 A 
HETATM   19  H12 UNK     1      30.495  -4.455  34.489  1.00  0.00     0.166 HD
HETATM   20  H13 UNK     1      29.927  -9.383  33.968  1.00  0.00     0.160 HD
ENDROOT
BRANCH   9  21
HETATM   21  C10 UNK     1      32.589  -8.291  34.836  1.00  0.00     0.042 A 
HETATM   22  C13 UNK     1      33.130  -9.462  34.099  1.00  0.00     0.195 A 
HETATM   23  O3  UNK     1      32.451 -10.452  33.863  1.00  0.00    -0.287 OA
HETATM   24  C17 UNK     1      34.536  -9.368  33.665  1.00  0.00     0.048 A 
HETATM   25  C20 UNK     1      35.262  -8.213  33.962  1.00  0.00     0.089 A 
HETATM   26  C21 UNK     1      35.138 -10.416  32.965  1.00  0.00     0.018 A 
HETATM   27  O2  UNK     1      34.722  -7.154  34.645  1.00  0.00    -0.321 OA
HETATM   28  C22 UNK     1      36.594  -8.102  33.560  1.00  0.00     0.038 A 
HETATM   29  C14 UNK     1      33.413  -7.255  35.044  1.00  0.00     0.156 A 
HETATM   30  C24 UNK     1      37.196  -9.149  32.861  1.00  0.00     0.003 A 
HETATM   31  C23 UNK     1      36.469 -10.303  32.565  1.00  0.00     0.001 A 
ENDBRANCH   9  21
TORSDOF 1
ENDMDL
MODEL 8
REMARK VINA RESULT:      -8.3      2.516      6.623
REMARK  1 active torsions:
REMARK  status: ('A' for Active; 'I' for Inactive)
REMARK    1  A    between atoms: C10_15  and  C6_11 
ROOT
HETATM    1  O1  UNK     1      26.153  -9.396  36.207  1.00  0.00    -0.293 OA
HETATM    2  N1  UNK     1      30.787  -8.281  36.911  1.00  0.00    -0.357 N 
HETATM    3  N2  UNK     1      29.011  -6.829  34.967  1.00  0.00    -0.375 N 
HETATM    4  C1  UNK     1      28.120  -9.453  39.266  1.00  0.00    -0.036 C 
HETATM    5  C2  UNK     1      29.502  -9.432  38.593  1.00  0.00     0.067 C 
HETATM    6  C3  UNK     1      27.114 -10.042  38.278  1.00  0.00     0.092 C 
HETATM    7  C4  UNK     1      29.532  -8.765  37.225  1.00  0.00     0.022 C 
HETATM    8  C5  UNK     1      28.430  -8.722  36.445  1.00  0.00     0.037 C 
HETATM    9  C6  UNK     1      28.381  -8.134  35.059  1.00  0.00     0.160 C 
HETATM   10  C7  UNK     1      27.153  -9.365  36.926  1.00  0.00     0.160 C 
HETATM   11  C8  UNK     1      27.693  -8.038  39.705  1.00  0.00     0.015 C 
HETATM   12  C9  UNK     1      28.181 -10.344  40.521  1.00  0.00     0.015 C 
HETATM   13  C11 UNK     1      31.206  -7.285  36.009  1.00  0.00     0.059 A 
HETATM   14  C12 UNK     1      30.359  -6.564  35.150  1.00  0.00     0.055 A 
HETATM   15  C15 UNK     1      32.584  -6.960  36.027  1.00  0.00     0.032 A 
HETATM   16  C16 UNK     1      30.916  -5.519  34.378  1.00  0.00     0.031 A 
HETATM   17  C18 UNK     1      33.113  -5.938  35.243  1.00  0.00     0.002 A 
HETATM   18  C19 UNK     1      32.274  -5.206  34.422  1.00  0.00     0.002 A 
HETATM   19  H12 UNK     1      31.529  -8.636  37.508  1.00  0.00     0.166 HD
HETATM   20  H13 UNK     1      28.486  -6.123  34.457  1.00  0.00     0.160 HD
ENDROOT
BRANCH   9  21
HETATM   21  C10 UNK     1      28.916  -9.065  34.014  1.00  0.00     0.042 A 
HETATM   22  C13 UNK     1      28.720  -8.715  32.584  1.00  0.00     0.195 A 
HETATM   23  O3  UNK     1      28.140  -7.695  32.239  1.00  0.00    -0.287 OA
HETATM   24  C17 UNK     1      29.264  -9.666  31.598  1.00  0.00     0.048 A 
HETATM   25  C20 UNK     1      29.917 -10.813  32.051  1.00  0.00     0.089 A 
HETATM   26  C21 UNK     1      29.131  -9.427  30.228  1.00  0.00     0.018 A 
HETATM   27  O2  UNK     1      30.077 -11.098  33.383  1.00  0.00    -0.321 OA
HETATM   28  C22 UNK     1      30.441 -11.727  31.135  1.00  0.00     0.038 A 
HETATM   29  C14 UNK     1      29.565 -10.204  34.290  1.00  0.00     0.156 A 
HETATM   30  C24 UNK     1      30.308 -11.489  29.766  1.00  0.00     0.003 A 
HETATM   31  C23 UNK     1      29.655 -10.342  29.315  1.00  0.00     0.001 A 
ENDBRANCH   9  21
TORSDOF 1
ENDMDL
MODEL 9
REMARK VINA RESULT:      -8.2      2.518      3.844
REMARK  1 active torsions:
REMARK  status: ('A' for Active; 'I' for Inactive)
REMARK    1  A    between atoms: C10_15  and  C6_11 
ROOT
HETATM    1  O1  UNK     1      34.780  -7.735  34.148  1.00  0.00    -0.293 OA
HETATM    2  N1  UNK     1      30.534  -9.241  32.441  1.00  0.00    -0.357 N 
HETATM    3  N2  UNK     1      31.393  -6.358  32.437  1.00  0.00    -0.375 N 
HETATM    4  C1  UNK     1      33.943 -10.793  32.365  1.00  0.00    -0.036 C 
HETATM    5  C2  UNK     1      32.424 -10.727  32.596  1.00  0.00     0.067 C 
HETATM    6  C3  UNK     1      34.631 -10.007  33.480  1.00  0.00     0.092 C 
HETATM    7  C4  UNK     1      31.870  -9.320  32.782  1.00  0.00     0.022 C 
HETATM    8  C5  UNK     1      32.643  -8.324  33.263  1.00  0.00     0.037 C 
HETATM    9  C6  UNK     1      32.167  -6.920  33.530  1.00  0.00     0.160 C 
HETATM   10  C7  UNK     1      34.074  -8.611  33.647  1.00  0.00     0.160 C 
HETATM   11  C8  UNK     1      34.319 -10.227  30.981  1.00  0.00     0.015 C 
HETATM   12  C9  UNK     1      34.400 -12.262  32.421  1.00  0.00     0.015 C 
HETATM   13  C11 UNK     1      29.729  -8.148  32.064  1.00  0.00     0.059 A 
HETATM   14  C12 UNK     1      30.158  -6.812  32.002  1.00  0.00     0.055 A 
HETATM   15  C15 UNK     1      28.404  -8.452  31.666  1.00  0.00     0.032 A 
HETATM   16  C16 UNK     1      29.260  -5.840  31.501  1.00  0.00     0.031 A 
HETATM   17  C18 UNK     1      27.532  -7.474  31.194  1.00  0.00     0.002 A 
HETATM   18  C19 UNK     1      27.965  -6.164  31.101  1.00  0.00     0.002 A 
HETATM   19  H12 UNK     1      30.075 -10.143  32.349  1.00  0.00     0.166 HD
HETATM   20  H13 UNK     1      31.636  -5.408  32.170  1.00  0.00     0.160 HD
ENDROOT
BRANCH   9  21
HETATM   21  C10 UNK     1      31.433  -6.793  34.830  1.00  0.00     0.042 A 
HETATM   22  C13 UNK     1      31.341  -5.454  35.465  1.00  0.00     0.195 A 
HETATM   23  O3  UNK     1      31.842  -4.458  34.960  1.00  0.00    -0.287 OA
HETATM   24  C17 UNK     1      30.610  -5.386  36.744  1.00  0.00     0.048 A 
HETATM   25  C20 UNK     1      30.059  -6.554  37.273  1.00  0.00     0.089 A 
HETATM   26  C21 UNK     1      30.467  -4.172  37.420  1.00  0.00     0.018 A 
HETATM   27  O2  UNK     1      30.167  -7.772  36.652  1.00  0.00    -0.321 OA
HETATM   28  C22 UNK     1      29.361  -6.513  38.481  1.00  0.00     0.038 A 
HETATM   29  C14 UNK     1      30.851  -7.821  35.463  1.00  0.00     0.156 A 
HETATM   30  C24 UNK     1      29.218  -5.300  39.158  1.00  0.00     0.003 A 
HETATM   31  C23 UNK     1      29.771  -4.133  38.628  1.00  0.00     0.001 A 
ENDBRANCH   9  21
TORSDOF 1
ENDMDL
MODEL 10
REMARK VINA RESULT:      -8.1      2.610      5.795
REMARK  1 active torsions:
REMARK  status: ('A' for Active; 'I' for Inactive)
REMARK    1  A    between atoms: C10_15  and  C6_11 
ROOT
HETATM    1  O1  UNK     1      29.935  -9.022  38.192  1.00  0.00    -0.293 OA
HETATM    2  N1  UNK     1      29.819  -5.781  34.628  1.00  0.00    -0.357 N 
HETATM    3  N2  UNK     1      28.804  -8.598  34.339  1.00  0.00    -0.375 N 
HETATM    4  C1  UNK     1      29.334  -5.437  38.327  1.00  0.00    -0.036 C 
HETATM    5  C2  UNK     1      29.905  -5.105  36.938  1.00  0.00     0.067 C 
HETATM    6  C3  UNK     1      29.980  -6.732  38.814  1.00  0.00     0.092 C 
HETATM    7  C4  UNK     1      29.826  -6.243  35.930  1.00  0.00     0.022 C 
HETATM    8  C5  UNK     1      29.806  -7.532  36.331  1.00  0.00     0.037 C 
HETATM    9  C6  UNK     1      29.783  -8.720  35.406  1.00  0.00     0.160 C 
HETATM   10  C7  UNK     1      29.886  -7.853  37.803  1.00  0.00     0.160 C 
HETATM   11  C8  UNK     1      27.799  -5.575  38.276  1.00  0.00     0.015 C 
HETATM   12  C9  UNK     1      29.679  -4.297  39.303  1.00  0.00     0.015 C 
HETATM   13  C11 UNK     1      29.366  -6.369  33.430  1.00  0.00     0.059 A 
HETATM   14  C12 UNK     1      28.832  -7.663  33.317  1.00  0.00     0.055 A 
HETATM   15  C15 UNK     1      29.409  -5.552  32.275  1.00  0.00     0.032 A 
HETATM   16  C16 UNK     1      28.320  -8.071  32.063  1.00  0.00     0.031 A 
HETATM   17  C18 UNK     1      28.916  -5.983  31.046  1.00  0.00     0.002 A 
HETATM   18  C19 UNK     1      28.360  -7.245  30.941  1.00  0.00     0.002 A 
HETATM   19  H12 UNK     1      30.097  -4.809  34.531  1.00  0.00     0.166 HD
HETATM   20  H13 UNK     1      28.233  -9.422  34.172  1.00  0.00     0.160 HD
ENDROOT
BRANCH   9  21
HETATM   21  C10 UNK     1      31.136  -9.056  34.859  1.00  0.00     0.042 A 
HETATM   22  C13 UNK     1      31.292 -10.302  34.066  1.00  0.00     0.195 A 
HETATM   23  O3  UNK     1      30.353 -11.056  33.849  1.00  0.00    -0.287 OA
HETATM   24  C17 UNK     1      32.645 -10.585  33.554  1.00  0.00     0.048 A 
HETATM   25  C20 UNK     1      33.678  -9.689  33.833  1.00  0.00     0.089 A 
HETATM   26  C21 UNK     1      32.895 -11.733  32.798  1.00  0.00     0.018 A 
HETATM   27  O2  UNK     1      33.490  -8.547  34.569  1.00  0.00    -0.321 OA
HETATM   28  C22 UNK     1      34.966  -9.937  33.357  1.00  0.00     0.038 A 
HETATM   29  C14 UNK     1      32.225  -8.296  35.041  1.00  0.00     0.156 A 
HETATM   30  C24 UNK     1      35.217 -11.083  32.601  1.00  0.00     0.003 A 
HETATM   31  C23 UNK     1      34.184 -11.978  32.323  1.00  0.00     0.001 A 
ENDBRANCH   9  21
TORSDOF 1
ENDMDL
