MODEL 1
REMARK VINA RESULT:      -9.1      0.000      0.000
REMARK  5 active torsions:
REMARK  status: ('A' for Active; 'I' for Inactive)
REMARK    1  A    between atoms: C12_20  and  O1_1 
REMARK    2  A    between atoms: N1_8  and  O1_1 
REMARK    3  A    between atoms: C16_24  and  O7_7 
REMARK    4  A    between atoms: C2_10  and  C6_14 
REMARK    5  A    between atoms: C12_20  and  C6_14 
ROOT
HETATM    1  O2  UNK     1      16.848   7.970  32.938  1.00  0.00    -0.274 OA
HETATM    2  O5  UNK     1      15.847   6.046  32.268  1.00  0.00    -0.259 OA
HETATM    3  C1  UNK     1      19.193   6.487  33.499  1.00  0.00    -0.036 A 
HETATM    4  C2  UNK     1      18.093   5.853  33.040  1.00  0.00     0.034 A 
HETATM    5  C5  UNK     1      19.145   7.944  33.738  1.00  0.00     0.005 A 
HETATM    6  C9  UNK     1      17.973   8.636  33.448  1.00  0.00     0.092 A 
HETATM    7  C10 UNK     1      16.844   6.603  32.719  1.00  0.00     0.295 A 
HETATM    8  C11 UNK     1      20.504   5.793  33.776  1.00  0.00     0.050 C 
HETATM    9  C13 UNK     1      20.215   8.690  34.258  1.00  0.00     0.017 A 
HETATM   10  C14 UNK     1      17.844  10.013  33.644  1.00  0.00     0.074 A 
HETATM   11  C15 UNK     1      20.103  10.071  34.462  1.00  0.00     0.037 A 
HETATM   12  C16 UNK     1      18.918  10.732  34.154  1.00  0.00     0.068 A 
ENDROOT
BRANCH   4  13
HETATM   13  C6  UNK     1      17.985   4.367  32.814  1.00  0.00     0.158 C 
BRANCH  13  14
HETATM   14  C12 UNK     1      18.321   4.029  31.385  1.00  0.00     0.286 C 
HETATM   15  O6  UNK     1      19.136   4.603  30.677  1.00  0.00    -0.263 OA
BRANCH  14  16
HETATM   16  O1  UNK     1      17.558   2.953  31.021  1.00  0.00    -0.187 OA
BRANCH  16  17
HETATM   17  N1  UNK     1      18.350   1.926  30.460  1.00  0.00    -0.145 N 
HETATM   18  C7  UNK     1      18.964   0.996  31.238  1.00  0.00     0.251 A 
HETATM   19  C3  UNK     1      19.733   0.100  30.304  1.00  0.00     0.115 A 
HETATM   20  O3  UNK     1      18.936   0.879  32.452  1.00  0.00    -0.271 OA
HETATM   21  C4  UNK     1      19.409   0.617  28.900  1.00  0.00     0.115 A 
HETATM   22  C8  UNK     1      18.474   1.776  29.116  1.00  0.00     0.251 A 
HETATM   23  O4  UNK     1      17.959   2.433  28.225  1.00  0.00    -0.271 OA
ENDBRANCH  16  17
ENDBRANCH  14  16
ENDBRANCH  13  14
ENDBRANCH   4  13
BRANCH  12  24
HETATM   24  O7  UNK     1      18.811  12.073  34.353  1.00  0.00    -0.361 OA
HETATM   25  H13 UNK     1      19.704  12.456  34.404  1.00  0.00     0.217 HD
ENDBRANCH  12  24
TORSDOF 5
ENDMDL
MODEL 2
REMARK VINA RESULT:      -8.7      2.257      8.087
REMARK  5 active torsions:
REMARK  status: ('A' for Active; 'I' for Inactive)
REMARK    1  A    between atoms: C12_20  and  O1_1 
REMARK    2  A    between atoms: N1_8  and  O1_1 
REMARK    3  A    between atoms: C16_24  and  O7_7 
REMARK    4  A    between atoms: C2_10  and  C6_14 
REMARK    5  A    between atoms: C12_20  and  C6_14 
ROOT
HETATM    1  O2  UNK     1      18.837   0.682  32.685  1.00  0.00    -0.274 OA
HETATM    2  O5  UNK     1      17.932   2.337  33.949  1.00  0.00    -0.259 OA
HETATM    3  C1  UNK     1      18.706   2.403  30.441  1.00  0.00    -0.036 A 
HETATM    4  C2  UNK     1      18.247   2.826  31.638  1.00  0.00     0.034 A 
HETATM    5  C5  UNK     1      19.237   1.031  30.311  1.00  0.00     0.005 A 
HETATM    6  C9  UNK     1      19.286   0.217  31.439  1.00  0.00     0.092 A 
HETATM    7  C10 UNK     1      18.314   1.954  32.846  1.00  0.00     0.295 A 
HETATM    8  C11 UNK     1      18.728   3.263  29.202  1.00  0.00     0.050 C 
HETATM    9  C13 UNK     1      19.694   0.476  29.105  1.00  0.00     0.017 A 
HETATM   10  C14 UNK     1      19.773  -1.092  31.403  1.00  0.00     0.074 A 
HETATM   11  C15 UNK     1      20.185  -0.834  29.049  1.00  0.00     0.037 A 
HETATM   12  C16 UNK     1      20.226  -1.617  30.199  1.00  0.00     0.068 A 
ENDROOT
BRANCH   4  13
HETATM   13  C6  UNK     1      17.623   4.174  31.895  1.00  0.00     0.158 C 
BRANCH  13  14
HETATM   14  C12 UNK     1      18.675   5.167  32.313  1.00  0.00     0.286 C 
HETATM   15  O6  UNK     1      19.639   5.524  31.650  1.00  0.00    -0.263 OA
BRANCH  14  16
HETATM   16  O1  UNK     1      18.354   5.613  33.566  1.00  0.00    -0.187 OA
BRANCH  16  17
HETATM   17  N1  UNK     1      18.042   6.991  33.559  1.00  0.00    -0.145 N 
HETATM   18  C7  UNK     1      16.770   7.432  33.377  1.00  0.00     0.251 A 
HETATM   19  C3  UNK     1      16.833   8.935  33.396  1.00  0.00     0.115 A 
HETATM   20  O3  UNK     1      15.752   6.778  33.215  1.00  0.00    -0.271 OA
HETATM   21  C4  UNK     1      18.300   9.269  33.680  1.00  0.00     0.115 A 
HETATM   22  C8  UNK     1      18.987   7.936  33.807  1.00  0.00     0.251 A 
HETATM   23  O4  UNK     1      20.168   7.781  34.072  1.00  0.00    -0.271 OA
ENDBRANCH  16  17
ENDBRANCH  14  16
ENDBRANCH  13  14
ENDBRANCH   4  13
BRANCH  12  24
HETATM   24  O7  UNK     1      20.703  -2.889  30.144  1.00  0.00    -0.361 OA
HETATM   25  H13 UNK     1      20.862  -3.125  29.213  1.00  0.00     0.217 HD
ENDBRANCH  12  24
TORSDOF 5
ENDMDL
MODEL 3
REMARK VINA RESULT:      -8.3     13.771     19.552
REMARK  5 active torsions:
REMARK  status: ('A' for Active; 'I' for Inactive)
REMARK    1  A    between atoms: C12_20  and  O1_1 
REMARK    2  A    between atoms: N1_8  and  O1_1 
REMARK    3  A    between atoms: C16_24  and  O7_7 
REMARK    4  A    between atoms: C2_10  and  C6_14 
REMARK    5  A    between atoms: C12_20  and  C6_14 
ROOT
HETATM    1  O2  UNK     1      17.421  -4.693  15.386  1.00  0.00    -0.274 OA
HETATM    2  O5  UNK     1      16.755  -2.862  16.551  1.00  0.00    -0.259 OA
HETATM    3  C1  UNK     1      19.631  -3.207  14.427  1.00  0.00    -0.036 A 
HETATM    4  C2  UNK     1      18.731  -2.618  15.242  1.00  0.00     0.034 A 
HETATM    5  C5  UNK     1      19.428  -4.611  14.015  1.00  0.00     0.005 A 
HETATM    6  C9  UNK     1      18.330  -5.307  14.511  1.00  0.00     0.092 A 
HETATM    7  C10 UNK     1      17.563  -3.373  15.781  1.00  0.00     0.295 A 
HETATM    8  C11 UNK     1      20.867  -2.516  13.907  1.00  0.00     0.050 C 
HETATM    9  C13 UNK     1      20.276  -5.302  13.134  1.00  0.00     0.017 A 
HETATM   10  C14 UNK     1      18.065  -6.636  14.172  1.00  0.00     0.074 A 
HETATM   11  C15 UNK     1      20.027  -6.634  12.783  1.00  0.00     0.037 A 
HETATM   12  C16 UNK     1      18.922  -7.301  13.304  1.00  0.00     0.068 A 
ENDROOT
BRANCH   4  13
HETATM   13  C6  UNK     1      18.782  -1.179  15.687  1.00  0.00     0.158 C 
BRANCH  13  14
HETATM   14  C12 UNK     1      19.171  -1.092  17.139  1.00  0.00     0.286 C 
HETATM   15  O6  UNK     1      20.189  -1.543  17.645  1.00  0.00    -0.263 OA
BRANCH  14  16
HETATM   16  O1  UNK     1      18.185  -0.407  17.795  1.00  0.00    -0.187 OA
BRANCH  16  17
HETATM   17  N1  UNK     1      18.709   0.696  18.506  1.00  0.00    -0.145 N 
HETATM   18  C7  UNK     1      18.967   1.881  17.893  1.00  0.00     0.251 A 
HETATM   19  C3  UNK     1      19.541   2.790  18.946  1.00  0.00     0.115 A 
HETATM   20  O3  UNK     1      18.796   2.187  16.724  1.00  0.00    -0.271 OA
HETATM   21  C4  UNK     1      19.504   1.973  20.240  1.00  0.00     0.115 A 
HETATM   22  C8  UNK     1      18.911   0.647  19.849  1.00  0.00     0.251 A 
HETATM   23  O4  UNK     1      18.683  -0.271  20.620  1.00  0.00    -0.271 OA
ENDBRANCH  16  17
ENDBRANCH  14  16
ENDBRANCH  13  14
ENDBRANCH   4  13
BRANCH  12  24
HETATM   24  O7  UNK     1      18.681  -8.595  12.962  1.00  0.00    -0.361 OA
HETATM   25  H13 UNK     1      17.831  -8.869  13.349  1.00  0.00     0.217 HD
ENDBRANCH  12  24
TORSDOF 5
ENDMDL
MODEL 4
REMARK VINA RESULT:      -8.3      2.184      8.160
REMARK  5 active torsions:
REMARK  status: ('A' for Active; 'I' for Inactive)
REMARK    1  A    between atoms: C12_20  and  O1_1 
REMARK    2  A    between atoms: N1_8  and  O1_1 
REMARK    3  A    between atoms: C16_24  and  O7_7 
REMARK    4  A    between atoms: C2_10  and  C6_14 
REMARK    5  A    between atoms: C12_20  and  C6_14 
ROOT
HETATM    1  O2  UNK     1      19.192   0.652  28.833  1.00  0.00    -0.274 OA
HETATM    2  O5  UNK     1      18.235   2.639  28.294  1.00  0.00    -0.259 OA
HETATM    3  C1  UNK     1      18.723   1.233  31.564  1.00  0.00    -0.036 A 
HETATM    4  C2  UNK     1      18.368   2.128  30.618  1.00  0.00     0.034 A 
HETATM    5  C5  UNK     1      19.388  -0.023  31.162  1.00  0.00     0.005 A 
HETATM    6  C9  UNK     1      19.599  -0.271  29.809  1.00  0.00     0.092 A 
HETATM    7  C10 UNK     1      18.584   1.850  29.168  1.00  0.00     0.295 A 
HETATM    8  C11 UNK     1      18.467   1.428  33.038  1.00  0.00     0.050 C 
HETATM    9  C13 UNK     1      19.841  -0.997  32.067  1.00  0.00     0.017 A 
HETATM   10  C14 UNK     1      20.219  -1.434  29.344  1.00  0.00     0.074 A 
HETATM   11  C15 UNK     1      20.466  -2.167  31.620  1.00  0.00     0.037 A 
HETATM   12  C16 UNK     1      20.653  -2.386  30.259  1.00  0.00     0.068 A 
ENDROOT
BRANCH   4  13
HETATM   13  C6  UNK     1      17.742   3.472  30.893  1.00  0.00     0.158 C 
BRANCH  13  14
HETATM   14  C12 UNK     1      18.807   4.497  31.177  1.00  0.00     0.286 C 
HETATM   15  O6  UNK     1      19.492   5.080  30.348  1.00  0.00    -0.263 OA
BRANCH  14  16
HETATM   16  O1  UNK     1      18.867   4.672  32.533  1.00  0.00    -0.187 OA
BRANCH  16  17
HETATM   17  N1  UNK     1      18.796   6.040  32.880  1.00  0.00    -0.145 N 
HETATM   18  C7  UNK     1      19.915   6.772  33.123  1.00  0.00     0.251 A 
HETATM   19  C3  UNK     1      19.448   8.154  33.490  1.00  0.00     0.115 A 
HETATM   20  O3  UNK     1      21.082   6.417  33.078  1.00  0.00    -0.271 OA
HETATM   21  C4  UNK     1      17.924   8.110  33.352  1.00  0.00     0.115 A 
HETATM   22  C8  UNK     1      17.612   6.705  32.914  1.00  0.00     0.251 A 
HETATM   23  O4  UNK     1      16.494   6.285  32.660  1.00  0.00    -0.271 OA
ENDBRANCH  16  17
ENDBRANCH  14  16
ENDBRANCH  13  14
ENDBRANCH   4  13
BRANCH  12  24
HETATM   24  O7  UNK     1      21.261  -3.523  29.826  1.00  0.00    -0.361 OA
HETATM   25  H13 UNK     1      21.704  -3.949  30.579  1.00  0.00     0.217 HD
ENDBRANCH  12  24
TORSDOF 5
ENDMDL
MODEL 5
REMARK VINA RESULT:      -8.3     13.709     19.522
REMARK  5 active torsions:
REMARK  status: ('A' for Active; 'I' for Inactive)
REMARK    1  A    between atoms: C12_20  and  O1_1 
REMARK    2  A    between atoms: N1_8  and  O1_1 
REMARK    3  A    between atoms: C16_24  and  O7_7 
REMARK    4  A    between atoms: C2_10  and  C6_14 
REMARK    5  A    between atoms: C12_20  and  C6_14 
ROOT
HETATM    1  O2  UNK     1      20.197  -3.881  13.640  1.00  0.00    -0.274 OA
HETATM    2  O5  UNK     1      20.889  -1.736  13.912  1.00  0.00    -0.259 OA
HETATM    3  C1  UNK     1      18.021  -3.336  15.368  1.00  0.00    -0.036 A 
HETATM    4  C2  UNK     1      18.927  -2.370  15.106  1.00  0.00     0.034 A 
HETATM    5  C5  UNK     1      18.200  -4.679  14.778  1.00  0.00     0.005 A 
HETATM    6  C9  UNK     1      19.282  -4.904  13.933  1.00  0.00     0.092 A 
HETATM    7  C10 UNK     1      20.077  -2.615  14.188  1.00  0.00     0.295 A 
HETATM    8  C11 UNK     1      16.802  -3.128  16.232  1.00  0.00     0.050 C 
HETATM    9  C13 UNK     1      17.345  -5.765  15.025  1.00  0.00     0.017 A 
HETATM   10  C14 UNK     1      19.524  -6.143  13.333  1.00  0.00     0.074 A 
HETATM   11  C15 UNK     1      17.572  -7.014  14.434  1.00  0.00     0.037 A 
HETATM   12  C16 UNK     1      18.660  -7.202  13.587  1.00  0.00     0.068 A 
ENDROOT
BRANCH   4  13
HETATM   13  C6  UNK     1      18.900  -0.981  15.691  1.00  0.00     0.158 C 
BRANCH  13  14
HETATM   14  C12 UNK     1      19.194  -1.028  17.166  1.00  0.00     0.286 C 
HETATM   15  O6  UNK     1      20.156  -1.566  17.697  1.00  0.00    -0.263 OA
BRANCH  14  16
HETATM   16  O1  UNK     1      18.198  -0.348  17.812  1.00  0.00    -0.187 OA
BRANCH  16  17
HETATM   17  N1  UNK     1      18.711   0.745  18.545  1.00  0.00    -0.145 N 
HETATM   18  C7  UNK     1      18.960   1.944  17.955  1.00  0.00     0.251 A 
HETATM   19  C3  UNK     1      19.523   2.838  19.027  1.00  0.00     0.115 A 
HETATM   20  O3  UNK     1      18.788   2.271  16.792  1.00  0.00    -0.271 OA
HETATM   21  C4  UNK     1      19.490   1.996  20.305  1.00  0.00     0.115 A 
HETATM   22  C8  UNK     1      18.910   0.673  19.888  1.00  0.00     0.251 A 
HETATM   23  O4  UNK     1      18.689  -0.262  20.641  1.00  0.00    -0.271 OA
ENDBRANCH  16  17
ENDBRANCH  14  16
ENDBRANCH  13  14
ENDBRANCH   4  13
BRANCH  12  24
HETATM   24  O7  UNK     1      18.879  -8.416  13.014  1.00  0.00    -0.361 OA
HETATM   25  H13 UNK     1      18.384  -8.463  12.178  1.00  0.00     0.217 HD
ENDBRANCH  12  24
TORSDOF 5
ENDMDL
MODEL 6
REMARK VINA RESULT:      -8.0     22.576     24.413
REMARK  5 active torsions:
REMARK  status: ('A' for Active; 'I' for Inactive)
REMARK    1  A    between atoms: C12_20  and  O1_1 
REMARK    2  A    between atoms: N1_8  and  O1_1 
REMARK    3  A    between atoms: C16_24  and  O7_7 
REMARK    4  A    between atoms: C2_10  and  C6_14 
REMARK    5  A    between atoms: C12_20  and  C6_14 
ROOT
HETATM    1  O2  UNK     1      14.181   4.977   8.826  1.00  0.00    -0.274 OA
HETATM    2  O5  UNK     1      12.352   3.903   8.015  1.00  0.00    -0.259 OA
HETATM    3  C1  UNK     1      12.661   7.363   8.928  1.00  0.00    -0.036 A 
HETATM    4  C2  UNK     1      12.098   6.229   8.460  1.00  0.00     0.034 A 
HETATM    5  C5  UNK     1      14.079   7.351   9.346  1.00  0.00     0.005 A 
HETATM    6  C9  UNK     1      14.790   6.156   9.281  1.00  0.00     0.092 A 
HETATM    7  C10 UNK     1      12.862   4.949   8.406  1.00  0.00     0.295 A 
HETATM    8  C11 UNK     1      11.920   8.669   9.071  1.00  0.00     0.050 C 
HETATM    9  C13 UNK     1      14.773   8.483   9.801  1.00  0.00     0.017 A 
HETATM   10  C14 UNK     1      16.132   6.058   9.657  1.00  0.00     0.074 A 
HETATM   11  C15 UNK     1      16.119   8.403  10.181  1.00  0.00     0.037 A 
HETATM   12  C16 UNK     1      16.797   7.190  10.111  1.00  0.00     0.068 A 
ENDROOT
BRANCH   4  13
HETATM   13  C6  UNK     1      10.686   6.118   7.943  1.00  0.00     0.158 C 
BRANCH  13  14
HETATM   14  C12 UNK     1       9.762   5.656   9.038  1.00  0.00     0.286 C 
HETATM   15  O6  UNK     1      10.093   5.134  10.093  1.00  0.00    -0.263 OA
BRANCH  14  16
HETATM   16  O1  UNK     1       8.481   5.936   8.649  1.00  0.00    -0.187 OA
BRANCH  16  17
HETATM   17  N1  UNK     1       7.539   5.427   9.571  1.00  0.00    -0.145 N 
HETATM   18  C7  UNK     1       7.117   6.158  10.635  1.00  0.00     0.251 A 
HETATM   19  C3  UNK     1       6.157   5.286  11.398  1.00  0.00     0.115 A 
HETATM   20  O3  UNK     1       7.435   7.292  10.954  1.00  0.00    -0.271 OA
HETATM   21  C4  UNK     1       6.051   3.998  10.578  1.00  0.00     0.115 A 
HETATM   22  C8  UNK     1       6.956   4.212   9.396  1.00  0.00     0.251 A 
HETATM   23  O4  UNK     1       7.114   3.415   8.484  1.00  0.00    -0.271 OA
ENDBRANCH  16  17
ENDBRANCH  14  16
ENDBRANCH  13  14
ENDBRANCH   4  13
BRANCH  12  24
HETATM   24  O7  UNK     1      18.103   7.114  10.480  1.00  0.00    -0.361 OA
HETATM   25  H13 UNK     1      18.396   7.991  10.784  1.00  0.00     0.217 HD
ENDBRANCH  12  24
TORSDOF 5
ENDMDL
MODEL 7
REMARK VINA RESULT:      -8.0     22.829     24.299
REMARK  5 active torsions:
REMARK  status: ('A' for Active; 'I' for Inactive)
REMARK    1  A    between atoms: C12_20  and  O1_1 
REMARK    2  A    between atoms: N1_8  and  O1_1 
REMARK    3  A    between atoms: C16_24  and  O7_7 
REMARK    4  A    between atoms: C2_10  and  C6_14 
REMARK    5  A    between atoms: C12_20  and  C6_14 
ROOT
HETATM    1  O2  UNK     1      16.336   6.660   9.778  1.00  0.00    -0.274 OA
HETATM    2  O5  UNK     1      15.541   4.545   9.548  1.00  0.00    -0.259 OA
HETATM    3  C1  UNK     1      13.933   7.625   8.634  1.00  0.00    -0.036 A 
HETATM    4  C2  UNK     1      14.123   6.296   8.772  1.00  0.00     0.034 A 
HETATM    5  C5  UNK     1      15.001   8.558   9.049  1.00  0.00     0.005 A 
HETATM    6  C9  UNK     1      16.166   8.043   9.608  1.00  0.00     0.092 A 
HETATM    7  C10 UNK     1      15.369   5.750   9.384  1.00  0.00     0.295 A 
HETATM    8  C11 UNK     1      12.667   8.237   8.086  1.00  0.00     0.050 C 
HETATM    9  C13 UNK     1      14.925   9.952   8.904  1.00  0.00     0.017 A 
HETATM   10  C14 UNK     1      17.223   8.854  10.027  1.00  0.00     0.074 A 
HETATM   11  C15 UNK     1      15.975  10.782   9.317  1.00  0.00     0.037 A 
HETATM   12  C16 UNK     1      17.123  10.232   9.880  1.00  0.00     0.068 A 
ENDROOT
BRANCH   4  13
HETATM   13  C6  UNK     1      13.146   5.235   8.333  1.00  0.00     0.158 C 
BRANCH  13  14
HETATM   14  C12 UNK     1      12.023   5.113   9.328  1.00  0.00     0.286 C 
HETATM   15  O6  UNK     1      12.033   5.510  10.485  1.00  0.00    -0.263 OA
BRANCH  14  16
HETATM   16  O1  UNK     1      10.979   4.487   8.704  1.00  0.00    -0.187 OA
BRANCH  16  17
HETATM   17  N1  UNK     1       9.890   5.367   8.512  1.00  0.00    -0.145 N 
HETATM   18  C7  UNK     1       9.728   6.057   7.353  1.00  0.00     0.251 A 
HETATM   19  C3  UNK     1       8.497   6.904   7.530  1.00  0.00     0.115 A 
HETATM   20  O3  UNK     1      10.422   6.035   6.350  1.00  0.00    -0.271 OA
HETATM   21  C4  UNK     1       7.960   6.542   8.917  1.00  0.00     0.115 A 
HETATM   22  C8  UNK     1       8.915   5.509   9.449  1.00  0.00     0.251 A 
HETATM   23  O4  UNK     1       8.804   4.942  10.524  1.00  0.00    -0.271 OA
ENDBRANCH  16  17
ENDBRANCH  14  16
ENDBRANCH  13  14
ENDBRANCH   4  13
BRANCH  12  24
HETATM   24  O7  UNK     1      18.142  11.039  10.280  1.00  0.00    -0.361 OA
HETATM   25  H13 UNK     1      17.771  11.799  10.762  1.00  0.00     0.217 HD
ENDBRANCH  12  24
TORSDOF 5
ENDMDL
MODEL 8
REMARK VINA RESULT:      -7.9     22.846     24.213
REMARK  5 active torsions:
REMARK  status: ('A' for Active; 'I' for Inactive)
REMARK    1  A    between atoms: C12_20  and  O1_1 
REMARK    2  A    between atoms: N1_8  and  O1_1 
REMARK    3  A    between atoms: C16_24  and  O7_7 
REMARK    4  A    between atoms: C2_10  and  C6_14 
REMARK    5  A    between atoms: C12_20  and  C6_14 
ROOT
HETATM    1  O2  UNK     1      16.541   6.643   9.713  1.00  0.00    -0.274 OA
HETATM    2  O5  UNK     1      15.558   4.598   9.646  1.00  0.00    -0.259 OA
HETATM    3  C1  UNK     1      14.005   7.779  10.255  1.00  0.00    -0.036 A 
HETATM    4  C2  UNK     1      14.115   6.448  10.061  1.00  0.00     0.034 A 
HETATM    5  C5  UNK     1      15.207   8.631  10.143  1.00  0.00     0.005 A 
HETATM    6  C9  UNK     1      16.434   8.033   9.878  1.00  0.00     0.092 A 
HETATM    7  C10 UNK     1      15.436   5.811   9.790  1.00  0.00     0.295 A 
HETATM    8  C11 UNK     1      12.709   8.470  10.601  1.00  0.00     0.050 C 
HETATM    9  C13 UNK     1      15.194  10.029  10.279  1.00  0.00     0.017 A 
HETATM   10  C14 UNK     1      17.618   8.765   9.757  1.00  0.00     0.074 A 
HETATM   11  C15 UNK     1      16.370  10.779  10.160  1.00  0.00     0.037 A 
HETATM   12  C16 UNK     1      17.582  10.147   9.901  1.00  0.00     0.068 A 
ENDROOT
BRANCH   4  13
HETATM   13  C6  UNK     1      12.964   5.475  10.083  1.00  0.00     0.158 C 
BRANCH  13  14
HETATM   14  C12 UNK     1      12.449   5.241   8.687  1.00  0.00     0.286 C 
HETATM   15  O6  UNK     1      12.317   4.157   8.136  1.00  0.00    -0.263 OA
BRANCH  14  16
HETATM   16  O1  UNK     1      12.143   6.460   8.145  1.00  0.00    -0.187 OA
BRANCH  16  17
HETATM   17  N1  UNK     1      10.878   6.441   7.517  1.00  0.00    -0.145 N 
HETATM   18  C7  UNK     1       9.728   6.598   8.225  1.00  0.00     0.251 A 
HETATM   19  C3  UNK     1       8.600   6.488   7.235  1.00  0.00     0.115 A 
HETATM   20  O3  UNK     1       9.591   6.782   9.423  1.00  0.00    -0.271 OA
HETATM   21  C4  UNK     1       9.279   6.316   5.874  1.00  0.00     0.115 A 
HETATM   22  C8  UNK     1      10.754   6.339   6.167  1.00  0.00     0.251 A 
HETATM   23  O4  UNK     1      11.635   6.265   5.325  1.00  0.00    -0.271 OA
ENDBRANCH  16  17
ENDBRANCH  14  16
ENDBRANCH  13  14
ENDBRANCH   4  13
BRANCH  12  24
HETATM   24  O7  UNK     1      18.724  10.876   9.786  1.00  0.00    -0.361 OA
HETATM   25  H13 UNK     1      19.479  10.324  10.054  1.00  0.00     0.217 HD
ENDBRANCH  12  24
TORSDOF 5
ENDMDL
MODEL 9
REMARK VINA RESULT:      -7.8     22.243     24.657
REMARK  5 active torsions:
REMARK  status: ('A' for Active; 'I' for Inactive)
REMARK    1  A    between atoms: C12_20  and  O1_1 
REMARK    2  A    between atoms: N1_8  and  O1_1 
REMARK    3  A    between atoms: C16_24  and  O7_7 
REMARK    4  A    between atoms: C2_10  and  C6_14 
REMARK    5  A    between atoms: C12_20  and  C6_14 
ROOT
HETATM    1  O2  UNK     1       9.098   5.110   8.710  1.00  0.00    -0.274 OA
HETATM    2  O5  UNK     1      11.153   5.261   7.757  1.00  0.00    -0.259 OA
HETATM    3  C1  UNK     1       9.291   7.843   9.423  1.00  0.00    -0.036 A 
HETATM    4  C2  UNK     1      10.316   7.243   8.779  1.00  0.00     0.034 A 
HETATM    5  C5  UNK     1       8.097   7.051   9.781  1.00  0.00     0.005 A 
HETATM    6  C9  UNK     1       8.041   5.710   9.410  1.00  0.00     0.092 A 
HETATM    7  C10 UNK     1      10.244   5.810   8.373  1.00  0.00     0.295 A 
HETATM    8  C11 UNK     1       9.278   9.304   9.797  1.00  0.00     0.050 C 
HETATM    9  C13 UNK     1       6.999   7.563  10.491  1.00  0.00     0.017 A 
HETATM   10  C14 UNK     1       6.949   4.892   9.709  1.00  0.00     0.074 A 
HETATM   11  C15 UNK     1       5.896   6.757  10.799  1.00  0.00     0.037 A 
HETATM   12  C16 UNK     1       5.871   5.422  10.407  1.00  0.00     0.068 A 
ENDROOT
BRANCH   4  13
HETATM   13  C6  UNK     1      11.615   7.916   8.413  1.00  0.00     0.158 C 
BRANCH  13  14
HETATM   14  C12 UNK     1      12.695   7.538   9.392  1.00  0.00     0.286 C 
HETATM   15  O6  UNK     1      12.581   7.477  10.608  1.00  0.00    -0.263 OA
BRANCH  14  16
HETATM   16  O1  UNK     1      13.828   7.262   8.676  1.00  0.00    -0.187 OA
BRANCH  16  17
HETATM   17  N1  UNK     1      14.989   7.666   9.374  1.00  0.00    -0.145 N 
HETATM   18  C7  UNK     1      15.770   6.770  10.034  1.00  0.00     0.251 A 
HETATM   19  C3  UNK     1      16.877   7.562  10.675  1.00  0.00     0.115 A 
HETATM   20  O3  UNK     1      15.632   5.561  10.126  1.00  0.00    -0.271 OA
HETATM   21  C4  UNK     1      16.644   9.007  10.228  1.00  0.00     0.115 A 
HETATM   22  C8  UNK     1      15.418   8.955   9.357  1.00  0.00     0.251 A 
HETATM   23  O4  UNK     1      14.932   9.912   8.776  1.00  0.00    -0.271 OA
ENDBRANCH  16  17
ENDBRANCH  14  16
ENDBRANCH  13  14
ENDBRANCH   4  13
BRANCH  12  24
HETATM   24  O7  UNK     1       4.799   4.641  10.708  1.00  0.00    -0.361 OA
HETATM   25  H13 UNK     1       4.574   4.102   9.929  1.00  0.00     0.217 HD
ENDBRANCH  12  24
TORSDOF 5
ENDMDL
MODEL 10
REMARK VINA RESULT:      -7.8      2.384      3.071
REMARK  5 active torsions:
REMARK  status: ('A' for Active; 'I' for Inactive)
REMARK    1  A    between atoms: C12_20  and  O1_1 
REMARK    2  A    between atoms: N1_8  and  O1_1 
REMARK    3  A    between atoms: C16_24  and  O7_7 
REMARK    4  A    between atoms: C2_10  and  C6_14 
REMARK    5  A    between atoms: C12_20  and  C6_14 
ROOT
HETATM    1  O2  UNK     1      15.814   8.575  31.407  1.00  0.00    -0.274 OA
HETATM    2  O5  UNK     1      17.188   7.223  30.207  1.00  0.00    -0.259 OA
HETATM    3  C1  UNK     1      17.389   8.044  33.698  1.00  0.00    -0.036 A 
HETATM    4  C2  UNK     1      17.696   7.456  32.523  1.00  0.00     0.034 A 
HETATM    5  C5  UNK     1      16.209   8.929  33.781  1.00  0.00     0.005 A 
HETATM    6  C9  UNK     1      15.463   9.166  32.630  1.00  0.00     0.092 A 
HETATM    7  C10 UNK     1      16.900   7.724  31.291  1.00  0.00     0.295 A 
HETATM    8  C11 UNK     1      18.196   7.866  34.960  1.00  0.00     0.050 C 
HETATM    9  C13 UNK     1      15.774   9.551  34.962  1.00  0.00     0.017 A 
HETATM   10  C14 UNK     1      14.334   9.990  32.621  1.00  0.00     0.074 A 
HETATM   11  C15 UNK     1      14.645  10.380  34.972  1.00  0.00     0.037 A 
HETATM   12  C16 UNK     1      13.927  10.600  33.801  1.00  0.00     0.068 A 
ENDROOT
BRANCH   4  13
HETATM   13  C6  UNK     1      18.830   6.484  32.316  1.00  0.00     0.158 C 
BRANCH  13  14
HETATM   14  C12 UNK     1      18.499   5.153  32.937  1.00  0.00     0.286 C 
HETATM   15  O6  UNK     1      18.940   4.715  33.991  1.00  0.00    -0.263 OA
BRANCH  14  16
HETATM   16  O1  UNK     1      17.605   4.520  32.117  1.00  0.00    -0.187 OA
BRANCH  16  17
HETATM   17  N1  UNK     1      18.186   3.392  31.494  1.00  0.00    -0.145 N 
HETATM   18  C7  UNK     1      18.176   2.169  32.085  1.00  0.00     0.251 A 
HETATM   19  C3  UNK     1      18.906   1.240  31.154  1.00  0.00     0.115 A 
HETATM   20  O3  UNK     1      17.696   1.845  33.160  1.00  0.00    -0.271 OA
HETATM   21  C4  UNK     1      19.262   2.096  29.936  1.00  0.00     0.115 A 
HETATM   22  C8  UNK     1      18.715   3.462  30.244  1.00  0.00     0.251 A 
HETATM   23  O4  UNK     1      18.767   4.423  29.492  1.00  0.00    -0.271 OA
ENDBRANCH  16  17
ENDBRANCH  14  16
ENDBRANCH  13  14
ENDBRANCH   4  13
BRANCH  12  24
HETATM   24  O7  UNK     1      12.830  11.404  33.812  1.00  0.00    -0.361 OA
HETATM   25  H13 UNK     1      12.640  11.690  32.901  1.00  0.00     0.217 HD
ENDBRANCH  12  24
TORSDOF 5
ENDMDL
