MODEL 1
REMARK VINA RESULT:      -9.0      0.000      0.000
REMARK  5 active torsions:
REMARK  status: ('A' for Active; 'I' for Inactive)
REMARK    1  A    between atoms: C16_22  and  O4_4 
REMARK    2  A    between atoms: C5_11  and  N1_5 
REMARK       I    between atoms: C6_12  and  N2_6 
REMARK    3  A    between atoms: C5_11  and  C8_14 
REMARK    4  A    between atoms: C6_12  and  C7_13 
REMARK    5  A    between atoms: C12_18  and  C14_20 
ROOT
HETATM    1  O1  UNK     1      16.387   6.744  35.356  1.00  0.00    -0.267 OA
HETATM    2  N1  UNK     1      18.713   5.230  31.195  1.00  0.00     0.095 N 
HETATM    3  N2  UNK     1      17.481   6.743  33.303  1.00  0.00    -0.344 N 
HETATM    4  C1  UNK     1      18.173   4.551  32.379  1.00  0.00     0.292 C 
HETATM    5  C2  UNK     1      17.907   6.417  30.880  1.00  0.00     0.292 C 
HETATM    6  C3  UNK     1      18.182   5.489  33.584  1.00  0.00     0.156 C 
HETATM    7  C4  UNK     1      17.884   7.400  32.054  1.00  0.00     0.156 C 
HETATM    8  C6  UNK     1      16.617   7.263  34.263  1.00  0.00     0.260 C 
ENDROOT
BRANCH   8   9
HETATM    9  C7  UNK     1      15.931   8.535  33.953  1.00  0.00     0.108 A 
HETATM   10  C10 UNK     1      14.632   8.573  33.244  1.00  0.00     0.304 A 
HETATM   11  O2  UNK     1      14.085   9.831  33.010  1.00  0.00    -0.271 OA
HETATM   12  O3  UNK     1      14.063   7.550  32.878  1.00  0.00    -0.259 OA
HETATM   13  C13 UNK     1      14.730  11.012  33.426  1.00  0.00     0.123 A 
HETATM   14  C11 UNK     1      15.951  10.953  34.091  1.00  0.00     0.002 A 
HETATM   15  C16 UNK     1      14.104  12.225  33.146  1.00  0.00     0.102 A 
HETATM   16  C9  UNK     1      16.548   9.653  34.351  1.00  0.00     0.037 A 
HETATM   17  C15 UNK     1      16.561  12.146  34.486  1.00  0.00     0.014 A 
HETATM   18  C17 UNK     1      15.945  13.371  34.213  1.00  0.00     0.004 A 
HETATM   19  C18 UNK     1      14.719  13.409  33.544  1.00  0.00     0.040 A 
BRANCH  15  20
HETATM   20  O4  UNK     1      12.911  12.268  32.496  1.00  0.00    -0.353 OA
HETATM   21  C24 UNK     1      11.746  12.496  33.288  1.00  0.00     0.210 C 
ENDBRANCH  15  20
ENDBRANCH   8   9
BRANCH   2  22
HETATM   22  C5  UNK     1      18.751   4.317  30.052  1.00  0.00     0.300 C 
BRANCH  22  23
HETATM   23  C8  UNK     1      19.185   2.941  30.461  1.00  0.00     0.004 C 
HETATM   24  C12 UNK     1      19.043   1.862  29.676  1.00  0.00     0.009 C 
BRANCH  24  25
HETATM   25  C14 UNK     1      19.467   0.496  30.027  1.00  0.00    -0.036 A 
HETATM   26  C19 UNK     1      19.264   0.031  31.317  1.00  0.00     0.011 A 
HETATM   27  C21 UNK     1      19.665  -1.263  31.649  1.00  0.00     0.001 A 
HETATM   28  C23 UNK     1      20.265  -2.076  30.687  1.00  0.00     0.000 A 
HETATM   29  C22 UNK     1      20.463  -1.595  29.393  1.00  0.00     0.001 A 
HETATM   30  C20 UNK     1      20.061  -0.300  29.061  1.00  0.00     0.011 A 
ENDBRANCH  24  25
ENDBRANCH  22  23
ENDBRANCH   2  22
TORSDOF 5
ENDMDL
MODEL 2
REMARK VINA RESULT:      -8.9     22.550     24.726
REMARK  5 active torsions:
REMARK  status: ('A' for Active; 'I' for Inactive)
REMARK    1  A    between atoms: C16_22  and  O4_4 
REMARK    2  A    between atoms: C5_11  and  N1_5 
REMARK       I    between atoms: C6_12  and  N2_6 
REMARK    3  A    between atoms: C5_11  and  C8_14 
REMARK    4  A    between atoms: C6_12  and  C7_13 
REMARK    5  A    between atoms: C12_18  and  C14_20 
ROOT
HETATM    1  O1  UNK     1      15.493   5.383   8.618  1.00  0.00    -0.267 OA
HETATM    2  N1  UNK     1      16.172   9.971  10.491  1.00  0.00     0.095 N 
HETATM    3  N2  UNK     1      15.138   7.408   9.707  1.00  0.00    -0.344 N 
HETATM    4  C1  UNK     1      17.016   9.023   9.755  1.00  0.00     0.292 C 
HETATM    5  C2  UNK     1      14.771   9.835  10.069  1.00  0.00     0.292 C 
HETATM    6  C3  UNK     1      16.559   7.588  10.010  1.00  0.00     0.156 C 
HETATM    7  C4  UNK     1      14.254   8.415  10.307  1.00  0.00     0.156 C 
HETATM    8  C6  UNK     1      14.735   6.271   9.010  1.00  0.00     0.260 C 
ENDROOT
BRANCH   8   9
HETATM    9  C7  UNK     1      13.293   6.115   8.726  1.00  0.00     0.108 A 
HETATM   10  C10 UNK     1      12.350   5.571   9.729  1.00  0.00     0.304 A 
HETATM   11  O2  UNK     1      11.016   5.473   9.344  1.00  0.00    -0.271 OA
HETATM   12  O3  UNK     1      12.721   5.222  10.846  1.00  0.00    -0.259 OA
HETATM   13  C13 UNK     1      10.581   5.870   8.065  1.00  0.00     0.123 A 
HETATM   14  C11 UNK     1      11.484   6.378   7.137  1.00  0.00     0.002 A 
HETATM   15  C16 UNK     1       9.225   5.733   7.771  1.00  0.00     0.102 A 
HETATM   16  C9  UNK     1      12.885   6.494   7.510  1.00  0.00     0.037 A 
HETATM   17  C15 UNK     1      11.014   6.760   5.878  1.00  0.00     0.014 A 
HETATM   18  C17 UNK     1       9.657   6.630   5.569  1.00  0.00     0.004 A 
HETATM   19  C18 UNK     1       8.765   6.117   6.514  1.00  0.00     0.040 A 
BRANCH  15  20
HETATM   20  O4  UNK     1       8.354   5.236   8.688  1.00  0.00    -0.353 OA
HETATM   21  C24 UNK     1       7.549   6.176   9.399  1.00  0.00     0.210 C 
ENDBRANCH  15  20
ENDBRANCH   8   9
BRANCH   2  22
HETATM   22  C5  UNK     1      16.639  11.341  10.287  1.00  0.00     0.300 C 
BRANCH  22  23
HETATM   23  C8  UNK     1      18.116  11.386  10.026  1.00  0.00     0.004 C 
HETATM   24  C12 UNK     1      18.978  12.069  10.794  1.00  0.00     0.009 C 
BRANCH  24  25
HETATM   25  C14 UNK     1      20.435  12.130  10.587  1.00  0.00    -0.036 A 
HETATM   26  C19 UNK     1      20.936  12.200   9.297  1.00  0.00     0.011 A 
HETATM   27  C21 UNK     1      22.316  12.258   9.100  1.00  0.00     0.001 A 
HETATM   28  C23 UNK     1      23.178  12.245  10.197  1.00  0.00     0.000 A 
HETATM   29  C22 UNK     1      22.659  12.175  11.489  1.00  0.00     0.001 A 
HETATM   30  C20 UNK     1      21.279  12.117  11.686  1.00  0.00     0.011 A 
ENDBRANCH  24  25
ENDBRANCH  22  23
ENDBRANCH   2  22
TORSDOF 5
ENDMDL
MODEL 3
REMARK VINA RESULT:      -8.7     23.471     25.649
REMARK  5 active torsions:
REMARK  status: ('A' for Active; 'I' for Inactive)
REMARK    1  A    between atoms: C16_22  and  O4_4 
REMARK    2  A    between atoms: C5_11  and  N1_5 
REMARK       I    between atoms: C6_12  and  N2_6 
REMARK    3  A    between atoms: C5_11  and  C8_14 
REMARK    4  A    between atoms: C6_12  and  C7_13 
REMARK    5  A    between atoms: C12_18  and  C14_20 
ROOT
HETATM    1  O1  UNK     1      15.446   5.374   8.469  1.00  0.00    -0.267 OA
HETATM    2  N1  UNK     1      16.153   9.808  10.673  1.00  0.00     0.095 N 
HETATM    3  N2  UNK     1      15.109   7.309   9.716  1.00  0.00    -0.344 N 
HETATM    4  C1  UNK     1      16.985   8.922   9.850  1.00  0.00     0.292 C 
HETATM    5  C2  UNK     1      14.745   9.700  10.269  1.00  0.00     0.292 C 
HETATM    6  C3  UNK     1      16.535   7.470  10.004  1.00  0.00     0.156 C 
HETATM    7  C4  UNK     1      14.235   8.264  10.408  1.00  0.00     0.156 C 
HETATM    8  C6  UNK     1      14.695   6.227   8.943  1.00  0.00     0.260 C 
ENDROOT
BRANCH   8   9
HETATM    9  C7  UNK     1      13.248   6.088   8.675  1.00  0.00     0.108 A 
HETATM   10  C10 UNK     1      12.314   5.533   9.681  1.00  0.00     0.304 A 
HETATM   11  O2  UNK     1      10.974   5.453   9.312  1.00  0.00    -0.271 OA
HETATM   12  O3  UNK     1      12.696   5.161  10.785  1.00  0.00    -0.259 OA
HETATM   13  C13 UNK     1      10.525   5.878   8.046  1.00  0.00     0.123 A 
HETATM   14  C11 UNK     1      11.420   6.396   7.116  1.00  0.00     0.002 A 
HETATM   15  C16 UNK     1       9.165   5.758   7.768  1.00  0.00     0.102 A 
HETATM   16  C9  UNK     1      12.827   6.493   7.472  1.00  0.00     0.037 A 
HETATM   17  C15 UNK     1      10.937   6.805   5.871  1.00  0.00     0.014 A 
HETATM   18  C17 UNK     1       9.575   6.691   5.577  1.00  0.00     0.004 A 
HETATM   19  C18 UNK     1       8.692   6.169   6.524  1.00  0.00     0.040 A 
BRANCH  15  20
HETATM   20  O4  UNK     1       8.301   5.251   8.687  1.00  0.00    -0.353 OA
HETATM   21  C24 UNK     1       7.495   6.182   9.407  1.00  0.00     0.210 C 
ENDBRANCH  15  20
ENDBRANCH   8   9
BRANCH   2  22
HETATM   22  C5  UNK     1      16.614  11.192  10.565  1.00  0.00     0.300 C 
BRANCH  22  23
HETATM   23  C8  UNK     1      17.086  11.508   9.177  1.00  0.00     0.004 C 
HETATM   24  C12 UNK     1      17.614  12.692   8.831  1.00  0.00     0.009 C 
BRANCH  24  25
HETATM   25  C14 UNK     1      18.104  13.043   7.487  1.00  0.00    -0.036 A 
HETATM   26  C19 UNK     1      18.069  14.365   7.074  1.00  0.00     0.011 A 
HETATM   27  C21 UNK     1      18.533  14.698   5.801  1.00  0.00     0.001 A 
HETATM   28  C23 UNK     1      19.027  13.703   4.957  1.00  0.00     0.000 A 
HETATM   29  C22 UNK     1      19.057  12.376   5.387  1.00  0.00     0.001 A 
HETATM   30  C20 UNK     1      18.593  12.044   6.660  1.00  0.00     0.011 A 
ENDBRANCH  24  25
ENDBRANCH  22  23
ENDBRANCH   2  22
TORSDOF 5
ENDMDL
MODEL 4
REMARK VINA RESULT:      -8.7     17.650     21.554
REMARK  5 active torsions:
REMARK  status: ('A' for Active; 'I' for Inactive)
REMARK    1  A    between atoms: C16_22  and  O4_4 
REMARK    2  A    between atoms: C5_11  and  N1_5 
REMARK       I    between atoms: C6_12  and  N2_6 
REMARK    3  A    between atoms: C5_11  and  C8_14 
REMARK    4  A    between atoms: C6_12  and  C7_13 
REMARK    5  A    between atoms: C12_18  and  C14_20 
ROOT
HETATM    1  O1  UNK     1      30.708 -10.716  39.192  1.00  0.00    -0.267 OA
HETATM    2  N1  UNK     1      26.495  -8.129  38.432  1.00  0.00     0.095 N 
HETATM    3  N2  UNK     1      29.059  -9.404  38.206  1.00  0.00    -0.344 N 
HETATM    4  C1  UNK     1      27.022  -8.938  39.537  1.00  0.00     0.292 C 
HETATM    5  C2  UNK     1      27.594  -7.460  37.723  1.00  0.00     0.292 C 
HETATM    6  C3  UNK     1      27.990  -9.996  39.012  1.00  0.00     0.156 C 
HETATM    7  C4  UNK     1      28.597  -8.474  37.168  1.00  0.00     0.156 C 
HETATM    8  C6  UNK     1      30.367  -9.847  38.388  1.00  0.00     0.260 C 
ENDROOT
BRANCH   8   9
HETATM    9  C7  UNK     1      31.422  -9.235  37.554  1.00  0.00     0.108 A 
HETATM   10  C10 UNK     1      31.778  -9.772  36.221  1.00  0.00     0.304 A 
HETATM   11  O2  UNK     1      32.788  -9.108  35.530  1.00  0.00    -0.271 OA
HETATM   12  O3  UNK     1      31.215 -10.752  35.745  1.00  0.00    -0.259 OA
HETATM   13  C13 UNK     1      33.441  -7.982  36.068  1.00  0.00     0.123 A 
HETATM   14  C11 UNK     1      33.091  -7.494  37.323  1.00  0.00     0.002 A 
HETATM   15  C16 UNK     1      34.440  -7.386  35.301  1.00  0.00     0.102 A 
HETATM   16  C9  UNK     1      32.038  -8.165  38.069  1.00  0.00     0.037 A 
HETATM   17  C15 UNK     1      33.763  -6.377  37.823  1.00  0.00     0.014 A 
HETATM   18  C17 UNK     1      34.767  -5.767  37.065  1.00  0.00     0.004 A 
HETATM   19  C18 UNK     1      35.104  -6.271  35.807  1.00  0.00     0.040 A 
BRANCH  15  20
HETATM   20  O4  UNK     1      34.772  -7.873  34.076  1.00  0.00    -0.353 OA
HETATM   21  C24 UNK     1      36.146  -7.799  33.696  1.00  0.00     0.210 C 
ENDBRANCH  15  20
ENDBRANCH   8   9
BRANCH   2  22
HETATM   22  C5  UNK     1      25.531  -7.147  38.928  1.00  0.00     0.300 C 
BRANCH  22  23
HETATM   23  C8  UNK     1      24.120  -7.574  38.652  1.00  0.00     0.004 C 
HETATM   24  C12 UNK     1      23.075  -7.193  39.403  1.00  0.00     0.009 C 
BRANCH  24  25
HETATM   25  C14 UNK     1      21.673  -7.573  39.163  1.00  0.00    -0.036 A 
HETATM   26  C19 UNK     1      21.261  -8.866  39.442  1.00  0.00     0.011 A 
HETATM   27  C21 UNK     1      19.932  -9.225  39.215  1.00  0.00     0.001 A 
HETATM   28  C23 UNK     1      19.032  -8.287  38.711  1.00  0.00     0.000 A 
HETATM   29  C22 UNK     1      19.461  -6.988  38.435  1.00  0.00     0.001 A 
HETATM   30  C20 UNK     1      20.790  -6.629  38.663  1.00  0.00     0.011 A 
ENDBRANCH  24  25
ENDBRANCH  22  23
ENDBRANCH   2  22
TORSDOF 5
ENDMDL
MODEL 5
REMARK VINA RESULT:      -8.6     22.874     24.680
REMARK  5 active torsions:
REMARK  status: ('A' for Active; 'I' for Inactive)
REMARK    1  A    between atoms: C16_22  and  O4_4 
REMARK    2  A    between atoms: C5_11  and  N1_5 
REMARK       I    between atoms: C6_12  and  N2_6 
REMARK    3  A    between atoms: C5_11  and  C8_14 
REMARK    4  A    between atoms: C6_12  and  C7_13 
REMARK    5  A    between atoms: C12_18  and  C14_20 
ROOT
HETATM    1  O1  UNK     1      15.592  11.335  11.220  1.00  0.00    -0.267 OA
HETATM    2  N1  UNK     1      15.557   6.397  10.421  1.00  0.00     0.095 N 
HETATM    3  N2  UNK     1      16.258   9.170  10.686  1.00  0.00    -0.344 N 
HETATM    4  C1  UNK     1      14.565   7.373  10.888  1.00  0.00     0.292 C 
HETATM    5  C2  UNK     1      16.471   7.025   9.457  1.00  0.00     0.292 C 
HETATM    6  C3  UNK     1      15.255   8.558  11.559  1.00  0.00     0.156 C 
HETATM    7  C4  UNK     1      17.197   8.220  10.077  1.00  0.00     0.156 C 
HETATM    8  C6  UNK     1      16.325  10.559  10.604  1.00  0.00     0.260 C 
ENDROOT
BRANCH   8   9
HETATM    9  C7  UNK     1      17.353  11.146   9.720  1.00  0.00     0.108 A 
HETATM   10  C10 UNK     1      17.063  11.516   8.316  1.00  0.00     0.304 A 
HETATM   11  O2  UNK     1      18.114  12.062   7.585  1.00  0.00    -0.271 OA
HETATM   12  O3  UNK     1      15.954  11.353   7.819  1.00  0.00    -0.259 OA
HETATM   13  C13 UNK     1      19.391  12.254   8.147  1.00  0.00     0.123 A 
HETATM   14  C11 UNK     1      19.642  11.898   9.468  1.00  0.00     0.002 A 
HETATM   15  C16 UNK     1      20.379  12.807   7.335  1.00  0.00     0.102 A 
HETATM   16  C9  UNK     1      18.564  11.326  10.259  1.00  0.00     0.037 A 
HETATM   17  C15 UNK     1      20.922  12.102   9.989  1.00  0.00     0.014 A 
HETATM   18  C17 UNK     1      21.924  12.656   9.187  1.00  0.00     0.004 A 
HETATM   19  C18 UNK     1      21.652  13.007   7.863  1.00  0.00     0.040 A 
BRANCH  15  20
HETATM   20  O4  UNK     1      20.120  13.150   6.046  1.00  0.00    -0.353 OA
HETATM   21  C24 UNK     1      21.074  13.984   5.389  1.00  0.00     0.210 C 
ENDBRANCH  15  20
ENDBRANCH   8   9
BRANCH   2  22
HETATM   22  C5  UNK     1      14.896   5.238   9.822  1.00  0.00     0.300 C 
BRANCH  22  23
HETATM   23  C8  UNK     1      13.503   5.570   9.374  1.00  0.00     0.004 C 
HETATM   24  C12 UNK     1      13.085   5.430   8.107  1.00  0.00     0.009 C 
BRANCH  24  25
HETATM   25  C14 UNK     1      11.726   5.728   7.623  1.00  0.00    -0.036 A 
HETATM   26  C19 UNK     1      10.670   5.727   8.520  1.00  0.00     0.011 A 
HETATM   27  C21 UNK     1       9.383   6.009   8.062  1.00  0.00     0.001 A 
HETATM   28  C23 UNK     1       9.168   6.288   6.713  1.00  0.00     0.000 A 
HETATM   29  C22 UNK     1      10.241   6.287   5.822  1.00  0.00     0.001 A 
HETATM   30  C20 UNK     1      11.529   6.005   6.280  1.00  0.00     0.011 A 
ENDBRANCH  24  25
ENDBRANCH  22  23
ENDBRANCH   2  22
TORSDOF 5
ENDMDL
MODEL 6
REMARK VINA RESULT:      -8.5     23.826     26.215
REMARK  5 active torsions:
REMARK  status: ('A' for Active; 'I' for Inactive)
REMARK    1  A    between atoms: C16_22  and  O4_4 
REMARK    2  A    between atoms: C5_11  and  N1_5 
REMARK       I    between atoms: C6_12  and  N2_6 
REMARK    3  A    between atoms: C5_11  and  C8_14 
REMARK    4  A    between atoms: C6_12  and  C7_13 
REMARK    5  A    between atoms: C12_18  and  C14_20 
ROOT
HETATM    1  O1  UNK     1      15.988   6.967   9.613  1.00  0.00    -0.267 OA
HETATM    2  N1  UNK     1      16.672  11.843   8.729  1.00  0.00     0.095 N 
HETATM    3  N2  UNK     1      15.617   9.252   9.383  1.00  0.00    -0.344 N 
HETATM    4  C1  UNK     1      17.540  10.659   8.708  1.00  0.00     0.292 C 
HETATM    5  C2  UNK     1      15.307  11.476   8.327  1.00  0.00     0.292 C 
HETATM    6  C3  UNK     1      17.013   9.591   9.663  1.00  0.00     0.156 C 
HETATM    7  C4  UNK     1      14.722  10.409   9.255  1.00  0.00     0.156 C 
HETATM    8  C6  UNK     1      15.232   7.913   9.388  1.00  0.00     0.260 C 
ENDROOT
BRANCH   8   9
HETATM    9  C7  UNK     1      13.815   7.604   9.109  1.00  0.00     0.108 A 
HETATM   10  C10 UNK     1      12.765   7.731  10.145  1.00  0.00     0.304 A 
HETATM   11  O2  UNK     1      11.466   7.412   9.760  1.00  0.00    -0.271 OA
HETATM   12  O3  UNK     1      13.022   8.098  11.287  1.00  0.00    -0.259 OA
HETATM   13  C13 UNK     1      11.160   6.990   8.452  1.00  0.00     0.123 A 
HETATM   14  C11 UNK     1      12.162   6.877   7.493  1.00  0.00     0.002 A 
HETATM   15  C16 UNK     1       9.830   6.692   8.162  1.00  0.00     0.102 A 
HETATM   16  C9  UNK     1      13.530   7.204   7.864  1.00  0.00     0.037 A 
HETATM   17  C15 UNK     1      11.820   6.453   6.207  1.00  0.00     0.014 A 
HETATM   18  C17 UNK     1      10.489   6.152   5.901  1.00  0.00     0.004 A 
HETATM   19  C18 UNK     1       9.497   6.272   6.877  1.00  0.00     0.040 A 
BRANCH  15  20
HETATM   20  O4  UNK     1       8.861   6.808   9.108  1.00  0.00    -0.353 OA
HETATM   21  C24 UNK     1       8.234   5.603   9.549  1.00  0.00     0.210 C 
ENDBRANCH  15  20
ENDBRANCH   8   9
BRANCH   2  22
HETATM   22  C5  UNK     1      17.203  12.886   7.853  1.00  0.00     0.300 C 
BRANCH  22  23
HETATM   23  C8  UNK     1      16.147  13.885   7.484  1.00  0.00     0.004 C 
HETATM   24  C12 UNK     1      16.117  15.136   7.969  1.00  0.00     0.009 C 
BRANCH  24  25
HETATM   25  C14 UNK     1      15.111  16.156   7.626  1.00  0.00    -0.036 A 
HETATM   26  C19 UNK     1      14.007  15.794   6.871  1.00  0.00     0.011 A 
HETATM   27  C21 UNK     1      13.054  16.760   6.545  1.00  0.00     0.001 A 
HETATM   28  C23 UNK     1      13.218  18.076   6.979  1.00  0.00     0.000 A 
HETATM   29  C22 UNK     1      14.335  18.424   7.739  1.00  0.00     0.001 A 
HETATM   30  C20 UNK     1      15.287  17.458   8.065  1.00  0.00     0.011 A 
ENDBRANCH  24  25
ENDBRANCH  22  23
ENDBRANCH   2  22
TORSDOF 5
ENDMDL
MODEL 7
REMARK VINA RESULT:      -8.5     22.596     24.305
REMARK  5 active torsions:
REMARK  status: ('A' for Active; 'I' for Inactive)
REMARK    1  A    between atoms: C16_22  and  O4_4 
REMARK    2  A    between atoms: C5_11  and  N1_5 
REMARK       I    between atoms: C6_12  and  N2_6 
REMARK    3  A    between atoms: C5_11  and  C8_14 
REMARK    4  A    between atoms: C6_12  and  C7_13 
REMARK    5  A    between atoms: C12_18  and  C14_20 
ROOT
HETATM    1  O1  UNK     1       9.683   6.743   6.457  1.00  0.00    -0.267 OA
HETATM    2  N1  UNK     1      13.638   5.011   8.981  1.00  0.00     0.095 N 
HETATM    3  N2  UNK     1      11.005   5.692   8.056  1.00  0.00    -0.344 N 
HETATM    4  C1  UNK     1      13.460   5.756   7.729  1.00  0.00     0.292 C 
HETATM    5  C2  UNK     1      12.588   5.376   9.941  1.00  0.00     0.292 C 
HETATM    6  C3  UNK     1      12.097   5.448   7.112  1.00  0.00     0.156 C 
HETATM    7  C4  UNK     1      11.195   5.084   9.379  1.00  0.00     0.156 C 
HETATM    8  C6  UNK     1       9.859   6.344   7.609  1.00  0.00     0.260 C 
ENDROOT
BRANCH   8   9
HETATM    9  C7  UNK     1       8.772   6.569   8.584  1.00  0.00     0.108 A 
HETATM   10  C10 UNK     1       7.734   5.548   8.851  1.00  0.00     0.304 A 
HETATM   11  O2  UNK     1       6.762   5.877   9.793  1.00  0.00    -0.271 OA
HETATM   12  O3  UNK     1       7.726   4.465   8.275  1.00  0.00    -0.259 OA
HETATM   13  C13 UNK     1       6.763   7.117  10.460  1.00  0.00     0.123 A 
HETATM   14  C11 UNK     1       7.747   8.063  10.193  1.00  0.00     0.002 A 
HETATM   15  C16 UNK     1       5.748   7.355  11.385  1.00  0.00     0.102 A 
HETATM   16  C9  UNK     1       8.777   7.749   9.215  1.00  0.00     0.037 A 
HETATM   17  C15 UNK     1       7.713   9.282  10.873  1.00  0.00     0.014 A 
HETATM   18  C17 UNK     1       6.702   9.535  11.805  1.00  0.00     0.004 A 
HETATM   19  C18 UNK     1       5.722   8.573  12.060  1.00  0.00     0.040 A 
BRANCH  15  20
HETATM   20  O4  UNK     1       4.792   6.422  11.636  1.00  0.00    -0.353 OA
HETATM   21  C24 UNK     1       4.901   5.691  12.858  1.00  0.00     0.210 C 
ENDBRANCH  15  20
ENDBRANCH   8   9
BRANCH   2  22
HETATM   22  C5  UNK     1      14.962   5.267   9.547  1.00  0.00     0.300 C 
BRANCH  22  23
HETATM   23  C8  UNK     1      15.319   6.722   9.478  1.00  0.00     0.004 C 
HETATM   24  C12 UNK     1      15.681   7.443  10.550  1.00  0.00     0.009 C 
BRANCH  24  25
HETATM   25  C14 UNK     1      16.054   8.868  10.529  1.00  0.00    -0.036 A 
HETATM   26  C19 UNK     1      15.255   9.789  11.186  1.00  0.00     0.011 A 
HETATM   27  C21 UNK     1      15.609  11.139  11.166  1.00  0.00     0.001 A 
HETATM   28  C23 UNK     1      16.757  11.549  10.489  1.00  0.00     0.000 A 
HETATM   29  C22 UNK     1      17.552  10.610   9.833  1.00  0.00     0.001 A 
HETATM   30  C20 UNK     1      17.199   9.260   9.853  1.00  0.00     0.011 A 
ENDBRANCH  24  25
ENDBRANCH  22  23
ENDBRANCH   2  22
TORSDOF 5
ENDMDL
MODEL 8
REMARK VINA RESULT:      -8.5     16.164     20.603
REMARK  5 active torsions:
REMARK  status: ('A' for Active; 'I' for Inactive)
REMARK    1  A    between atoms: C16_22  and  O4_4 
REMARK    2  A    between atoms: C5_11  and  N1_5 
REMARK       I    between atoms: C6_12  and  N2_6 
REMARK    3  A    between atoms: C5_11  and  C8_14 
REMARK    4  A    between atoms: C6_12  and  C7_13 
REMARK    5  A    between atoms: C12_18  and  C14_20 
ROOT
HETATM    1  O1  UNK     1      29.907  -3.750  37.570  1.00  0.00    -0.267 OA
HETATM    2  N1  UNK     1      27.453  -7.844  39.067  1.00  0.00     0.095 N 
HETATM    3  N2  UNK     1      29.428  -5.918  38.265  1.00  0.00    -0.344 N 
HETATM    4  C1  UNK     1      27.061  -6.466  38.748  1.00  0.00     0.292 C 
HETATM    5  C2  UNK     1      28.590  -8.254  38.232  1.00  0.00     0.292 C 
HETATM    6  C3  UNK     1      28.225  -5.508  38.991  1.00  0.00     0.156 C 
HETATM    7  C4  UNK     1      29.793  -7.330  38.438  1.00  0.00     0.156 C 
HETATM    8  C6  UNK     1      30.178  -4.952  37.600  1.00  0.00     0.260 C 
ENDROOT
BRANCH   8   9
HETATM    9  C7  UNK     1      31.391  -5.396  36.883  1.00  0.00     0.108 A 
HETATM   10  C10 UNK     1      32.720  -5.430  37.535  1.00  0.00     0.304 A 
HETATM   11  O2  UNK     1      33.787  -5.869  36.756  1.00  0.00    -0.271 OA
HETATM   12  O3  UNK     1      32.878  -5.089  38.703  1.00  0.00    -0.259 OA
HETATM   13  C13 UNK     1      33.616  -6.263  35.415  1.00  0.00     0.123 A 
HETATM   14  C11 UNK     1      32.358  -6.223  34.822  1.00  0.00     0.002 A 
HETATM   15  C16 UNK     1      34.744  -6.688  34.716  1.00  0.00     0.102 A 
HETATM   16  C9  UNK     1      31.223  -5.770  35.610  1.00  0.00     0.037 A 
HETATM   17  C15 UNK     1      32.229  -6.620  33.489  1.00  0.00     0.014 A 
HETATM   18  C17 UNK     1      33.352  -7.049  32.774  1.00  0.00     0.004 A 
HETATM   19  C18 UNK     1      34.606  -7.082  33.388  1.00  0.00     0.040 A 
BRANCH  15  20
HETATM   20  O4  UNK     1      35.967  -6.722  35.308  1.00  0.00    -0.353 OA
HETATM   21  C24 UNK     1      37.006  -7.415  34.618  1.00  0.00     0.210 C 
ENDBRANCH  15  20
ENDBRANCH   8   9
BRANCH   2  22
HETATM   22  C5  UNK     1      26.325  -8.756  38.882  1.00  0.00     0.300 C 
BRANCH  22  23
HETATM   23  C8  UNK     1      25.041  -8.008  38.674  1.00  0.00     0.004 C 
HETATM   24  C12 UNK     1      23.896  -8.325  39.297  1.00  0.00     0.009 C 
BRANCH  24  25
HETATM   25  C14 UNK     1      22.617  -7.612  39.137  1.00  0.00    -0.036 A 
HETATM   26  C19 UNK     1      21.446  -8.209  39.576  1.00  0.00     0.011 A 
HETATM   27  C21 UNK     1      20.235  -7.534  39.425  1.00  0.00     0.001 A 
HETATM   28  C23 UNK     1      20.210  -6.270  38.836  1.00  0.00     0.000 A 
HETATM   29  C22 UNK     1      21.397  -5.681  38.399  1.00  0.00     0.001 A 
HETATM   30  C20 UNK     1      22.608  -6.356  38.551  1.00  0.00     0.011 A 
ENDBRANCH  24  25
ENDBRANCH  22  23
ENDBRANCH   2  22
TORSDOF 5
ENDMDL
MODEL 9
REMARK VINA RESULT:      -8.4      6.460     13.241
REMARK  5 active torsions:
REMARK  status: ('A' for Active; 'I' for Inactive)
REMARK    1  A    between atoms: C16_22  and  O4_4 
REMARK    2  A    between atoms: C5_11  and  N1_5 
REMARK       I    between atoms: C6_12  and  N2_6 
REMARK    3  A    between atoms: C5_11  and  C8_14 
REMARK    4  A    between atoms: C6_12  and  C7_13 
REMARK    5  A    between atoms: C12_18  and  C14_20 
ROOT
HETATM    1  O1  UNK     1      18.705  -1.312  38.358  1.00  0.00    -0.267 OA
HETATM    2  N1  UNK     1      17.795   1.177  34.116  1.00  0.00     0.095 N 
HETATM    3  N2  UNK     1      18.125  -0.813  36.161  1.00  0.00    -0.344 N 
HETATM    4  C1  UNK     1      18.208   1.565  35.470  1.00  0.00     0.292 C 
HETATM    5  C2  UNK     1      18.337  -0.147  33.780  1.00  0.00     0.292 C 
HETATM    6  C3  UNK     1      17.705   0.549  36.494  1.00  0.00     0.156 C 
HETATM    7  C4  UNK     1      17.861  -1.210  34.772  1.00  0.00     0.156 C 
HETATM    8  C6  UNK     1      18.603  -1.640  37.175  1.00  0.00     0.260 C 
ENDROOT
BRANCH   8   9
HETATM    9  C7  UNK     1      19.011  -3.011  36.808  1.00  0.00     0.108 A 
HETATM   10  C10 UNK     1      20.399  -3.337  36.409  1.00  0.00     0.304 A 
HETATM   11  O2  UNK     1      20.660  -4.666  36.087  1.00  0.00    -0.271 OA
HETATM   12  O3  UNK     1      21.277  -2.483  36.363  1.00  0.00    -0.259 OA
HETATM   13  C13 UNK     1      19.658  -5.654  36.138  1.00  0.00     0.123 A 
HETATM   14  C11 UNK     1      18.360  -5.327  36.515  1.00  0.00     0.002 A 
HETATM   15  C16 UNK     1      20.017  -6.958  35.797  1.00  0.00     0.102 A 
HETATM   16  C9  UNK     1      18.055  -3.947  36.858  1.00  0.00     0.037 A 
HETATM   17  C15 UNK     1      17.394  -6.334  36.551  1.00  0.00     0.014 A 
HETATM   18  C17 UNK     1      17.738  -7.646  36.212  1.00  0.00     0.004 A 
HETATM   19  C18 UNK     1      19.047  -7.956  35.836  1.00  0.00     0.040 A 
BRANCH  15  20
HETATM   20  O4  UNK     1      21.289  -7.264  35.431  1.00  0.00    -0.353 OA
HETATM   21  C24 UNK     1      21.729  -8.602  35.661  1.00  0.00     0.210 C 
ENDBRANCH  15  20
ENDBRANCH   8   9
BRANCH   2  22
HETATM   22  C5  UNK     1      18.233   2.174  33.140  1.00  0.00     0.300 C 
BRANCH  22  23
HETATM   23  C8  UNK     1      18.314   3.542  33.749  1.00  0.00     0.004 C 
HETATM   24  C12 UNK     1      18.374   4.669  33.023  1.00  0.00     0.009 C 
BRANCH  24  25
HETATM   25  C14 UNK     1      18.439   6.033  33.575  1.00  0.00    -0.036 A 
HETATM   26  C19 UNK     1      19.632   6.734  33.515  1.00  0.00     0.011 A 
HETATM   27  C21 UNK     1      19.694   8.026  34.038  1.00  0.00     0.001 A 
HETATM   28  C23 UNK     1      18.561   8.600  34.615  1.00  0.00     0.000 A 
HETATM   29  C22 UNK     1      17.367   7.882  34.668  1.00  0.00     0.001 A 
HETATM   30  C20 UNK     1      17.305   6.590  34.145  1.00  0.00     0.011 A 
ENDBRANCH  24  25
ENDBRANCH  22  23
ENDBRANCH   2  22
TORSDOF 5
ENDMDL
MODEL 10
REMARK VINA RESULT:      -8.4     22.890     24.919
REMARK  5 active torsions:
REMARK  status: ('A' for Active; 'I' for Inactive)
REMARK    1  A    between atoms: C16_22  and  O4_4 
REMARK    2  A    between atoms: C5_11  and  N1_5 
REMARK       I    between atoms: C6_12  and  N2_6 
REMARK    3  A    between atoms: C5_11  and  C8_14 
REMARK    4  A    between atoms: C6_12  and  C7_13 
REMARK    5  A    between atoms: C12_18  and  C14_20 
ROOT
HETATM    1  O1  UNK     1      15.551   6.437   9.820  1.00  0.00    -0.267 OA
HETATM    2  N1  UNK     1      16.884  11.177   8.938  1.00  0.00     0.095 N 
HETATM    3  N2  UNK     1      15.476   8.744   9.533  1.00  0.00    -0.344 N 
HETATM    4  C1  UNK     1      17.603   9.899   9.003  1.00  0.00     0.292 C 
HETATM    5  C2  UNK     1      15.522  10.966   8.429  1.00  0.00     0.292 C 
HETATM    6  C3  UNK     1      16.876   8.921   9.924  1.00  0.00     0.156 C 
HETATM    7  C4  UNK     1      14.740   9.997   9.318  1.00  0.00     0.156 C 
HETATM    8  C6  UNK     1      14.935   7.461   9.522  1.00  0.00     0.260 C 
ENDROOT
BRANCH   8   9
HETATM    9  C7  UNK     1      13.518   7.317   9.130  1.00  0.00     0.108 A 
HETATM   10  C10 UNK     1      12.410   7.644  10.056  1.00  0.00     0.304 A 
HETATM   11  O2  UNK     1      11.117   7.468   9.571  1.00  0.00    -0.271 OA
HETATM   12  O3  UNK     1      12.616   8.051  11.195  1.00  0.00    -0.259 OA
HETATM   13  C13 UNK     1      10.871   7.002   8.265  1.00  0.00     0.123 A 
HETATM   14  C11 UNK     1      11.926   6.699   7.411  1.00  0.00     0.002 A 
HETATM   15  C16 UNK     1       9.542   6.857   7.870  1.00  0.00     0.102 A 
HETATM   16  C9  UNK     1      13.289   6.874   7.889  1.00  0.00     0.037 A 
HETATM   17  C15 UNK     1      11.641   6.238   6.125  1.00  0.00     0.014 A 
HETATM   18  C17 UNK     1      10.313   6.087   5.713  1.00  0.00     0.004 A 
HETATM   19  C18 UNK     1       9.267   6.397   6.585  1.00  0.00     0.040 A 
BRANCH  15  20
HETATM   20  O4  UNK     1       8.520   7.157   8.715  1.00  0.00    -0.353 OA
HETATM   21  C24 UNK     1       7.836   6.062   9.325  1.00  0.00     0.210 C 
ENDBRANCH  15  20
ENDBRANCH   8   9
BRANCH   2  22
HETATM   22  C5  UNK     1      17.606  12.130   8.096  1.00  0.00     0.300 C 
BRANCH  22  23
HETATM   23  C8  UNK     1      19.056  12.208   8.471  1.00  0.00     0.004 C 
HETATM   24  C12 UNK     1      19.496  12.813   9.585  1.00  0.00     0.009 C 
BRANCH  24  25
HETATM   25  C14 UNK     1      20.906  12.902  10.002  1.00  0.00    -0.036 A 
HETATM   26  C19 UNK     1      21.375  12.058  10.996  1.00  0.00     0.011 A 
HETATM   27  C21 UNK     1      22.711  12.142  11.391  1.00  0.00     0.001 A 
HETATM   28  C23 UNK     1      23.560  13.070  10.787  1.00  0.00     0.000 A 
HETATM   29  C22 UNK     1      23.073  13.913   9.788  1.00  0.00     0.001 A 
HETATM   30  C20 UNK     1      21.737  13.828   9.393  1.00  0.00     0.011 A 
ENDBRANCH  24  25
ENDBRANCH  22  23
ENDBRANCH   2  22
TORSDOF 5
ENDMDL
