MODEL 1
REMARK VINA RESULT:      -7.0      0.000      0.000
REMARK  5 active torsions:
REMARK  status: ('A' for Active; 'I' for Inactive)
REMARK    1  A    between atoms: C11_18  and  O3_4 
REMARK    2  A    between atoms: C19_26  and  O3_4 
REMARK    3  A    between atoms: C7_14  and  N1_7 
REMARK    4  A    between atoms: C1_8  and  C4_11 
REMARK    5  A    between atoms: C11_18  and  C3_10 
ROOT
HETATM    1  O1  UNK     1      30.544  -8.739  33.202  1.00  0.00    -0.292 OA
HETATM    2  O2  UNK     1      29.230  -5.141  31.515  1.00  0.00    -0.274 OA
HETATM    3  O4  UNK     1      30.819  -4.005  32.691  1.00  0.00    -0.259 OA
HETATM    4  C1  UNK     1      31.821  -6.321  34.080  1.00  0.00     0.111 C 
HETATM    5  C2  UNK     1      30.708  -6.353  33.048  1.00  0.00     0.066 A 
HETATM    6  C3  UNK     1      32.329  -7.716  34.403  1.00  0.00     0.081 C 
HETATM    7  C5  UNK     1      30.145  -7.517  32.688  1.00  0.00     0.104 A 
HETATM    8  C6  UNK     1      29.052  -7.559  31.720  1.00  0.00     0.033 A 
HETATM    9  C7  UNK     1      31.699  -8.833  33.981  1.00  0.00     0.155 C 
HETATM   10  C9  UNK     1      30.280  -5.074  32.424  1.00  0.00     0.298 A 
HETATM   11  C10 UNK     1      28.620  -6.360  31.161  1.00  0.00     0.092 A 
HETATM   12  C13 UNK     1      28.412  -8.739  31.324  1.00  0.00     0.017 A 
HETATM   13  C16 UNK     1      27.582  -6.305  30.232  1.00  0.00     0.038 A 
HETATM   14  C17 UNK     1      27.368  -8.702  30.393  1.00  0.00     0.001 A 
HETATM   15  C18 UNK     1      26.954  -7.487  29.849  1.00  0.00     0.003 A 
ENDROOT
BRANCH   4  16
HETATM   16  C4  UNK     1      31.416  -5.582  35.314  1.00  0.00     0.002 A 
HETATM   17  C8  UNK     1      32.067  -4.554  35.941  1.00  0.00    -0.047 A 
HETATM   18  C12 UNK     1      31.358  -4.112  37.096  1.00  0.00     0.015 A 
HETATM   19  C14 UNK     1      33.348  -3.961  35.490  1.00  0.00     0.049 C 
HETATM   20  C15 UNK     1      30.197  -4.825  37.295  1.00  0.00     0.051 A 
HETATM   21  S1  UNK     1      29.965  -6.023  36.094  1.00  0.00    -0.105 SA
ENDBRANCH   4  16
BRANCH   6  22
HETATM   22  C11 UNK     1      33.577  -7.797  35.183  1.00  0.00     0.294 C 
HETATM   23  O5  UNK     1      34.639  -7.353  34.790  1.00  0.00    -0.259 OA
BRANCH  22  24
HETATM   24  O3  UNK     1      33.308  -8.426  36.352  1.00  0.00    -0.318 OA
BRANCH  24  25
HETATM   25  C19 UNK     1      33.406  -7.603  37.519  1.00  0.00     0.174 C 
HETATM   26  C20 UNK     1      32.199  -7.850  38.399  1.00  0.00     0.034 C 
ENDBRANCH  24  25
ENDBRANCH  22  24
ENDBRANCH   6  22
BRANCH   9  27
HETATM   27  N1  UNK     1      32.074 -10.121  34.237  1.00  0.00    -0.379 N 
HETATM   28  H10 UNK     1      31.822 -10.539  35.124  1.00  0.00     0.158 HD
HETATM   29  H9  UNK     1      32.599 -10.650  33.552  1.00  0.00     0.158 HD
ENDBRANCH   9  27
TORSDOF 5
ENDMDL
MODEL 2
REMARK VINA RESULT:      -7.0      2.712      3.343
REMARK  5 active torsions:
REMARK  status: ('A' for Active; 'I' for Inactive)
REMARK    1  A    between atoms: C11_18  and  O3_4 
REMARK    2  A    between atoms: C19_26  and  O3_4 
REMARK    3  A    between atoms: C7_14  and  N1_7 
REMARK    4  A    between atoms: C1_8  and  C4_11 
REMARK    5  A    between atoms: C11_18  and  C3_10 
ROOT
HETATM    1  O1  UNK     1      28.215  -8.117  34.734  1.00  0.00    -0.292 OA
HETATM    2  O2  UNK     1      31.219  -6.109  32.622  1.00  0.00    -0.274 OA
HETATM    3  O4  UNK     1      32.666  -6.446  34.352  1.00  0.00    -0.259 OA
HETATM    4  C1  UNK     1      30.740  -7.748  36.052  1.00  0.00     0.111 C 
HETATM    5  C2  UNK     1      30.449  -7.255  34.646  1.00  0.00     0.066 A 
HETATM    6  C3  UNK     1      29.635  -8.653  36.570  1.00  0.00     0.081 C 
HETATM    7  C5  UNK     1      29.244  -7.450  34.091  1.00  0.00     0.104 A 
HETATM    8  C6  UNK     1      28.940  -6.954  32.751  1.00  0.00     0.033 A 
HETATM    9  C7  UNK     1      28.455  -8.797  35.931  1.00  0.00     0.155 C 
HETATM   10  C9  UNK     1      31.538  -6.583  33.890  1.00  0.00     0.298 A 
HETATM   11  C10 UNK     1      29.944  -6.288  32.053  1.00  0.00     0.092 A 
HETATM   12  C13 UNK     1      27.695  -7.108  32.130  1.00  0.00     0.017 A 
HETATM   13  C16 UNK     1      29.742  -5.777  30.771  1.00  0.00     0.038 A 
HETATM   14  C17 UNK     1      27.476  -6.601  30.845  1.00  0.00     0.001 A 
HETATM   15  C18 UNK     1      28.498  -5.937  30.167  1.00  0.00     0.003 A 
ENDROOT
BRANCH   4  16
HETATM   16  C4  UNK     1      31.017  -6.621  36.992  1.00  0.00     0.002 A 
HETATM   17  C8  UNK     1      32.134  -6.402  37.752  1.00  0.00    -0.047 A 
HETATM   18  C12 UNK     1      32.019  -5.209  38.523  1.00  0.00     0.015 A 
HETATM   19  C14 UNK     1      33.325  -7.284  37.782  1.00  0.00     0.049 C 
HETATM   20  C15 UNK     1      30.816  -4.573  38.315  1.00  0.00     0.051 A 
HETATM   21  S1  UNK     1      29.831  -5.412  37.193  1.00  0.00    -0.105 SA
ENDBRANCH   4  16
BRANCH   6  22
HETATM   22  C11 UNK     1      29.924  -9.402  37.807  1.00  0.00     0.294 C 
HETATM   23  O5  UNK     1      30.861 -10.170  37.918  1.00  0.00    -0.259 OA
BRANCH  22  24
HETATM   24  O3  UNK     1      28.990  -9.075  38.731  1.00  0.00    -0.318 OA
BRANCH  24  25
HETATM   25  C19 UNK     1      28.623 -10.134  39.622  1.00  0.00     0.174 C 
HETATM   26  C20 UNK     1      27.137 -10.052  39.900  1.00  0.00     0.034 C 
ENDBRANCH  24  25
ENDBRANCH  22  24
ENDBRANCH   6  22
BRANCH   9  27
HETATM   27  N1  UNK     1      27.404  -9.572  36.331  1.00  0.00    -0.379 N 
HETATM   28  H10 UNK     1      26.703  -9.170  36.940  1.00  0.00     0.158 HD
HETATM   29  H9  UNK     1      27.329 -10.534  36.027  1.00  0.00     0.158 HD
ENDBRANCH   9  27
TORSDOF 5
ENDMDL
MODEL 3
REMARK VINA RESULT:      -7.0      3.120      5.459
REMARK  5 active torsions:
REMARK  status: ('A' for Active; 'I' for Inactive)
REMARK    1  A    between atoms: C11_18  and  O3_4 
REMARK    2  A    between atoms: C19_26  and  O3_4 
REMARK    3  A    between atoms: C7_14  and  N1_7 
REMARK    4  A    between atoms: C1_8  and  C4_11 
REMARK    5  A    between atoms: C11_18  and  C3_10 
ROOT
HETATM    1  O1  UNK     1      29.322  -8.569  35.287  1.00  0.00    -0.292 OA
HETATM    2  O2  UNK     1      29.146  -6.525  38.935  1.00  0.00    -0.274 OA
HETATM    3  O4  UNK     1      30.534  -4.918  38.105  1.00  0.00    -0.259 OA
HETATM    4  C1  UNK     1      30.918  -6.196  35.553  1.00  0.00     0.111 C 
HETATM    5  C2  UNK     1      30.027  -6.735  36.658  1.00  0.00     0.066 A 
HETATM    6  C3  UNK     1      30.678  -6.916  34.237  1.00  0.00     0.081 C 
HETATM    7  C5  UNK     1      29.314  -7.857  36.474  1.00  0.00     0.104 A 
HETATM    8  C6  UNK     1      28.478  -8.403  37.539  1.00  0.00     0.033 A 
HETATM    9  C7  UNK     1      29.929  -8.036  34.148  1.00  0.00     0.155 C 
HETATM   10  C9  UNK     1      29.940  -5.976  37.933  1.00  0.00     0.298 A 
HETATM   11  C10 UNK     1      28.423  -7.719  38.750  1.00  0.00     0.092 A 
HETATM   12  C13 UNK     1      27.731  -9.580  37.413  1.00  0.00     0.017 A 
HETATM   13  C16 UNK     1      27.654  -8.169  39.823  1.00  0.00     0.038 A 
HETATM   14  C17 UNK     1      26.955 -10.046  38.479  1.00  0.00     0.001 A 
HETATM   15  C18 UNK     1      26.917  -9.342  39.682  1.00  0.00     0.003 A 
ENDROOT
BRANCH   4  16
HETATM   16  C4  UNK     1      32.361  -6.218  35.939  1.00  0.00     0.002 A 
HETATM   17  C8  UNK     1      33.238  -5.170  36.008  1.00  0.00    -0.047 A 
HETATM   18  C12 UNK     1      34.534  -5.597  36.419  1.00  0.00     0.015 A 
HETATM   19  C14 UNK     1      32.901  -3.760  35.698  1.00  0.00     0.049 C 
HETATM   20  C15 UNK     1      34.584  -6.954  36.645  1.00  0.00     0.051 A 
HETATM   21  S1  UNK     1      33.073  -7.709  36.362  1.00  0.00    -0.105 SA
ENDBRANCH   4  16
BRANCH   6  22
HETATM   22  C11 UNK     1      31.283  -6.311  33.037  1.00  0.00     0.294 C 
HETATM   23  O5  UNK     1      32.140  -6.862  32.372  1.00  0.00    -0.259 OA
BRANCH  22  24
HETATM   24  O3  UNK     1      30.720  -5.095  32.843  1.00  0.00    -0.318 OA
BRANCH  24  25
HETATM   25  C19 UNK     1      29.612  -5.079  31.936  1.00  0.00     0.174 C 
HETATM   26  C20 UNK     1      29.904  -4.100  30.819  1.00  0.00     0.034 C 
ENDBRANCH  24  25
ENDBRANCH  22  24
ENDBRANCH   6  22
BRANCH   9  27
HETATM   27  N1  UNK     1      29.675  -8.754  33.015  1.00  0.00    -0.379 N 
HETATM   28  H10 UNK     1      30.437  -9.241  32.561  1.00  0.00     0.158 HD
HETATM   29  H9  UNK     1      28.740  -8.796  32.631  1.00  0.00     0.158 HD
ENDBRANCH   9  27
TORSDOF 5
ENDMDL
MODEL 4
REMARK VINA RESULT:      -6.9      2.244      3.293
REMARK  5 active torsions:
REMARK  status: ('A' for Active; 'I' for Inactive)
REMARK    1  A    between atoms: C11_18  and  O3_4 
REMARK    2  A    between atoms: C19_26  and  O3_4 
REMARK    3  A    between atoms: C7_14  and  N1_7 
REMARK    4  A    between atoms: C1_8  and  C4_11 
REMARK    5  A    between atoms: C11_18  and  C3_10 
ROOT
HETATM    1  O1  UNK     1      28.615  -6.594  34.701  1.00  0.00    -0.292 OA
HETATM    2  O2  UNK     1      31.088  -7.909  31.591  1.00  0.00    -0.274 OA
HETATM    3  O4  UNK     1      32.804  -8.185  33.067  1.00  0.00    -0.259 OA
HETATM    4  C1  UNK     1      31.348  -7.195  35.347  1.00  0.00     0.111 C 
HETATM    5  C2  UNK     1      30.768  -7.330  33.950  1.00  0.00     0.066 A 
HETATM    6  C3  UNK     1      30.266  -6.942  36.382  1.00  0.00     0.081 C 
HETATM    7  C5  UNK     1      29.484  -7.023  33.712  1.00  0.00     0.104 A 
HETATM    8  C6  UNK     1      28.921  -7.118  32.368  1.00  0.00     0.033 A 
HETATM    9  C7  UNK     1      28.991  -6.653  36.045  1.00  0.00     0.155 C 
HETATM   10  C9  UNK     1      31.645  -7.840  32.863  1.00  0.00     0.298 A 
HETATM   11  C10 UNK     1      29.748  -7.557  31.338  1.00  0.00     0.092 A 
HETATM   12  C13 UNK     1      27.597  -6.789  32.056  1.00  0.00     0.017 A 
HETATM   13  C16 UNK     1      29.297  -7.675  30.023  1.00  0.00     0.038 A 
HETATM   14  C17 UNK     1      27.129  -6.902  30.742  1.00  0.00     0.001 A 
HETATM   15  C18 UNK     1      27.978  -7.344  29.728  1.00  0.00     0.003 A 
ENDROOT
BRANCH   4  16
HETATM   16  C4  UNK     1      32.423  -6.159  35.406  1.00  0.00     0.002 A 
HETATM   17  C8  UNK     1      33.671  -6.260  35.959  1.00  0.00    -0.047 A 
HETATM   18  C12 UNK     1      34.408  -5.049  35.813  1.00  0.00     0.015 A 
HETATM   19  C14 UNK     1      34.207  -7.468  36.630  1.00  0.00     0.049 C 
HETATM   20  C15 UNK     1      33.686  -4.080  35.154  1.00  0.00     0.051 A 
HETATM   21  S1  UNK     1      32.125  -4.629  34.714  1.00  0.00    -0.105 SA
ENDBRANCH   4  16
BRANCH   6  22
HETATM   22  C11 UNK     1      30.669  -7.057  37.796  1.00  0.00     0.294 C 
HETATM   23  O5  UNK     1      31.284  -8.009  38.239  1.00  0.00    -0.259 OA
BRANCH  22  24
HETATM   24  O3  UNK     1      30.240  -5.953  38.452  1.00  0.00    -0.318 OA
BRANCH  24  25
HETATM   25  C19 UNK     1      31.139  -4.840  38.415  1.00  0.00     0.174 C 
HETATM   26  C20 UNK     1      30.419  -3.645  37.827  1.00  0.00     0.034 C 
ENDBRANCH  24  25
ENDBRANCH  22  24
ENDBRANCH   6  22
BRANCH   9  27
HETATM   27  N1  UNK     1      27.962  -6.396  36.905  1.00  0.00    -0.379 N 
HETATM   28  H10 UNK     1      28.089  -6.584  37.891  1.00  0.00     0.158 HD
HETATM   29  H9  UNK     1      27.085  -6.027  36.562  1.00  0.00     0.158 HD
ENDBRANCH   9  27
TORSDOF 5
ENDMDL
MODEL 5
REMARK VINA RESULT:      -6.8      3.076      5.916
REMARK  5 active torsions:
REMARK  status: ('A' for Active; 'I' for Inactive)
REMARK    1  A    between atoms: C11_18  and  O3_4 
REMARK    2  A    between atoms: C19_26  and  O3_4 
REMARK    3  A    between atoms: C7_14  and  N1_7 
REMARK    4  A    between atoms: C1_8  and  C4_11 
REMARK    5  A    between atoms: C11_18  and  C3_10 
ROOT
HETATM    1  O1  UNK     1      29.829  -5.662  37.444  1.00  0.00    -0.292 OA
HETATM    2  O2  UNK     1      30.265  -9.824  37.430  1.00  0.00    -0.274 OA
HETATM    3  O4  UNK     1      31.914  -9.650  35.865  1.00  0.00    -0.259 OA
HETATM    4  C1  UNK     1      31.720  -6.789  35.599  1.00  0.00     0.111 C 
HETATM    5  C2  UNK     1      30.884  -7.621  36.555  1.00  0.00     0.066 A 
HETATM    6  C3  UNK     1      31.611  -5.304  35.904  1.00  0.00     0.081 C 
HETATM    7  C5  UNK     1      30.009  -7.033  37.385  1.00  0.00     0.104 A 
HETATM    8  C6  UNK     1      29.176  -7.824  38.288  1.00  0.00     0.033 A 
HETATM    9  C7  UNK     1      30.704  -4.806  36.771  1.00  0.00     0.155 C 
HETATM   10  C9  UNK     1      31.079  -9.094  36.571  1.00  0.00     0.298 A 
HETATM   11  C10 UNK     1      29.326  -9.208  38.279  1.00  0.00     0.092 A 
HETATM   12  C13 UNK     1      28.232  -7.268  39.158  1.00  0.00     0.017 A 
HETATM   13  C16 UNK     1      28.570 -10.041  39.103  1.00  0.00     0.038 A 
HETATM   14  C17 UNK     1      27.465  -8.090  39.992  1.00  0.00     0.001 A 
HETATM   15  C18 UNK     1      27.635  -9.474  39.964  1.00  0.00     0.003 A 
ENDROOT
BRANCH   4  16
HETATM   16  C4  UNK     1      31.395  -7.085  34.171  1.00  0.00     0.002 A 
HETATM   17  C8  UNK     1      32.247  -7.447  33.163  1.00  0.00    -0.047 A 
HETATM   18  C12 UNK     1      31.552  -7.643  31.935  1.00  0.00     0.015 A 
HETATM   19  C14 UNK     1      33.712  -7.618  33.311  1.00  0.00     0.049 C 
HETATM   20  C15 UNK     1      30.199  -7.421  32.064  1.00  0.00     0.051 A 
HETATM   21  S1  UNK     1      29.771  -6.977  33.662  1.00  0.00    -0.105 SA
ENDBRANCH   4  16
BRANCH   6  22
HETATM   22  C11 UNK     1      32.575  -4.421  35.223  1.00  0.00     0.294 C 
HETATM   23  O5  UNK     1      32.379  -3.943  34.121  1.00  0.00    -0.259 OA
BRANCH  22  24
HETATM   24  O3  UNK     1      33.650  -4.262  36.030  1.00  0.00    -0.318 OA
BRANCH  24  25
HETATM   25  C19 UNK     1      34.872  -4.814  35.527  1.00  0.00     0.174 C 
HETATM   26  C20 UNK     1      35.290  -5.971  36.409  1.00  0.00     0.034 C 
ENDBRANCH  24  25
ENDBRANCH  22  24
ENDBRANCH   6  22
BRANCH   9  27
HETATM   27  N1  UNK     1      30.525  -3.491  37.091  1.00  0.00    -0.379 N 
HETATM   28  H10 UNK     1      29.787  -2.970  36.634  1.00  0.00     0.158 HD
HETATM   29  H9  UNK     1      31.123  -3.041  37.772  1.00  0.00     0.158 HD
ENDBRANCH   9  27
TORSDOF 5
ENDMDL
MODEL 6
REMARK VINA RESULT:      -6.8      2.474      6.702
REMARK  5 active torsions:
REMARK  status: ('A' for Active; 'I' for Inactive)
REMARK    1  A    between atoms: C11_18  and  O3_4 
REMARK    2  A    between atoms: C19_26  and  O3_4 
REMARK    3  A    between atoms: C7_14  and  N1_7 
REMARK    4  A    between atoms: C1_8  and  C4_11 
REMARK    5  A    between atoms: C11_18  and  C3_10 
ROOT
HETATM    1  O1  UNK     1      30.661  -5.489  33.753  1.00  0.00    -0.292 OA
HETATM    2  O2  UNK     1      33.633  -7.773  35.615  1.00  0.00    -0.274 OA
HETATM    3  O4  UNK     1      33.930  -8.961  33.692  1.00  0.00    -0.259 OA
HETATM    4  C1  UNK     1      31.841  -7.620  32.231  1.00  0.00     0.111 C 
HETATM    5  C2  UNK     1      32.239  -7.290  33.658  1.00  0.00     0.066 A 
HETATM    6  C3  UNK     1      30.934  -6.554  31.640  1.00  0.00     0.081 C 
HETATM    7  C5  UNK     1      31.641  -6.287  34.319  1.00  0.00     0.104 A 
HETATM    8  C6  UNK     1      31.992  -5.977  35.702  1.00  0.00     0.033 A 
HETATM    9  C7  UNK     1      30.388  -5.570  32.385  1.00  0.00     0.155 C 
HETATM   10  C9  UNK     1      33.326  -8.080  34.293  1.00  0.00     0.298 A 
HETATM   11  C10 UNK     1      32.982  -6.740  36.316  1.00  0.00     0.092 A 
HETATM   12  C13 UNK     1      31.387  -4.959  36.448  1.00  0.00     0.017 A 
HETATM   13  C16 UNK     1      33.379  -6.518  37.635  1.00  0.00     0.038 A 
HETATM   14  C17 UNK     1      31.773  -4.724  37.772  1.00  0.00     0.001 A 
HETATM   15  C18 UNK     1      32.767  -5.502  38.363  1.00  0.00     0.003 A 
ENDROOT
BRANCH   4  16
HETATM   16  C4  UNK     1      31.236  -8.982  32.123  1.00  0.00     0.002 A 
HETATM   17  C8  UNK     1      31.578  -9.999  31.274  1.00  0.00    -0.047 A 
HETATM   18  C12 UNK     1      30.763 -11.150  31.477  1.00  0.00     0.015 A 
HETATM   19  C14 UNK     1      32.660  -9.932  30.262  1.00  0.00     0.049 C 
HETATM   20  C15 UNK     1      29.834 -10.955  32.475  1.00  0.00     0.051 A 
HETATM   21  S1  UNK     1      29.946  -9.391  33.162  1.00  0.00    -0.105 SA
ENDBRANCH   4  16
BRANCH   6  22
HETATM   22  C11 UNK     1      30.697  -6.625  30.186  1.00  0.00     0.294 C 
HETATM   23  O5  UNK     1      31.580  -6.492  29.359  1.00  0.00    -0.259 OA
BRANCH  22  24
HETATM   24  O3  UNK     1      29.379  -6.856  29.980  1.00  0.00    -0.318 OA
BRANCH  24  25
HETATM   25  C19 UNK     1      29.076  -8.090  29.320  1.00  0.00     0.174 C 
HETATM   26  C20 UNK     1      27.895  -8.740  30.008  1.00  0.00     0.034 C 
ENDBRANCH  24  25
ENDBRANCH  22  24
ENDBRANCH   6  22
BRANCH   9  27
HETATM   27  N1  UNK     1      29.553  -4.585  31.943  1.00  0.00    -0.379 N 
HETATM   28  H10 UNK     1      29.870  -3.967  31.207  1.00  0.00     0.158 HD
HETATM   29  H9  UNK     1      28.632  -4.470  32.346  1.00  0.00     0.158 HD
ENDBRANCH   9  27
TORSDOF 5
ENDMDL
MODEL 7
REMARK VINA RESULT:      -6.8      2.034      2.655
REMARK  5 active torsions:
REMARK  status: ('A' for Active; 'I' for Inactive)
REMARK    1  A    between atoms: C11_18  and  O3_4 
REMARK    2  A    between atoms: C19_26  and  O3_4 
REMARK    3  A    between atoms: C7_14  and  N1_7 
REMARK    4  A    between atoms: C1_8  and  C4_11 
REMARK    5  A    between atoms: C11_18  and  C3_10 
ROOT
HETATM    1  O1  UNK     1      31.979  -7.776  31.970  1.00  0.00    -0.292 OA
HETATM    2  O2  UNK     1      27.815  -7.552  32.324  1.00  0.00    -0.274 OA
HETATM    3  O4  UNK     1      28.040  -6.398  34.277  1.00  0.00    -0.259 OA
HETATM    4  C1  UNK     1      30.916  -6.527  34.327  1.00  0.00     0.111 C 
HETATM    5  C2  UNK     1      30.050  -7.102  33.221  1.00  0.00     0.066 A 
HETATM    6  C3  UNK     1      32.381  -6.480  33.927  1.00  0.00     0.081 C 
HETATM    7  C5  UNK     1      30.609  -7.683  32.149  1.00  0.00     0.104 A 
HETATM    8  C6  UNK     1      29.788  -8.267  31.092  1.00  0.00     0.033 A 
HETATM    9  C7  UNK     1      32.850  -7.086  32.815  1.00  0.00     0.155 C 
HETATM   10  C9  UNK     1      28.574  -6.977  33.338  1.00  0.00     0.298 A 
HETATM   11  C10 UNK     1      28.404  -8.188  31.214  1.00  0.00     0.092 A 
HETATM   12  C13 UNK     1      30.315  -8.905  29.963  1.00  0.00     0.017 A 
HETATM   13  C16 UNK     1      27.542  -8.722  30.256  1.00  0.00     0.038 A 
HETATM   14  C17 UNK     1      29.465  -9.446  28.992  1.00  0.00     0.001 A 
HETATM   15  C18 UNK     1      28.081  -9.354  29.139  1.00  0.00     0.003 A 
ENDROOT
BRANCH   4  16
HETATM   16  C4  UNK     1      30.721  -7.250  35.621  1.00  0.00     0.002 A 
HETATM   17  C8  UNK     1      30.353  -6.736  36.834  1.00  0.00    -0.047 A 
HETATM   18  C12 UNK     1      30.272  -7.752  37.831  1.00  0.00     0.015 A 
HETATM   19  C14 UNK     1      30.069  -5.306  37.099  1.00  0.00     0.049 C 
HETATM   20  C15 UNK     1      30.584  -8.995  37.328  1.00  0.00     0.051 A 
HETATM   21  S1  UNK     1      30.971  -8.937  35.662  1.00  0.00    -0.105 SA
ENDBRANCH   4  16
BRANCH   6  22
HETATM   22  C11 UNK     1      33.277  -5.704  34.804  1.00  0.00     0.294 C 
HETATM   23  O5  UNK     1      33.116  -4.522  35.045  1.00  0.00    -0.259 OA
BRANCH  22  24
HETATM   24  O3  UNK     1      34.252  -6.529  35.254  1.00  0.00    -0.318 OA
BRANCH  24  25
HETATM   25  C19 UNK     1      34.728  -6.240  36.573  1.00  0.00     0.174 C 
HETATM   26  C20 UNK     1      33.990  -7.112  37.566  1.00  0.00     0.034 C 
ENDBRANCH  24  25
ENDBRANCH  22  24
ENDBRANCH   6  22
BRANCH   9  27
HETATM   27  N1  UNK     1      34.147  -7.108  32.389  1.00  0.00    -0.379 N 
HETATM   28  H10 UNK     1      34.799  -6.432  32.767  1.00  0.00     0.158 HD
HETATM   29  H9  UNK     1      34.452  -7.786  31.703  1.00  0.00     0.158 HD
ENDBRANCH   9  27
TORSDOF 5
ENDMDL
MODEL 8
REMARK VINA RESULT:      -6.7      2.347      3.011
REMARK  5 active torsions:
REMARK  status: ('A' for Active; 'I' for Inactive)
REMARK    1  A    between atoms: C11_18  and  O3_4 
REMARK    2  A    between atoms: C19_26  and  O3_4 
REMARK    3  A    between atoms: C7_14  and  N1_7 
REMARK    4  A    between atoms: C1_8  and  C4_11 
REMARK    5  A    between atoms: C11_18  and  C3_10 
ROOT
HETATM    1  O1  UNK     1      31.828  -8.780  30.977  1.00  0.00    -0.292 OA
HETATM    2  O2  UNK     1      29.393  -5.751  32.531  1.00  0.00    -0.274 OA
HETATM    3  O4  UNK     1      31.201  -4.823  33.566  1.00  0.00    -0.259 OA
HETATM    4  C1  UNK     1      33.056  -6.860  32.726  1.00  0.00     0.111 C 
HETATM    5  C2  UNK     1      31.587  -6.828  32.346  1.00  0.00     0.066 A 
HETATM    6  C3  UNK     1      33.830  -7.868  31.893  1.00  0.00     0.081 C 
HETATM    7  C5  UNK     1      31.072  -7.761  31.531  1.00  0.00     0.104 A 
HETATM    8  C6  UNK     1      29.653  -7.760  31.182  1.00  0.00     0.033 A 
HETATM    9  C7  UNK     1      33.221  -8.764  31.087  1.00  0.00     0.155 C 
HETATM   10  C9  UNK     1      30.742  -5.722  32.869  1.00  0.00     0.298 A 
HETATM   11  C10 UNK     1      28.849  -6.750  31.701  1.00  0.00     0.092 A 
HETATM   12  C13 UNK     1      29.056  -8.720  30.357  1.00  0.00     0.017 A 
HETATM   13  C16 UNK     1      27.484  -6.672  31.424  1.00  0.00     0.038 A 
HETATM   14  C17 UNK     1      27.689  -8.657  30.069  1.00  0.00     0.001 A 
HETATM   15  C18 UNK     1      26.905  -7.635  30.602  1.00  0.00     0.003 A 
ENDROOT
BRANCH   4  16
HETATM   16  C4  UNK     1      33.248  -7.091  34.190  1.00  0.00     0.002 A 
HETATM   17  C8  UNK     1      33.896  -6.298  35.097  1.00  0.00    -0.047 A 
HETATM   18  C12 UNK     1      33.864  -6.863  36.405  1.00  0.00     0.015 A 
HETATM   19  C14 UNK     1      34.556  -5.009  34.779  1.00  0.00     0.049 C 
HETATM   20  C15 UNK     1      33.190  -8.063  36.433  1.00  0.00     0.051 A 
HETATM   21  S1  UNK     1      32.600  -8.506  34.888  1.00  0.00    -0.105 SA
ENDBRANCH   4  16
BRANCH   6  22
HETATM   22  C11 UNK     1      35.300  -7.804  31.982  1.00  0.00     0.294 C 
HETATM   23  O5  UNK     1      35.967  -6.965  31.407  1.00  0.00    -0.259 OA
BRANCH  22  24
HETATM   24  O3  UNK     1      35.722  -8.808  32.786  1.00  0.00    -0.318 OA
BRANCH  24  25
HETATM   25  C19 UNK     1      37.079  -8.699  33.229  1.00  0.00     0.174 C 
HETATM   26  C20 UNK     1      37.125  -7.832  34.469  1.00  0.00     0.034 C 
ENDBRANCH  24  25
ENDBRANCH  22  24
ENDBRANCH   6  22
BRANCH   9  27
HETATM   27  N1  UNK     1      33.833  -9.712  30.318  1.00  0.00    -0.379 N 
HETATM   28  H10 UNK     1      34.817  -9.609  30.103  1.00  0.00     0.158 HD
HETATM   29  H9  UNK     1      33.312 -10.504  29.966  1.00  0.00     0.158 HD
ENDBRANCH   9  27
TORSDOF 5
ENDMDL
MODEL 9
REMARK VINA RESULT:      -6.6      2.288      2.916
REMARK  5 active torsions:
REMARK  status: ('A' for Active; 'I' for Inactive)
REMARK    1  A    between atoms: C11_18  and  O3_4 
REMARK    2  A    between atoms: C19_26  and  O3_4 
REMARK    3  A    between atoms: C7_14  and  N1_7 
REMARK    4  A    between atoms: C1_8  and  C4_11 
REMARK    5  A    between atoms: C11_18  and  C3_10 
ROOT
HETATM    1  O1  UNK     1      31.239  -9.713  32.652  1.00  0.00    -0.292 OA
HETATM    2  O2  UNK     1      27.827  -7.692  31.315  1.00  0.00    -0.274 OA
HETATM    3  O4  UNK     1      27.858  -6.393  33.189  1.00  0.00    -0.259 OA
HETATM    4  C1  UNK     1      30.124  -7.710  34.382  1.00  0.00     0.111 C 
HETATM    5  C2  UNK     1      29.541  -8.064  33.026  1.00  0.00     0.066 A 
HETATM    6  C3  UNK     1      31.479  -8.361  34.599  1.00  0.00     0.081 C 
HETATM    7  C5  UNK     1      30.104  -9.019  32.270  1.00  0.00     0.104 A 
HETATM    8  C6  UNK     1      29.536  -9.391  30.977  1.00  0.00     0.033 A 
HETATM    9  C7  UNK     1      31.971  -9.307  33.771  1.00  0.00     0.155 C 
HETATM   10  C9  UNK     1      28.355  -7.309  32.544  1.00  0.00     0.298 A 
HETATM   11  C10 UNK     1      28.401  -8.715  30.537  1.00  0.00     0.092 A 
HETATM   12  C13 UNK     1      30.066 -10.393  30.156  1.00  0.00     0.017 A 
HETATM   13  C16 UNK     1      27.789  -9.007  29.318  1.00  0.00     0.038 A 
HETATM   14  C17 UNK     1      29.464 -10.698  28.931  1.00  0.00     0.001 A 
HETATM   15  C18 UNK     1      28.328 -10.006  28.513  1.00  0.00     0.003 A 
ENDROOT
BRANCH   4  16
HETATM   16  C4  UNK     1      29.177  -8.024  35.495  1.00  0.00     0.002 A 
HETATM   17  C8  UNK     1      28.835  -7.242  36.566  1.00  0.00    -0.047 A 
HETATM   18  C12 UNK     1      27.894  -7.897  37.413  1.00  0.00     0.015 A 
HETATM   19  C14 UNK     1      29.365  -5.883  36.828  1.00  0.00     0.049 C 
HETATM   20  C15 UNK     1      27.563  -9.150  36.947  1.00  0.00     0.051 A 
HETATM   21  S1  UNK     1      28.383  -9.533  35.494  1.00  0.00    -0.105 SA
ENDBRANCH   4  16
BRANCH   6  22
HETATM   22  C11 UNK     1      32.260  -7.884  35.755  1.00  0.00     0.294 C 
HETATM   23  O5  UNK     1      32.642  -6.735  35.874  1.00  0.00    -0.259 OA
BRANCH  22  24
HETATM   24  O3  UNK     1      32.448  -8.925  36.600  1.00  0.00    -0.318 OA
BRANCH  24  25
HETATM   25  C19 UNK     1      31.921  -8.738  37.918  1.00  0.00     0.174 C 
HETATM   26  C20 UNK     1      31.007  -9.898  38.253  1.00  0.00     0.034 C 
ENDBRANCH  24  25
ENDBRANCH  22  24
ENDBRANCH   6  22
BRANCH   9  27
HETATM   27  N1  UNK     1      33.167  -9.954  33.897  1.00  0.00    -0.379 N 
HETATM   28  H10 UNK     1      33.415 -10.356  34.792  1.00  0.00     0.158 HD
HETATM   29  H9  UNK     1      33.798 -10.027  33.110  1.00  0.00     0.158 HD
ENDBRANCH   9  27
TORSDOF 5
ENDMDL
MODEL 10
REMARK VINA RESULT:      -6.6      2.462      6.069
REMARK  5 active torsions:
REMARK  status: ('A' for Active; 'I' for Inactive)
REMARK    1  A    between atoms: C11_18  and  O3_4 
REMARK    2  A    between atoms: C19_26  and  O3_4 
REMARK    3  A    between atoms: C7_14  and  N1_7 
REMARK    4  A    between atoms: C1_8  and  C4_11 
REMARK    5  A    between atoms: C11_18  and  C3_10 
ROOT
HETATM    1  O1  UNK     1      31.802  -5.669  35.114  1.00  0.00    -0.292 OA
HETATM    2  O2  UNK     1      28.163  -7.022  36.678  1.00  0.00    -0.274 OA
HETATM    3  O4  UNK     1      27.982  -8.521  34.969  1.00  0.00    -0.259 OA
HETATM    4  C1  UNK     1      30.389  -7.682  33.629  1.00  0.00     0.111 C 
HETATM    5  C2  UNK     1      29.884  -7.095  34.935  1.00  0.00     0.066 A 
HETATM    6  C3  UNK     1      31.819  -7.257  33.338  1.00  0.00     0.081 C 
HETATM    7  C5  UNK     1      30.587  -6.148  35.575  1.00  0.00     0.104 A 
HETATM    8  C6  UNK     1      30.098  -5.553  36.815  1.00  0.00     0.033 A 
HETATM    9  C7  UNK     1      32.451  -6.301  34.050  1.00  0.00     0.155 C 
HETATM   10  C9  UNK     1      28.613  -7.615  35.503  1.00  0.00     0.298 A 
HETATM   11  C10 UNK     1      28.888  -6.007  37.331  1.00  0.00     0.092 A 
HETATM   12  C13 UNK     1      30.776  -4.547  37.514  1.00  0.00     0.017 A 
HETATM   13  C16 UNK     1      28.343  -5.493  38.508  1.00  0.00     0.038 A 
HETATM   14  C17 UNK     1      30.244  -4.020  38.695  1.00  0.00     0.001 A 
HETATM   15  C18 UNK     1      29.029  -4.493  39.191  1.00  0.00     0.003 A 
ENDROOT
BRANCH   4  16
HETATM   16  C4  UNK     1      29.477  -7.369  32.488  1.00  0.00     0.002 A 
HETATM   17  C8  UNK     1      28.917  -8.233  31.586  1.00  0.00    -0.047 A 
HETATM   18  C12 UNK     1      28.099  -7.548  30.642  1.00  0.00     0.015 A 
HETATM   19  C14 UNK     1      29.122  -9.701  31.578  1.00  0.00     0.049 C 
HETATM   20  C15 UNK     1      28.075  -6.190  30.868  1.00  0.00     0.051 A 
HETATM   21  S1  UNK     1      29.035  -5.745  32.214  1.00  0.00    -0.105 SA
ENDBRANCH   4  16
BRANCH   6  22
HETATM   22  C11 UNK     1      32.506  -7.969  32.246  1.00  0.00     0.294 C 
HETATM   23  O5  UNK     1      32.835  -9.139  32.314  1.00  0.00    -0.259 OA
BRANCH  22  24
HETATM   24  O3  UNK     1      32.682  -7.105  31.218  1.00  0.00    -0.318 OA
BRANCH  24  25
HETATM   25  C19 UNK     1      32.221  -7.575  29.947  1.00  0.00     0.174 C 
HETATM   26  C20 UNK     1      31.467  -6.460  29.253  1.00  0.00     0.034 C 
ENDBRANCH  24  25
ENDBRANCH  22  24
ENDBRANCH   6  22
BRANCH   9  27
HETATM   27  N1  UNK     1      33.723  -5.847  33.849  1.00  0.00    -0.379 N 
HETATM   28  H10 UNK     1      33.938  -5.352  32.993  1.00  0.00     0.158 HD
HETATM   29  H9  UNK     1      34.442  -6.006  34.543  1.00  0.00     0.158 HD
ENDBRANCH   9  27
TORSDOF 5
ENDMDL
