MODEL 1
REMARK VINA RESULT:      -7.8      0.000      0.000
REMARK  5 active torsions:
REMARK  status: ('A' for Active; 'I' for Inactive)
REMARK    1  A    between atoms: C1_5  and  O1_2 
REMARK    2  A    between atoms: C2_6  and  O1_2 
REMARK    3  A    between atoms: C4_8  and  O2_3 
REMARK    4  A    between atoms: C3_7  and  C8_12 
REMARK    5  A    between atoms: C11_15  and  C12_16 
ROOT
HETATM    1  N1  UNK     1      20.329   5.451  30.436  1.00  0.00    -0.191 NA
HETATM    2  C8  UNK     1      17.761   3.637  31.852  1.00  0.00     0.038 C 
HETATM    3  C11 UNK     1      18.235   4.911  31.879  1.00  0.00     0.055 C 
HETATM    4  C19 UNK     1      19.395   5.201  31.077  1.00  0.00     0.100 C 
ENDROOT
BRANCH   3   5
HETATM    5  C12 UNK     1      17.634   5.982  32.659  1.00  0.00    -0.015 A 
HETATM    6  C14 UNK     1      18.277   6.458  33.803  1.00  0.00     0.014 A 
HETATM    7  C16 UNK     1      17.701   7.485  34.550  1.00  0.00     0.024 A 
HETATM    8  C17 UNK     1      16.483   8.037  34.154  1.00  0.00     0.034 A 
HETATM    9  C15 UNK     1      15.841   7.562  33.011  1.00  0.00     0.024 A 
HETATM   10 Cl1  UNK     1      15.772   9.305  35.076  1.00  0.00    -0.084 Cl
HETATM   11  C13 UNK     1      16.416   6.535  32.264  1.00  0.00     0.014 A 
ENDBRANCH   3   5
BRANCH   2  12
HETATM   12  C3  UNK     1      18.332   2.527  31.074  1.00  0.00     0.002 A 
HETATM   13  C2  UNK     1      19.002   1.490  31.708  1.00  0.00     0.112 A 
HETATM   14  C4  UNK     1      19.534   0.449  30.946  1.00  0.00     0.102 A 
HETATM   15  C9  UNK     1      19.391   0.456  29.559  1.00  0.00     0.040 A 
HETATM   16  C10 UNK     1      18.715   1.503  28.932  1.00  0.00     0.004 A 
HETATM   17  C7  UNK     1      18.182   2.544  29.694  1.00  0.00     0.014 A 
BRANCH  13  18
HETATM   18  O1  UNK     1      19.149   1.471  33.065  1.00  0.00    -0.343 OA
BRANCH  18  19
HETATM   19  C1  UNK     1      18.008   1.098  33.832  1.00  0.00     0.121 C 
HETATM   20  C5  UNK     1      18.059  -0.396  34.113  1.00  0.00     0.040 C 
HETATM   21  C6  UNK     1      17.980   1.915  35.115  1.00  0.00     0.040 C 
ENDBRANCH  18  19
ENDBRANCH  13  18
BRANCH  14  22
HETATM   22  O2  UNK     1      20.197  -0.580  31.545  1.00  0.00    -0.353 OA
HETATM   23  C18 UNK     1      20.209  -1.830  30.858  1.00  0.00     0.210 C 
ENDBRANCH  14  22
ENDBRANCH   2  12
TORSDOF 5
ENDMDL
MODEL 2
REMARK VINA RESULT:      -7.5     23.232     24.959
REMARK  5 active torsions:
REMARK  status: ('A' for Active; 'I' for Inactive)
REMARK    1  A    between atoms: C1_5  and  O1_2 
REMARK    2  A    between atoms: C2_6  and  O1_2 
REMARK    3  A    between atoms: C4_8  and  O2_3 
REMARK    4  A    between atoms: C3_7  and  C8_12 
REMARK    5  A    between atoms: C11_15  and  C12_16 
ROOT
HETATM    1  N1  UNK     1      13.164   5.527  10.025  1.00  0.00    -0.191 NA
HETATM    2  C8  UNK     1      12.451   8.230   8.006  1.00  0.00     0.038 C 
HETATM    3  C11 UNK     1      13.446   7.822   8.838  1.00  0.00     0.055 C 
HETATM    4  C19 UNK     1      13.281   6.550   9.491  1.00  0.00     0.100 C 
ENDROOT
BRANCH   3   5
HETATM    5  C12 UNK     1      14.655   8.592   9.093  1.00  0.00    -0.015 A 
HETATM    6  C14 UNK     1      15.630   8.094   9.958  1.00  0.00     0.014 A 
HETATM    7  C16 UNK     1      16.788   8.832  10.201  1.00  0.00     0.024 A 
HETATM    8  C17 UNK     1      16.972  10.067   9.578  1.00  0.00     0.034 A 
HETATM    9  C15 UNK     1      15.998  10.563   8.712  1.00  0.00     0.024 A 
HETATM   10 Cl1  UNK     1      18.402  10.977   9.877  1.00  0.00    -0.084 Cl
HETATM   11  C13 UNK     1      14.840   9.826   8.470  1.00  0.00     0.014 A 
ENDBRANCH   3   5
BRANCH   2  12
HETATM   12  C3  UNK     1      11.218   7.482   7.716  1.00  0.00     0.002 A 
HETATM   13  C2  UNK     1      10.177   7.450   8.633  1.00  0.00     0.112 A 
HETATM   14  C4  UNK     1       9.018   6.734   8.332  1.00  0.00     0.102 A 
HETATM   15  C9  UNK     1       8.913   6.057   7.117  1.00  0.00     0.040 A 
HETATM   16  C10 UNK     1       9.964   6.096   6.203  1.00  0.00     0.004 A 
HETATM   17  C7  UNK     1      11.123   6.813   6.503  1.00  0.00     0.014 A 
BRANCH  13  18
HETATM   18  O1  UNK     1      10.268   8.108   9.825  1.00  0.00    -0.343 OA
BRANCH  18  19
HETATM   19  C1  UNK     1       9.938   9.494   9.823  1.00  0.00     0.121 C 
HETATM   20  C5  UNK     1       8.622   9.697  10.559  1.00  0.00     0.040 C 
HETATM   21  C6  UNK     1      11.072  10.279  10.466  1.00  0.00     0.040 C 
ENDBRANCH  18  19
ENDBRANCH  13  18
BRANCH  14  22
HETATM   22  O2  UNK     1       7.983   6.687   9.216  1.00  0.00    -0.353 OA
HETATM   23  C18 UNK     1       7.615   5.403   9.717  1.00  0.00     0.210 C 
ENDBRANCH  14  22
ENDBRANCH   2  12
TORSDOF 5
ENDMDL
MODEL 3
REMARK VINA RESULT:      -7.2      2.994      5.151
REMARK  5 active torsions:
REMARK  status: ('A' for Active; 'I' for Inactive)
REMARK    1  A    between atoms: C1_5  and  O1_2 
REMARK    2  A    between atoms: C2_6  and  O1_2 
REMARK    3  A    between atoms: C4_8  and  O2_3 
REMARK    4  A    between atoms: C3_7  and  C8_12 
REMARK    5  A    between atoms: C11_15  and  C12_16 
ROOT
HETATM    1  N1  UNK     1      20.107   2.712  36.587  1.00  0.00    -0.191 NA
HETATM    2  C8  UNK     1      17.823   1.177  34.510  1.00  0.00     0.038 C 
HETATM    3  C11 UNK     1      18.494   2.358  34.580  1.00  0.00     0.055 C 
HETATM    4  C19 UNK     1      19.384   2.545  35.695  1.00  0.00     0.100 C 
ENDROOT
BRANCH   3   5
HETATM    5  C12 UNK     1      18.363   3.422  33.596  1.00  0.00    -0.015 A 
HETATM    6  C14 UNK     1      18.342   4.755  34.009  1.00  0.00     0.014 A 
HETATM    7  C16 UNK     1      18.219   5.774  33.065  1.00  0.00     0.024 A 
HETATM    8  C17 UNK     1      18.117   5.462  31.710  1.00  0.00     0.034 A 
HETATM    9  C15 UNK     1      18.138   4.130  31.298  1.00  0.00     0.024 A 
HETATM   10 Cl1  UNK     1      17.964   6.721  30.546  1.00  0.00    -0.084 Cl
HETATM   11  C13 UNK     1      18.261   3.110  32.241  1.00  0.00     0.014 A 
ENDBRANCH   3   5
BRANCH   2  12
HETATM   12  C3  UNK     1      17.928   0.073  35.476  1.00  0.00     0.002 A 
HETATM   13  C2  UNK     1      18.890  -0.915  35.319  1.00  0.00     0.112 A 
HETATM   14  C4  UNK     1      18.969  -1.951  36.250  1.00  0.00     0.102 A 
HETATM   15  C9  UNK     1      18.084  -1.989  37.328  1.00  0.00     0.040 A 
HETATM   16  C10 UNK     1      17.122  -0.991  37.476  1.00  0.00     0.004 A 
HETATM   17  C7  UNK     1      17.043   0.046  36.546  1.00  0.00     0.014 A 
BRANCH  13  18
HETATM   18  O1  UNK     1      19.761  -0.891  34.269  1.00  0.00    -0.343 OA
BRANCH  18  19
HETATM   19  C1  UNK     1      19.463  -1.738  33.163  1.00  0.00     0.121 C 
HETATM   20  C5  UNK     1      19.054  -0.884  31.973  1.00  0.00     0.040 C 
HETATM   21  C6  UNK     1      20.678  -2.600  32.851  1.00  0.00     0.040 C 
ENDBRANCH  18  19
ENDBRANCH  13  18
BRANCH  14  22
HETATM   22  O2  UNK     1      19.904  -2.933  36.118  1.00  0.00    -0.353 OA
HETATM   23  C18 UNK     1      20.221  -3.687  37.287  1.00  0.00     0.210 C 
ENDBRANCH  14  22
ENDBRANCH   2  12
TORSDOF 5
ENDMDL
MODEL 4
REMARK VINA RESULT:      -7.1     13.335     15.766
REMARK  5 active torsions:
REMARK  status: ('A' for Active; 'I' for Inactive)
REMARK    1  A    between atoms: C1_5  and  O1_2 
REMARK    2  A    between atoms: C2_6  and  O1_2 
REMARK    3  A    between atoms: C4_8  and  O2_3 
REMARK    4  A    between atoms: C3_7  and  C8_12 
REMARK    5  A    between atoms: C11_15  and  C12_16 
ROOT
HETATM    1  N1  UNK     1      25.242  -5.244  38.779  1.00  0.00    -0.191 NA
HETATM    2  C8  UNK     1      24.287  -8.553  38.607  1.00  0.00     0.038 C 
HETATM    3  C11 UNK     1      25.439  -7.834  38.676  1.00  0.00     0.055 C 
HETATM    4  C19 UNK     1      25.320  -6.401  38.732  1.00  0.00     0.100 C 
ENDROOT
BRANCH   3   5
HETATM    5  C12 UNK     1      26.766  -8.431  38.703  1.00  0.00    -0.015 A 
HETATM    6  C14 UNK     1      27.040  -9.483  39.578  1.00  0.00     0.014 A 
HETATM    7  C16 UNK     1      28.312 -10.055  39.602  1.00  0.00     0.024 A 
HETATM    8  C17 UNK     1      29.309  -9.578  38.752  1.00  0.00     0.034 A 
HETATM    9  C15 UNK     1      29.034  -8.527  37.877  1.00  0.00     0.024 A 
HETATM   10 Cl1  UNK     1      30.877 -10.285  38.783  1.00  0.00    -0.084 Cl
HETATM   11  C13 UNK     1      27.763  -7.953  37.853  1.00  0.00     0.014 A 
ENDBRANCH   3   5
BRANCH   2  12
HETATM   12  C3  UNK     1      22.928  -7.992  38.584  1.00  0.00     0.002 A 
HETATM   13  C2  UNK     1      22.165  -8.032  37.425  1.00  0.00     0.112 A 
HETATM   14  C4  UNK     1      20.879  -7.493  37.430  1.00  0.00     0.102 A 
HETATM   15  C9  UNK     1      20.367  -6.920  38.595  1.00  0.00     0.040 A 
HETATM   16  C10 UNK     1      21.142  -6.886  39.754  1.00  0.00     0.004 A 
HETATM   17  C7  UNK     1      22.428  -7.425  39.749  1.00  0.00     0.014 A 
BRANCH  13  18
HETATM   18  O1  UNK     1      22.654  -8.590  36.279  1.00  0.00    -0.343 OA
BRANCH  18  19
HETATM   19  C1  UNK     1      22.455  -9.990  36.108  1.00  0.00     0.121 C 
HETATM   20  C5  UNK     1      21.669 -10.232  34.828  1.00  0.00     0.040 C 
HETATM   21  C6  UNK     1      23.807 -10.688  36.083  1.00  0.00     0.040 C 
ENDBRANCH  18  19
ENDBRANCH  13  18
BRANCH  14  22
HETATM   22  O2  UNK     1      20.111  -7.519  36.305  1.00  0.00    -0.353 OA
HETATM   23  C18 UNK     1      18.903  -8.275  36.362  1.00  0.00     0.210 C 
ENDBRANCH  14  22
ENDBRANCH   2  12
TORSDOF 5
ENDMDL
MODEL 5
REMARK VINA RESULT:      -7.0     15.109     17.309
REMARK  5 active torsions:
REMARK  status: ('A' for Active; 'I' for Inactive)
REMARK    1  A    between atoms: C1_5  and  O1_2 
REMARK    2  A    between atoms: C2_6  and  O1_2 
REMARK    3  A    between atoms: C4_8  and  O2_3 
REMARK    4  A    between atoms: C3_7  and  C8_12 
REMARK    5  A    between atoms: C11_15  and  C12_16 
ROOT
HETATM    1  N1  UNK     1      27.728 -10.074  40.077  1.00  0.00    -0.191 NA
HETATM    2  C8  UNK     1      28.209  -9.034  36.825  1.00  0.00     0.038 C 
HETATM    3  C11 UNK     1      27.227  -9.607  37.570  1.00  0.00     0.055 C 
HETATM    4  C19 UNK     1      27.513  -9.862  38.957  1.00  0.00     0.100 C 
ENDROOT
BRANCH   3   5
HETATM    5  C12 UNK     1      25.917  -9.964  37.044  1.00  0.00    -0.015 A 
HETATM    6  C14 UNK     1      25.728 -11.197  36.420  1.00  0.00     0.014 A 
HETATM    7  C16 UNK     1      24.473 -11.538  35.917  1.00  0.00     0.024 A 
HETATM    8  C17 UNK     1      23.406 -10.648  36.039  1.00  0.00     0.034 A 
HETATM    9  C15 UNK     1      23.596  -9.415  36.664  1.00  0.00     0.024 A 
HETATM   10 Cl1  UNK     1      21.857 -11.069  35.419  1.00  0.00    -0.084 Cl
HETATM   11  C13 UNK     1      24.851  -9.073  37.166  1.00  0.00     0.014 A 
ENDBRANCH   3   5
BRANCH   2  12
HETATM   12  C3  UNK     1      29.543  -8.652  37.315  1.00  0.00     0.002 A 
HETATM   13  C2  UNK     1      29.830  -7.330  37.629  1.00  0.00     0.112 A 
HETATM   14  C4  UNK     1      31.102  -6.995  38.091  1.00  0.00     0.102 A 
HETATM   15  C9  UNK     1      32.075  -7.984  38.236  1.00  0.00     0.040 A 
HETATM   16  C10 UNK     1      31.776  -9.308  37.918  1.00  0.00     0.004 A 
HETATM   17  C7  UNK     1      30.503  -9.644  37.455  1.00  0.00     0.014 A 
BRANCH  13  18
HETATM   18  O1  UNK     1      28.887  -6.353  37.492  1.00  0.00    -0.343 OA
BRANCH  18  19
HETATM   19  C1  UNK     1      28.279  -5.872  38.688  1.00  0.00     0.121 C 
HETATM   20  C5  UNK     1      28.561  -4.383  38.829  1.00  0.00     0.040 C 
HETATM   21  C6  UNK     1      26.787  -6.164  38.643  1.00  0.00     0.040 C 
ENDBRANCH  18  19
ENDBRANCH  13  18
BRANCH  14  22
HETATM   22  O2  UNK     1      31.409  -5.705  38.406  1.00  0.00    -0.353 OA
HETATM   23  C18 UNK     1      32.194  -4.977  37.464  1.00  0.00     0.210 C 
ENDBRANCH  14  22
ENDBRANCH   2  12
TORSDOF 5
ENDMDL
MODEL 6
REMARK VINA RESULT:      -7.0     22.944     24.339
REMARK  5 active torsions:
REMARK  status: ('A' for Active; 'I' for Inactive)
REMARK    1  A    between atoms: C1_5  and  O1_2 
REMARK    2  A    between atoms: C2_6  and  O1_2 
REMARK    3  A    between atoms: C4_8  and  O2_3 
REMARK    4  A    between atoms: C3_7  and  C8_12 
REMARK    5  A    between atoms: C11_15  and  C12_16 
ROOT
HETATM    1  N1  UNK     1      14.887   6.261  10.619  1.00  0.00    -0.191 NA
HETATM    2  C8  UNK     1      13.625   8.796   8.652  1.00  0.00     0.038 C 
HETATM    3  C11 UNK     1      14.648   8.608   9.529  1.00  0.00     0.055 C 
HETATM    4  C19 UNK     1      14.772   7.306  10.128  1.00  0.00     0.100 C 
ENDROOT
BRANCH   3   5
HETATM    5  C12 UNK     1      15.612   9.640   9.881  1.00  0.00    -0.015 A 
HETATM    6  C14 UNK     1      15.217  10.725  10.665  1.00  0.00     0.014 A 
HETATM    7  C16 UNK     1      16.142  11.712  11.002  1.00  0.00     0.024 A 
HETATM    8  C17 UNK     1      17.461  11.616  10.557  1.00  0.00     0.034 A 
HETATM    9  C15 UNK     1      17.854  10.531   9.774  1.00  0.00     0.024 A 
HETATM   10 Cl1  UNK     1      18.601  12.835  10.975  1.00  0.00    -0.084 Cl
HETATM   11  C13 UNK     1      16.930   9.544   9.436  1.00  0.00     0.014 A 
ENDBRANCH   3   5
BRANCH   2  12
HETATM   12  C3  UNK     1      12.633   7.782   8.263  1.00  0.00     0.002 A 
HETATM   13  C2  UNK     1      11.461   7.623   8.989  1.00  0.00     0.112 A 
HETATM   14  C4  UNK     1      10.537   6.654   8.598  1.00  0.00     0.102 A 
HETATM   15  C9  UNK     1      10.795   5.852   7.486  1.00  0.00     0.040 A 
HETATM   16  C10 UNK     1      11.976   6.020   6.764  1.00  0.00     0.004 A 
HETATM   17  C7  UNK     1      12.900   6.990   7.154  1.00  0.00     0.014 A 
BRANCH  13  18
HETATM   18  O1  UNK     1      11.196   8.401  10.079  1.00  0.00    -0.343 OA
BRANCH  18  19
HETATM   19  C1  UNK     1      10.589   9.666   9.835  1.00  0.00     0.121 C 
HETATM   20  C5  UNK     1       9.149   9.633  10.326  1.00  0.00     0.040 C 
HETATM   21  C6  UNK     1      11.398  10.751  10.530  1.00  0.00     0.040 C 
ENDBRANCH  18  19
ENDBRANCH  13  18
BRANCH  14  22
HETATM   22  O2  UNK     1       9.379   6.478   9.294  1.00  0.00    -0.353 OA
HETATM   23  C18 UNK     1       8.182   6.331   8.533  1.00  0.00     0.210 C 
ENDBRANCH  14  22
ENDBRANCH   2  12
TORSDOF 5
ENDMDL
MODEL 7
REMARK VINA RESULT:      -6.8     11.049     14.670
REMARK  5 active torsions:
REMARK  status: ('A' for Active; 'I' for Inactive)
REMARK    1  A    between atoms: C1_5  and  O1_2 
REMARK    2  A    between atoms: C2_6  and  O1_2 
REMARK    3  A    between atoms: C4_8  and  O2_3 
REMARK    4  A    between atoms: C3_7  and  C8_12 
REMARK    5  A    between atoms: C11_15  and  C12_16 
ROOT
HETATM    1  N1  UNK     1      22.440  -8.320  40.354  1.00  0.00    -0.191 NA
HETATM    2  C8  UNK     1      22.897  -8.825  36.974  1.00  0.00     0.038 C 
HETATM    3  C11 UNK     1      23.652  -8.523  38.064  1.00  0.00     0.055 C 
HETATM    4  C19 UNK     1      22.973  -8.412  39.328  1.00  0.00     0.100 C 
ENDROOT
BRANCH   3   5
HETATM    5  C12 UNK     1      25.092  -8.316  38.018  1.00  0.00    -0.015 A 
HETATM    6  C14 UNK     1      25.888  -9.127  37.208  1.00  0.00     0.014 A 
HETATM    7  C16 UNK     1      27.267  -8.927  37.165  1.00  0.00     0.024 A 
HETATM    8  C17 UNK     1      27.851  -7.918  37.930  1.00  0.00     0.034 A 
HETATM    9  C15 UNK     1      27.055  -7.108  38.739  1.00  0.00     0.024 A 
HETATM   10 Cl1  UNK     1      29.554  -7.672  37.876  1.00  0.00    -0.084 Cl
HETATM   11  C13 UNK     1      25.676  -7.307  38.784  1.00  0.00     0.014 A 
ENDBRANCH   3   5
BRANCH   2  12
HETATM   12  C3  UNK     1      21.443  -9.049  36.975  1.00  0.00     0.002 A 
HETATM   13  C2  UNK     1      20.567  -8.012  36.681  1.00  0.00     0.112 A 
HETATM   14  C4  UNK     1      19.193  -8.251  36.688  1.00  0.00     0.102 A 
HETATM   15  C9  UNK     1      18.708  -9.524  36.990  1.00  0.00     0.040 A 
HETATM   16  C10 UNK     1      19.596 -10.557  37.284  1.00  0.00     0.004 A 
HETATM   17  C7  UNK     1      20.971 -10.319  37.276  1.00  0.00     0.014 A 
BRANCH  13  18
HETATM   18  O1  UNK     1      21.029  -6.762  36.384  1.00  0.00    -0.343 OA
BRANCH  18  19
HETATM   19  C1  UNK     1      20.679  -5.715  37.284  1.00  0.00     0.121 C 
HETATM   20  C5  UNK     1      21.904  -5.321  38.094  1.00  0.00     0.040 C 
HETATM   21  C6  UNK     1      20.122  -4.541  36.492  1.00  0.00     0.040 C 
ENDBRANCH  18  19
ENDBRANCH  13  18
BRANCH  14  22
HETATM   22  O2  UNK     1      18.313  -7.250  36.404  1.00  0.00    -0.353 OA
HETATM   23  C18 UNK     1      17.405  -7.473  35.327  1.00  0.00     0.210 C 
ENDBRANCH  14  22
ENDBRANCH   2  12
TORSDOF 5
ENDMDL
MODEL 8
REMARK VINA RESULT:      -6.6     22.638     24.375
REMARK  5 active torsions:
REMARK  status: ('A' for Active; 'I' for Inactive)
REMARK    1  A    between atoms: C1_5  and  O1_2 
REMARK    2  A    between atoms: C2_6  and  O1_2 
REMARK    3  A    between atoms: C4_8  and  O2_3 
REMARK    4  A    between atoms: C3_7  and  C8_12 
REMARK    5  A    between atoms: C11_15  and  C12_16 
ROOT
HETATM    1  N1  UNK     1      12.362  10.204  10.537  1.00  0.00    -0.191 NA
HETATM    2  C8  UNK     1      13.994   8.353   8.129  1.00  0.00     0.038 C 
HETATM    3  C11 UNK     1      14.214   9.473   8.866  1.00  0.00     0.055 C 
HETATM    4  C19 UNK     1      13.183   9.871   9.788  1.00  0.00     0.100 C 
ENDROOT
BRANCH   3   5
HETATM    5  C12 UNK     1      15.425  10.276   8.775  1.00  0.00    -0.015 A 
HETATM    6  C14 UNK     1      16.450  10.099   9.704  1.00  0.00     0.014 A 
HETATM    7  C16 UNK     1      17.610  10.868   9.616  1.00  0.00     0.024 A 
HETATM    8  C17 UNK     1      17.746  11.814   8.600  1.00  0.00     0.034 A 
HETATM    9  C15 UNK     1      16.720  11.991   7.672  1.00  0.00     0.024 A 
HETATM   10 Cl1  UNK     1      19.177  12.762   8.493  1.00  0.00    -0.084 Cl
HETATM   11  C13 UNK     1      15.560  11.222   7.760  1.00  0.00     0.014 A 
ENDBRANCH   3   5
BRANCH   2  12
HETATM   12  C3  UNK     1      12.790   7.509   8.192  1.00  0.00     0.002 A 
HETATM   13  C2  UNK     1      12.639   6.566   9.199  1.00  0.00     0.112 A 
HETATM   14  C4  UNK     1      11.488   5.779   9.236  1.00  0.00     0.102 A 
HETATM   15  C9  UNK     1      10.500   5.942   8.265  1.00  0.00     0.040 A 
HETATM   16  C10 UNK     1      10.662   6.892   7.257  1.00  0.00     0.004 A 
HETATM   17  C7  UNK     1      11.813   7.680   7.220  1.00  0.00     0.014 A 
BRANCH  13  18
HETATM   18  O1  UNK     1      13.598   6.396  10.156  1.00  0.00    -0.343 OA
BRANCH  18  19
HETATM   19  C1  UNK     1      14.853   5.876   9.726  1.00  0.00     0.121 C 
HETATM   20  C5  UNK     1      15.970   6.573  10.487  1.00  0.00     0.040 C 
HETATM   21  C6  UNK     1      14.872   4.371   9.944  1.00  0.00     0.040 C 
ENDBRANCH  18  19
ENDBRANCH  13  18
BRANCH  14  22
HETATM   22  O2  UNK     1      11.316   4.846  10.215  1.00  0.00    -0.353 OA
HETATM   23  C18 UNK     1      10.034   4.228  10.303  1.00  0.00     0.210 C 
ENDBRANCH  14  22
ENDBRANCH   2  12
TORSDOF 5
ENDMDL
MODEL 9
REMARK VINA RESULT:      -6.6     15.552     18.537
REMARK  5 active torsions:
REMARK  status: ('A' for Active; 'I' for Inactive)
REMARK    1  A    between atoms: C1_5  and  O1_2 
REMARK    2  A    between atoms: C2_6  and  O1_2 
REMARK    3  A    between atoms: C4_8  and  O2_3 
REMARK    4  A    between atoms: C3_7  and  C8_12 
REMARK    5  A    between atoms: C11_15  and  C12_16 
ROOT
HETATM    1  N1  UNK     1      16.188  -2.716  16.575  1.00  0.00    -0.191 NA
HETATM    2  C8  UNK     1      19.490  -2.504  15.607  1.00  0.00     0.038 C 
HETATM    3  C11 UNK     1      18.573  -1.736  16.253  1.00  0.00     0.055 C 
HETATM    4  C19 UNK     1      17.255  -2.286  16.427  1.00  0.00     0.100 C 
ENDROOT
BRANCH   3   5
HETATM    5  C12 UNK     1      18.855  -0.407  16.777  1.00  0.00    -0.015 A 
HETATM    6  C14 UNK     1      19.156   0.638  15.903  1.00  0.00     0.014 A 
HETATM    7  C16 UNK     1      19.425   1.911  16.406  1.00  0.00     0.024 A 
HETATM    8  C17 UNK     1      19.393   2.139  17.782  1.00  0.00     0.034 A 
HETATM    9  C15 UNK     1      19.092   1.094  18.655  1.00  0.00     0.024 A 
HETATM   10 Cl1  UNK     1      19.725   3.710  18.401  1.00  0.00    -0.084 Cl
HETATM   11  C13 UNK     1      18.823  -0.179  18.153  1.00  0.00     0.014 A 
ENDBRANCH   3   5
BRANCH   2  12
HETATM   12  C3  UNK     1      19.251  -3.851  15.068  1.00  0.00     0.002 A 
HETATM   13  C2  UNK     1      18.887  -4.028  13.740  1.00  0.00     0.112 A 
HETATM   14  C4  UNK     1      18.667  -5.317  13.255  1.00  0.00     0.102 A 
HETATM   15  C9  UNK     1      18.812  -6.416  14.102  1.00  0.00     0.040 A 
HETATM   16  C10 UNK     1      19.178  -6.227  15.434  1.00  0.00     0.004 A 
HETATM   17  C7  UNK     1      19.399  -4.938  15.920  1.00  0.00     0.014 A 
BRANCH  13  18
HETATM   18  O1  UNK     1      18.742  -2.962  12.901  1.00  0.00    -0.343 OA
BRANCH  18  19
HETATM   19  C1  UNK     1      19.836  -2.668  12.036  1.00  0.00     0.121 C 
HETATM   20  C5  UNK     1      19.326  -2.547  10.608  1.00  0.00     0.040 C 
HETATM   21  C6  UNK     1      20.516  -1.390  12.505  1.00  0.00     0.040 C 
ENDBRANCH  18  19
ENDBRANCH  13  18
BRANCH  14  22
HETATM   22  O2  UNK     1      18.309  -5.517  11.955  1.00  0.00    -0.353 OA
HETATM   23  C18 UNK     1      19.195  -6.293  11.151  1.00  0.00     0.210 C 
ENDBRANCH  14  22
ENDBRANCH   2  12
TORSDOF 5
ENDMDL
MODEL 10
REMARK VINA RESULT:      -6.6     15.270     16.826
REMARK  5 active torsions:
REMARK  status: ('A' for Active; 'I' for Inactive)
REMARK    1  A    between atoms: C1_5  and  O1_2 
REMARK    2  A    between atoms: C2_6  and  O1_2 
REMARK    3  A    between atoms: C4_8  and  O2_3 
REMARK    4  A    between atoms: C3_7  and  C8_12 
REMARK    5  A    between atoms: C11_15  and  C12_16 
ROOT
HETATM    1  N1  UNK     1      29.933  -4.044  31.782  1.00  0.00    -0.191 NA
HETATM    2  C8  UNK     1      30.854  -7.018  33.265  1.00  0.00     0.038 C 
HETATM    3  C11 UNK     1      30.233  -6.602  32.129  1.00  0.00     0.055 C 
HETATM    4  C19 UNK     1      30.071  -5.184  31.945  1.00  0.00     0.100 C 
ENDROOT
BRANCH   3   5
HETATM    5  C12 UNK     1      29.737  -7.506  31.101  1.00  0.00    -0.015 A 
HETATM    6  C14 UNK     1      28.437  -8.006  31.180  1.00  0.00     0.014 A 
HETATM    7  C16 UNK     1      27.962  -8.871  30.195  1.00  0.00     0.024 A 
HETATM    8  C17 UNK     1      28.786  -9.236  29.130  1.00  0.00     0.034 A 
HETATM    9  C15 UNK     1      30.086  -8.735  29.051  1.00  0.00     0.024 A 
HETATM   10 Cl1  UNK     1      28.200 -10.303  27.914  1.00  0.00    -0.084 Cl
HETATM   11  C13 UNK     1      30.561  -7.871  30.037  1.00  0.00     0.014 A 
ENDBRANCH   3   5
BRANCH   2  12
HETATM   12  C3  UNK     1      31.376  -6.141  34.325  1.00  0.00     0.002 A 
HETATM   13  C2  UNK     1      30.558  -5.726  35.367  1.00  0.00     0.112 A 
HETATM   14  C4  UNK     1      31.078  -4.895  36.359  1.00  0.00     0.102 A 
HETATM   15  C9  UNK     1      32.410  -4.487  36.299  1.00  0.00     0.040 A 
HETATM   16  C10 UNK     1      33.223  -4.910  35.249  1.00  0.00     0.004 A 
HETATM   17  C7  UNK     1      32.704  -5.741  34.256  1.00  0.00     0.014 A 
BRANCH  13  18
HETATM   18  O1  UNK     1      29.252  -6.119  35.437  1.00  0.00    -0.343 OA
BRANCH  18  19
HETATM   19  C1  UNK     1      28.974  -7.304  36.178  1.00  0.00     0.121 C 
HETATM   20  C5  UNK     1      28.002  -6.976  37.301  1.00  0.00     0.040 C 
HETATM   21  C6  UNK     1      28.416  -8.362  35.237  1.00  0.00     0.040 C 
ENDBRANCH  18  19
ENDBRANCH  13  18
BRANCH  14  22
HETATM   22  O2  UNK     1      30.295  -4.474  37.392  1.00  0.00    -0.353 OA
HETATM   23  C18 UNK     1      30.705  -4.841  38.708  1.00  0.00     0.210 C 
ENDBRANCH  14  22
ENDBRANCH   2  12
TORSDOF 5
ENDMDL
