MODEL 1
REMARK VINA RESULT:      -9.7      0.000      0.000
REMARK  3 active torsions:
REMARK  status: ('A' for Active; 'I' for Inactive)
REMARK    1  A    between atoms: C5_10  and  N1_3 
REMARK    2  A    between atoms: C8_13  and  N2_4 
REMARK    3  A    between atoms: C5_10  and  C6_11 
ROOT
HETATM    1  O1  UNK     1      14.718   8.622  32.702  1.00  0.00    -0.275 OA
HETATM    2  O2  UNK     1      13.669   6.820  31.763  1.00  0.00    -0.260 OA
HETATM    3  C6  UNK     1      17.080   7.068  32.806  1.00  0.00    -0.011 A 
HETATM    4  C7  UNK     1      17.079   8.452  33.302  1.00  0.00     0.012 A 
HETATM    5  C9  UNK     1      15.946   6.558  32.305  1.00  0.00     0.092 A 
HETATM    6  C10 UNK     1      18.206   9.085  33.842  1.00  0.00    -0.048 A 
HETATM    7  C11 UNK     1      15.895   9.186  33.234  1.00  0.00     0.091 A 
HETATM    8  C13 UNK     1      18.135  10.407  34.296  1.00  0.00     0.014 A 
HETATM    9  C14 UNK     1      15.808  10.505  33.683  1.00  0.00     0.045 A 
HETATM   10  C15 UNK     1      16.938  11.116  34.216  1.00  0.00    -0.059 A 
HETATM   11  C16 UNK     1      14.688   7.320  32.227  1.00  0.00     0.288 A 
HETATM   12  C17 UNK     1      19.553   8.451  33.988  1.00  0.00     0.049 C 
HETATM   13  C20 UNK     1      16.869  12.525  34.701  1.00  0.00     0.048 C 
ENDROOT
BRANCH   3  14
HETATM   14  C5  UNK     1      18.297   6.188  32.834  1.00  0.00     0.312 C 
BRANCH  14  15
HETATM   15  N1  UNK     1      18.131   5.009  31.984  1.00  0.00     0.095 N 
HETATM   16  C1  UNK     1      18.336   3.781  32.761  1.00  0.00     0.292 C 
HETATM   17  C3  UNK     1      18.110   2.539  31.896  1.00  0.00     0.154 C 
HETATM   18  N2  UNK     1      18.938   2.596  30.688  1.00  0.00    -0.362 N 
HETATM   19  C4  UNK     1      18.870   3.851  29.929  1.00  0.00     0.154 C 
HETATM   20  C2  UNK     1      19.073   5.051  30.858  1.00  0.00     0.292 C 
BRANCH  18  21
HETATM   21  C8  UNK     1      19.225   1.420  29.986  1.00  0.00     0.125 A 
HETATM   22  C12 UNK     1      20.156   0.559  30.546  1.00  0.00     0.050 A 
HETATM   23  C18 UNK     1      20.452  -0.615  29.861  1.00  0.00     0.005 A 
HETATM   24  C21 UNK     1      19.817  -0.888  28.655  1.00  0.00     0.019 A 
HETATM   25  C19 UNK     1      18.901   0.037  28.180  1.00  0.00     0.119 A 
HETATM   26  N3  UNK     1      18.588   1.187  28.817  1.00  0.00    -0.244 NA
ENDBRANCH  18  21
ENDBRANCH  14  15
ENDBRANCH   3  14
TORSDOF 3
ENDMDL
MODEL 2
REMARK VINA RESULT:      -8.9      2.787      9.009
REMARK  3 active torsions:
REMARK  status: ('A' for Active; 'I' for Inactive)
REMARK    1  A    between atoms: C5_10  and  N1_3 
REMARK    2  A    between atoms: C8_13  and  N2_4 
REMARK    3  A    between atoms: C5_10  and  C6_11 
ROOT
HETATM    1  O1  UNK     1      18.769   0.730  33.697  1.00  0.00    -0.275 OA
HETATM    2  O2  UNK     1      18.131   1.845  35.589  1.00  0.00    -0.260 OA
HETATM    3  C6  UNK     1      18.237   3.098  32.243  1.00  0.00    -0.011 A 
HETATM    4  C7  UNK     1      18.722   1.895  31.551  1.00  0.00     0.012 A 
HETATM    5  C9  UNK     1      18.053   3.053  33.570  1.00  0.00     0.092 A 
HETATM    6  C10 UNK     1      18.951   1.831  30.170  1.00  0.00    -0.048 A 
HETATM    7  C11 UNK     1      18.973   0.747  32.303  1.00  0.00     0.091 A 
HETATM    8  C13 UNK     1      19.414   0.651  29.576  1.00  0.00     0.014 A 
HETATM    9  C14 UNK     1      19.434  -0.437  31.725  1.00  0.00     0.045 A 
HETATM   10  C15 UNK     1      19.655  -0.481  30.352  1.00  0.00    -0.059 A 
HETATM   11  C16 UNK     1      18.312   1.848  34.377  1.00  0.00     0.288 A 
HETATM   12  C17 UNK     1      18.739   2.963  29.217  1.00  0.00     0.049 C 
HETATM   13  C20 UNK     1      20.150  -1.734  29.713  1.00  0.00     0.048 C 
ENDROOT
BRANCH   3  14
HETATM   14  C5  UNK     1      17.932   4.386  31.532  1.00  0.00     0.312 C 
BRANCH  14  15
HETATM   15  N1  UNK     1      17.809   5.504  32.466  1.00  0.00     0.095 N 
HETATM   16  C1  UNK     1      16.521   6.185  32.288  1.00  0.00     0.292 C 
HETATM   17  C3  UNK     1      16.357   7.322  33.299  1.00  0.00     0.154 C 
HETATM   18  N2  UNK     1      17.500   8.236  33.237  1.00  0.00    -0.362 N 
HETATM   19  C4  UNK     1      18.824   7.603  33.288  1.00  0.00     0.154 C 
HETATM   20  C2  UNK     1      18.910   6.457  32.276  1.00  0.00     0.292 C 
BRANCH  18  21
HETATM   21  C8  UNK     1      17.377   9.539  33.733  1.00  0.00     0.125 A 
HETATM   22  C12 UNK     1      16.164   9.885  34.307  1.00  0.00     0.050 A 
HETATM   23  C18 UNK     1      16.025  11.176  34.805  1.00  0.00     0.005 A 
HETATM   24  C21 UNK     1      17.087  12.068  34.716  1.00  0.00     0.019 A 
HETATM   25  C19 UNK     1      18.259  11.624  34.124  1.00  0.00     0.119 A 
HETATM   26  N3  UNK     1      18.431  10.378  33.628  1.00  0.00    -0.244 NA
ENDBRANCH  18  21
ENDBRANCH  14  15
ENDBRANCH   3  14
TORSDOF 3
ENDMDL
MODEL 3
REMARK VINA RESULT:      -8.7      8.827     11.274
REMARK  3 active torsions:
REMARK  status: ('A' for Active; 'I' for Inactive)
REMARK    1  A    between atoms: C5_10  and  N1_3 
REMARK    2  A    between atoms: C8_13  and  N2_4 
REMARK    3  A    between atoms: C5_10  and  C6_11 
ROOT
HETATM    1  O1  UNK     1      18.156  -0.883  33.397  1.00  0.00    -0.275 OA
HETATM    2  O2  UNK     1      19.652  -1.809  31.937  1.00  0.00    -0.260 OA
HETATM    3  C6  UNK     1      19.649  -2.036  35.505  1.00  0.00    -0.011 A 
HETATM    4  C7  UNK     1      18.449  -1.238  35.796  1.00  0.00     0.012 A 
HETATM    5  C9  UNK     1      20.021  -2.207  34.229  1.00  0.00     0.092 A 
HETATM    6  C10 UNK     1      17.971  -0.994  37.090  1.00  0.00    -0.048 A 
HETATM    7  C11 UNK     1      17.739  -0.686  34.729  1.00  0.00     0.091 A 
HETATM    8  C13 UNK     1      16.821  -0.224  37.295  1.00  0.00     0.014 A 
HETATM    9  C14 UNK     1      16.590   0.084  34.918  1.00  0.00     0.045 A 
HETATM   10  C15 UNK     1      16.132   0.314  36.210  1.00  0.00    -0.059 A 
HETATM   11  C16 UNK     1      19.281  -1.631  33.092  1.00  0.00     0.288 A 
HETATM   12  C17 UNK     1      18.607  -1.505  38.344  1.00  0.00     0.049 C 
HETATM   13  C20 UNK     1      14.907   1.135  36.435  1.00  0.00     0.048 C 
ENDROOT
BRANCH   3  14
HETATM   14  C5  UNK     1      20.485  -2.679  36.575  1.00  0.00     0.312 C 
BRANCH  14  15
HETATM   15  N1  UNK     1      20.447  -4.138  36.487  1.00  0.00     0.095 N 
HETATM   16  C1  UNK     1      19.069  -4.626  36.615  1.00  0.00     0.292 C 
HETATM   17  C3  UNK     1      19.010  -6.149  36.468  1.00  0.00     0.154 C 
HETATM   18  N2  UNK     1      19.934  -6.793  37.406  1.00  0.00    -0.362 N 
HETATM   19  C4  UNK     1      21.304  -6.264  37.412  1.00  0.00     0.154 C 
HETATM   20  C2  UNK     1      21.289  -4.739  37.530  1.00  0.00     0.292 C 
BRANCH  18  21
HETATM   21  C8  UNK     1      19.747  -8.135  37.754  1.00  0.00     0.125 A 
HETATM   22  C12 UNK     1      19.975  -8.485  39.076  1.00  0.00     0.050 A 
HETATM   23  C18 UNK     1      19.793  -9.815  39.438  1.00  0.00     0.005 A 
HETATM   24  C21 UNK     1      19.394 -10.742  38.482  1.00  0.00     0.019 A 
HETATM   25  C19 UNK     1      19.191 -10.292  37.187  1.00  0.00     0.119 A 
HETATM   26  N3  UNK     1      19.358  -9.008  36.798  1.00  0.00    -0.244 NA
ENDBRANCH  18  21
ENDBRANCH  14  15
ENDBRANCH   3  14
TORSDOF 3
ENDMDL
MODEL 4
REMARK VINA RESULT:      -8.6      3.081      8.793
REMARK  3 active torsions:
REMARK  status: ('A' for Active; 'I' for Inactive)
REMARK    1  A    between atoms: C5_10  and  N1_3 
REMARK    2  A    between atoms: C8_13  and  N2_4 
REMARK    3  A    between atoms: C5_10  and  C6_11 
ROOT
HETATM    1  O1  UNK     1      18.149   1.932  33.154  1.00  0.00    -0.275 OA
HETATM    2  O2  UNK     1      18.025   2.285  35.410  1.00  0.00    -0.260 OA
HETATM    3  C6  UNK     1      18.596   4.708  32.844  1.00  0.00    -0.011 A 
HETATM    4  C7  UNK     1      18.555   3.827  31.668  1.00  0.00     0.012 A 
HETATM    5  C9  UNK     1      18.420   4.174  34.061  1.00  0.00     0.092 A 
HETATM    6  C10 UNK     1      18.728   4.277  30.352  1.00  0.00    -0.048 A 
HETATM    7  C11 UNK     1      18.332   2.463  31.862  1.00  0.00     0.091 A 
HETATM    8  C13 UNK     1      18.676   3.382  29.278  1.00  0.00     0.014 A 
HETATM    9  C14 UNK     1      18.277   1.558  30.800  1.00  0.00     0.045 A 
HETATM   10  C15 UNK     1      18.451   2.025  29.502  1.00  0.00    -0.059 A 
HETATM   11  C16 UNK     1      18.183   2.737  34.281  1.00  0.00     0.288 A 
HETATM   12  C17 UNK     1      18.978   5.699  29.964  1.00  0.00     0.049 C 
HETATM   13  C20 UNK     1      18.399   1.076  28.352  1.00  0.00     0.048 C 
ENDROOT
BRANCH   3  14
HETATM   14  C5  UNK     1      18.825   6.190  32.751  1.00  0.00     0.312 C 
BRANCH  14  15
HETATM   15  N1  UNK     1      17.830   6.940  33.516  1.00  0.00     0.095 N 
HETATM   16  C1  UNK     1      16.520   6.879  32.857  1.00  0.00     0.292 C 
HETATM   17  C3  UNK     1      15.457   7.614  33.678  1.00  0.00     0.154 C 
HETATM   18  N2  UNK     1      15.888   8.984  33.969  1.00  0.00    -0.362 N 
HETATM   19  C4  UNK     1      17.243   9.122  34.519  1.00  0.00     0.154 C 
HETATM   20  C2  UNK     1      18.248   8.339  33.670  1.00  0.00     0.292 C 
BRANCH  18  21
HETATM   21  C8  UNK     1      14.938   9.952  34.314  1.00  0.00     0.125 A 
HETATM   22  C12 UNK     1      14.011  10.303  33.345  1.00  0.00     0.050 A 
HETATM   23  C18 UNK     1      13.060  11.264  33.673  1.00  0.00     0.005 A 
HETATM   24  C21 UNK     1      13.065  11.835  34.939  1.00  0.00     0.019 A 
HETATM   25  C19 UNK     1      14.034  11.416  35.837  1.00  0.00     0.119 A 
HETATM   26  N3  UNK     1      14.974  10.486  35.555  1.00  0.00    -0.244 NA
ENDBRANCH  18  21
ENDBRANCH  14  15
ENDBRANCH   3  14
TORSDOF 3
ENDMDL
MODEL 5
REMARK VINA RESULT:      -8.5     21.006     23.324
REMARK  3 active torsions:
REMARK  status: ('A' for Active; 'I' for Inactive)
REMARK    1  A    between atoms: C5_10  and  N1_3 
REMARK    2  A    between atoms: C8_13  and  N2_4 
REMARK    3  A    between atoms: C5_10  and  C6_11 
ROOT
HETATM    1  O1  UNK     1       5.671   6.077  16.142  1.00  0.00    -0.275 OA
HETATM    2  O2  UNK     1       5.835   8.258  15.476  1.00  0.00    -0.260 OA
HETATM    3  C6  UNK     1       5.544   5.354  13.410  1.00  0.00    -0.011 A 
HETATM    4  C7  UNK     1       5.484   4.322  14.455  1.00  0.00     0.012 A 
HETATM    5  C9  UNK     1       5.660   6.639  13.774  1.00  0.00     0.092 A 
HETATM    6  C10 UNK     1       5.365   2.951  14.188  1.00  0.00    -0.048 A 
HETATM    7  C11 UNK     1       5.549   4.718  15.791  1.00  0.00     0.091 A 
HETATM    8  C13 UNK     1       5.313   2.021  15.232  1.00  0.00     0.014 A 
HETATM    9  C14 UNK     1       5.498   3.802  16.843  1.00  0.00     0.045 A 
HETATM   10  C15 UNK     1       5.380   2.446  16.557  1.00  0.00    -0.059 A 
HETATM   11  C16 UNK     1       5.729   7.073  15.180  1.00  0.00     0.288 A 
HETATM   12  C17 UNK     1       5.285   2.353  12.819  1.00  0.00     0.049 C 
HETATM   13  C20 UNK     1       5.325   1.450  17.666  1.00  0.00     0.048 C 
ENDROOT
BRANCH   3  14
HETATM   14  C5  UNK     1       5.479   5.041  11.942  1.00  0.00     0.312 C 
BRANCH  14  15
HETATM   15  N1  UNK     1       6.725   5.386  11.259  1.00  0.00     0.095 N 
HETATM   16  C1  UNK     1       6.492   6.441  10.266  1.00  0.00     0.292 C 
HETATM   17  C3  UNK     1       7.800   6.851   9.583  1.00  0.00     0.154 C 
HETATM   18  N2  UNK     1       8.478   5.679   9.024  1.00  0.00    -0.362 N 
HETATM   19  C4  UNK     1       8.633   4.538   9.936  1.00  0.00     0.154 C 
HETATM   20  C2  UNK     1       7.299   4.203  10.606  1.00  0.00     0.292 C 
BRANCH  18  21
HETATM   21  C8  UNK     1       9.431   5.844   8.013  1.00  0.00     0.125 A 
HETATM   22  C12 UNK     1       8.990   6.368   6.807  1.00  0.00     0.050 A 
HETATM   23  C18 UNK     1       9.925   6.539   5.792  1.00  0.00     0.005 A 
HETATM   24  C21 UNK     1      11.252   6.187   6.009  1.00  0.00     0.019 A 
HETATM   25  C19 UNK     1      11.592   5.672   7.250  1.00  0.00     0.119 A 
HETATM   26  N3  UNK     1      10.712   5.491   8.260  1.00  0.00    -0.244 NA
ENDBRANCH  18  21
ENDBRANCH  14  15
ENDBRANCH   3  14
TORSDOF 3
ENDMDL
MODEL 6
REMARK VINA RESULT:      -8.4      3.143      9.040
REMARK  3 active torsions:
REMARK  status: ('A' for Active; 'I' for Inactive)
REMARK    1  A    between atoms: C5_10  and  N1_3 
REMARK    2  A    between atoms: C8_13  and  N2_4 
REMARK    3  A    between atoms: C5_10  and  C6_11 
ROOT
HETATM    1  O1  UNK     1      18.905  -0.528  33.838  1.00  0.00    -0.275 OA
HETATM    2  O2  UNK     1      17.995   0.546  35.640  1.00  0.00    -0.260 OA
HETATM    3  C6  UNK     1      18.348   1.783  32.304  1.00  0.00    -0.011 A 
HETATM    4  C7  UNK     1      18.991   0.617  31.682  1.00  0.00     0.012 A 
HETATM    5  C9  UNK     1      18.033   1.732  33.606  1.00  0.00     0.092 A 
HETATM    6  C10 UNK     1      19.364   0.561  30.332  1.00  0.00    -0.048 A 
HETATM    7  C11 UNK     1      19.249  -0.505  32.471  1.00  0.00     0.091 A 
HETATM    8  C13 UNK     1      19.973  -0.583  29.805  1.00  0.00     0.014 A 
HETATM    9  C14 UNK     1      19.855  -1.653  31.959  1.00  0.00     0.045 A 
HETATM   10  C15 UNK     1      20.217  -1.688  30.617  1.00  0.00    -0.059 A 
HETATM   11  C16 UNK     1      18.298   0.556  34.452  1.00  0.00     0.288 A 
HETATM   12  C17 UNK     1      19.165   1.669  29.347  1.00  0.00     0.049 C 
HETATM   13  C20 UNK     1      20.868  -2.904  30.049  1.00  0.00     0.048 C 
ENDROOT
BRANCH   3  14
HETATM   14  C5  UNK     1      18.022   3.040  31.548  1.00  0.00     0.312 C 
BRANCH  14  15
HETATM   15  N1  UNK     1      18.631   4.217  32.166  1.00  0.00     0.095 N 
HETATM   16  C1  UNK     1      17.841   4.660  33.320  1.00  0.00     0.292 C 
HETATM   17  C3  UNK     1      18.499   5.859  34.009  1.00  0.00     0.154 C 
HETATM   18  N2  UNK     1      18.754   6.932  33.044  1.00  0.00    -0.362 N 
HETATM   19  C4  UNK     1      19.437   6.526  31.808  1.00  0.00     0.154 C 
HETATM   20  C2  UNK     1      18.748   5.308  31.190  1.00  0.00     0.292 C 
BRANCH  18  21
HETATM   21  C8  UNK     1      18.939   8.243  33.496  1.00  0.00     0.125 A 
HETATM   22  C12 UNK     1      20.147   8.537  34.109  1.00  0.00     0.050 A 
HETATM   23  C18 UNK     1      20.345   9.837  34.563  1.00  0.00     0.005 A 
HETATM   24  C21 UNK     1      19.346  10.787  34.394  1.00  0.00     0.019 A 
HETATM   25  C19 UNK     1      18.174  10.393  33.768  1.00  0.00     0.119 A 
HETATM   26  N3  UNK     1      17.945   9.140  33.313  1.00  0.00    -0.244 NA
ENDBRANCH  18  21
ENDBRANCH  14  15
ENDBRANCH   3  14
TORSDOF 3
ENDMDL
MODEL 7
REMARK VINA RESULT:      -8.4      9.381     14.064
REMARK  3 active torsions:
REMARK  status: ('A' for Active; 'I' for Inactive)
REMARK    1  A    between atoms: C5_10  and  N1_3 
REMARK    2  A    between atoms: C8_13  and  N2_4 
REMARK    3  A    between atoms: C5_10  and  C6_11 
ROOT
HETATM    1  O1  UNK     1      20.302  -8.560  34.921  1.00  0.00    -0.275 OA
HETATM    2  O2  UNK     1      20.651  -7.224  33.099  1.00  0.00    -0.260 OA
HETATM    3  C6  UNK     1      20.219  -6.216  36.502  1.00  0.00    -0.011 A 
HETATM    4  C7  UNK     1      20.046  -7.537  37.124  1.00  0.00     0.012 A 
HETATM    5  C9  UNK     1      20.416  -6.143  35.178  1.00  0.00     0.092 A 
HETATM    6  C10 UNK     1      19.834  -7.729  38.496  1.00  0.00    -0.048 A 
HETATM    7  C11 UNK     1      20.094  -8.670  36.311  1.00  0.00     0.091 A 
HETATM    8  C13 UNK     1      19.677  -9.017  39.021  1.00  0.00     0.014 A 
HETATM    9  C14 UNK     1      19.939  -9.960  36.820  1.00  0.00     0.045 A 
HETATM   10  C15 UNK     1      19.729 -10.130  38.185  1.00  0.00    -0.059 A 
HETATM   11  C16 UNK     1      20.469  -7.330  34.307  1.00  0.00     0.288 A 
HETATM   12  C17 UNK     1      19.753  -6.632  39.508  1.00  0.00     0.049 C 
HETATM   13  C20 UNK     1      19.559 -11.499  38.751  1.00  0.00     0.048 C 
ENDROOT
BRANCH   3  14
HETATM   14  C5  UNK     1      20.190  -4.932  37.282  1.00  0.00     0.312 C 
BRANCH  14  15
HETATM   15  N1  UNK     1      19.710  -3.816  36.469  1.00  0.00     0.095 N 
HETATM   16  C1  UNK     1      20.826  -2.946  36.079  1.00  0.00     0.292 C 
HETATM   17  C3  UNK     1      20.344  -1.804  35.180  1.00  0.00     0.154 C 
HETATM   18  N2  UNK     1      19.246  -1.074  35.819  1.00  0.00    -0.362 N 
HETATM   19  C4  UNK     1      18.151  -1.902  36.343  1.00  0.00     0.154 C 
HETATM   20  C2  UNK     1      18.704  -3.039  37.204  1.00  0.00     0.292 C 
BRANCH  18  21
HETATM   21  C8  UNK     1      18.944   0.228  35.406  1.00  0.00     0.125 A 
HETATM   22  C12 UNK     1      18.197   0.368  34.247  1.00  0.00     0.050 A 
HETATM   23  C18 UNK     1      17.889   1.656  33.823  1.00  0.00     0.005 A 
HETATM   24  C21 UNK     1      18.330   2.749  34.560  1.00  0.00     0.019 A 
HETATM   25  C19 UNK     1      19.071   2.503  35.705  1.00  0.00     0.119 A 
HETATM   26  N3  UNK     1      19.390   1.267  36.148  1.00  0.00    -0.244 NA
ENDBRANCH  18  21
ENDBRANCH  14  15
ENDBRANCH   3  14
TORSDOF 3
ENDMDL
MODEL 8
REMARK VINA RESULT:      -8.4      9.388     14.318
REMARK  3 active torsions:
REMARK  status: ('A' for Active; 'I' for Inactive)
REMARK    1  A    between atoms: C5_10  and  N1_3 
REMARK    2  A    between atoms: C8_13  and  N2_4 
REMARK    3  A    between atoms: C5_10  and  C6_11 
ROOT
HETATM    1  O1  UNK     1      23.310  -7.218  38.229  1.00  0.00    -0.275 OA
HETATM    2  O2  UNK     1      23.594  -5.335  39.495  1.00  0.00    -0.260 OA
HETATM    3  C6  UNK     1      20.892  -6.096  37.280  1.00  0.00    -0.011 A 
HETATM    4  C7  UNK     1      21.332  -7.418  36.811  1.00  0.00     0.012 A 
HETATM    5  C9  UNK     1      21.656  -5.434  38.161  1.00  0.00     0.092 A 
HETATM    6  C10 UNK     1      20.614  -8.196  35.892  1.00  0.00    -0.048 A 
HETATM    7  C11 UNK     1      22.530  -7.938  37.302  1.00  0.00     0.091 A 
HETATM    8  C13 UNK     1      21.091  -9.448  35.488  1.00  0.00     0.014 A 
HETATM    9  C14 UNK     1      23.018  -9.185  36.909  1.00  0.00     0.045 A 
HETATM   10  C15 UNK     1      22.291  -9.942  35.996  1.00  0.00    -0.059 A 
HETATM   11  C16 UNK     1      22.922  -5.970  38.689  1.00  0.00     0.288 A 
HETATM   12  C17 UNK     1      19.318  -7.794  35.265  1.00  0.00     0.049 C 
HETATM   13  C20 UNK     1      22.795 -11.276  35.561  1.00  0.00     0.048 C 
ENDROOT
BRANCH   3  14
HETATM   14  C5  UNK     1      19.620  -5.444  36.820  1.00  0.00     0.312 C 
BRANCH  14  15
HETATM   15  N1  UNK     1      19.760  -3.992  36.722  1.00  0.00     0.095 N 
HETATM   16  C1  UNK     1      18.543  -3.324  37.199  1.00  0.00     0.292 C 
HETATM   17  C3  UNK     1      18.699  -1.801  37.154  1.00  0.00     0.154 C 
HETATM   18  N2  UNK     1      19.105  -1.364  35.816  1.00  0.00    -0.362 N 
HETATM   19  C4  UNK     1      20.245  -2.081  35.231  1.00  0.00     0.154 C 
HETATM   20  C2  UNK     1      20.039  -3.594  35.337  1.00  0.00     0.292 C 
BRANCH  18  21
HETATM   21  C8  UNK     1      18.893  -0.038  35.424  1.00  0.00     0.125 A 
HETATM   22  C12 UNK     1      18.188   0.171  34.249  1.00  0.00     0.050 A 
HETATM   23  C18 UNK     1      17.968   1.484  33.846  1.00  0.00     0.005 A 
HETATM   24  C21 UNK     1      18.453   2.532  34.619  1.00  0.00     0.019 A 
HETATM   25  C19 UNK     1      19.146   2.218  35.778  1.00  0.00     0.119 A 
HETATM   26  N3  UNK     1      19.379   0.956  36.200  1.00  0.00    -0.244 NA
ENDBRANCH  18  21
ENDBRANCH  14  15
ENDBRANCH   3  14
TORSDOF 3
ENDMDL
MODEL 9
REMARK VINA RESULT:      -8.3      2.103      3.366
REMARK  3 active torsions:
REMARK  status: ('A' for Active; 'I' for Inactive)
REMARK    1  A    between atoms: C5_10  and  N1_3 
REMARK    2  A    between atoms: C8_13  and  N2_4 
REMARK    3  A    between atoms: C5_10  and  C6_11 
ROOT
HETATM    1  O1  UNK     1      19.130  10.639  34.277  1.00  0.00    -0.275 OA
HETATM    2  O2  UNK     1      21.144   9.579  34.503  1.00  0.00    -0.260 OA
HETATM    3  C6  UNK     1      17.896   8.094  34.334  1.00  0.00    -0.011 A 
HETATM    4  C7  UNK     1      17.083   9.310  34.195  1.00  0.00     0.012 A 
HETATM    5  C9  UNK     1      19.228   8.212  34.434  1.00  0.00     0.092 A 
HETATM    6  C10 UNK     1      15.686   9.304  34.085  1.00  0.00    -0.048 A 
HETATM    7  C11 UNK     1      17.728  10.547  34.171  1.00  0.00     0.091 A 
HETATM    8  C13 UNK     1      14.973  10.501  33.954  1.00  0.00     0.014 A 
HETATM    9  C14 UNK     1      17.031  11.750  34.041  1.00  0.00     0.045 A 
HETATM   10  C15 UNK     1      15.645  11.722  33.932  1.00  0.00    -0.059 A 
HETATM   11  C16 UNK     1      19.923   9.510  34.409  1.00  0.00     0.288 A 
HETATM   12  C17 UNK     1      14.836   8.073  34.095  1.00  0.00     0.049 C 
HETATM   13  C20 UNK     1      14.879  12.994  33.795  1.00  0.00     0.048 C 
ENDROOT
BRANCH   3  14
HETATM   14  C5  UNK     1      17.306   6.713  34.368  1.00  0.00     0.312 C 
BRANCH  14  15
HETATM   15  N1  UNK     1      18.011   5.802  33.467  1.00  0.00     0.095 N 
HETATM   16  C1  UNK     1      17.523   5.958  32.092  1.00  0.00     0.292 C 
HETATM   17  C3  UNK     1      18.292   5.050  31.129  1.00  0.00     0.154 C 
HETATM   18  N2  UNK     1      18.258   3.660  31.594  1.00  0.00    -0.362 N 
HETATM   19  C4  UNK     1      18.619   3.451  33.002  1.00  0.00     0.154 C 
HETATM   20  C2  UNK     1      17.838   4.410  33.903  1.00  0.00     0.292 C 
BRANCH  18  21
HETATM   21  C8  UNK     1      18.504   2.620  30.691  1.00  0.00     0.125 A 
HETATM   22  C12 UNK     1      17.943   2.730  29.429  1.00  0.00     0.050 A 
HETATM   23  C18 UNK     1      18.179   1.704  28.520  1.00  0.00     0.005 A 
HETATM   24  C21 UNK     1      18.958   0.616  28.896  1.00  0.00     0.019 A 
HETATM   25  C19 UNK     1      19.475   0.600  30.181  1.00  0.00     0.119 A 
HETATM   26  N3  UNK     1      19.266   1.578  31.092  1.00  0.00    -0.244 NA
ENDBRANCH  18  21
ENDBRANCH  14  15
ENDBRANCH   3  14
TORSDOF 3
ENDMDL
MODEL 10
REMARK VINA RESULT:      -8.2     17.422     18.795
REMARK  3 active torsions:
REMARK  status: ('A' for Active; 'I' for Inactive)
REMARK    1  A    between atoms: C5_10  and  N1_3 
REMARK    2  A    between atoms: C8_13  and  N2_4 
REMARK    3  A    between atoms: C5_10  and  C6_11 
ROOT
HETATM    1  O1  UNK     1      30.955  -3.748  38.205  1.00  0.00    -0.275 OA
HETATM    2  O2  UNK     1      29.382  -3.625  39.860  1.00  0.00    -0.260 OA
HETATM    3  C6  UNK     1      30.444  -6.527  38.060  1.00  0.00    -0.011 A 
HETATM    4  C7  UNK     1      31.444  -5.909  37.178  1.00  0.00     0.012 A 
HETATM    5  C9  UNK     1      29.781  -5.752  38.931  1.00  0.00     0.092 A 
HETATM    6  C10 UNK     1      32.192  -6.622  36.231  1.00  0.00    -0.048 A 
HETATM    7  C11 UNK     1      31.668  -4.536  37.279  1.00  0.00     0.091 A 
HETATM    8  C13 UNK     1      33.129  -5.970  35.421  1.00  0.00     0.014 A 
HETATM    9  C14 UNK     1      32.599  -3.871  36.479  1.00  0.00     0.045 A 
HETATM   10  C15 UNK     1      33.332  -4.597  35.546  1.00  0.00    -0.059 A 
HETATM   11  C16 UNK     1      30.007  -4.302  39.050  1.00  0.00     0.288 A 
HETATM   12  C17 UNK     1      32.078  -8.093  35.987  1.00  0.00     0.049 C 
HETATM   13  C20 UNK     1      34.331  -3.908  34.679  1.00  0.00     0.048 C 
ENDROOT
BRANCH   3  14
HETATM   14  C5  UNK     1      30.125  -7.995  38.039  1.00  0.00     0.312 C 
BRANCH  14  15
HETATM   15  N1  UNK     1      28.727  -8.240  37.689  1.00  0.00     0.095 N 
HETATM   16  C1  UNK     1      28.119  -9.188  38.630  1.00  0.00     0.292 C 
HETATM   17  C3  UNK     1      26.639  -9.410  38.308  1.00  0.00     0.154 C 
HETATM   18  N2  UNK     1      26.471  -9.808  36.907  1.00  0.00    -0.362 N 
HETATM   19  C4  UNK     1      27.160  -8.966  35.920  1.00  0.00     0.154 C 
HETATM   20  C2  UNK     1      28.622  -8.759  36.319  1.00  0.00     0.292 C 
BRANCH  18  21
HETATM   21  C8  UNK     1      25.303 -10.466  36.508  1.00  0.00     0.125 A 
HETATM   22  C12 UNK     1      25.415 -11.806  36.170  1.00  0.00     0.050 A 
HETATM   23  C18 UNK     1      24.263 -12.475  35.771  1.00  0.00     0.005 A 
HETATM   24  C21 UNK     1      23.052 -11.794  35.722  1.00  0.00     0.019 A 
HETATM   25  C19 UNK     1      23.045 -10.455  36.080  1.00  0.00     0.119 A 
HETATM   26  N3  UNK     1      24.144  -9.772  36.472  1.00  0.00    -0.244 NA
ENDBRANCH  18  21
ENDBRANCH  14  15
ENDBRANCH   3  14
TORSDOF 3
ENDMDL
