MODEL 1
REMARK VINA RESULT:      -8.4      0.000      0.000
REMARK  3 active torsions:
REMARK  status: ('A' for Active; 'I' for Inactive)
REMARK    1  A    between atoms: C14_19  and  O4_4 
REMARK    2  A    between atoms: C1_6  and  N1_5 
REMARK       I    between atoms: C6_11  and  N1_5 
REMARK    3  A    between atoms: C6_11  and  C7_12 
ROOT
HETATM    1  O2  UNK     1      19.992  -0.774  29.521  1.00  0.00    -0.274 OA
HETATM    2  O3  UNK     1      19.307   1.000  28.256  1.00  0.00    -0.259 OA
HETATM    3  C7  UNK     1      18.941   1.157  30.592  1.00  0.00     0.108 A 
HETATM    4  C8  UNK     1      19.061   0.589  31.797  1.00  0.00     0.037 A 
HETATM    5  C9  UNK     1      19.668  -0.726  31.931  1.00  0.00     0.002 A 
HETATM    6  C10 UNK     1      19.415   0.483  29.363  1.00  0.00     0.304 A 
HETATM    7  C11 UNK     1      20.121  -1.378  30.787  1.00  0.00     0.089 A 
HETATM    8  C12 UNK     1      19.815  -1.357  33.169  1.00  0.00     0.051 A 
HETATM    9  C13 UNK     1      20.713  -2.637  30.847  1.00  0.00     0.041 A 
HETATM   10  C14 UNK     1      20.407  -2.621  33.244  1.00  0.00     0.069 A 
HETATM   11  C15 UNK     1      20.855  -3.260  32.085  1.00  0.00     0.039 A 
ENDROOT
BRANCH   3  12
HETATM   12  C6  UNK     1      18.314   2.483  30.560  1.00  0.00     0.258 C 
HETATM   13  O1  UNK     1      17.096   2.609  30.676  1.00  0.00    -0.267 OA
HETATM   14  N1  UNK     1      19.229   3.508  30.389  1.00  0.00    -0.352 N 
HETATM   15  H10 UNK     1      20.216   3.292  30.293  1.00  0.00     0.163 HD
BRANCH  14  16
HETATM   16  C1  UNK     1      18.850   4.897  30.324  1.00  0.00     0.084 C 
HETATM   17  C2  UNK     1      20.038   5.788  29.981  1.00  0.00     0.025 C 
HETATM   18  C4  UNK     1      20.761   5.991  31.311  1.00  0.00     0.002 C 
HETATM   19  C5  UNK     1      19.704   5.803  32.400  1.00  0.00     0.002 C 
HETATM   20  C3  UNK     1      18.409   5.430  31.682  1.00  0.00     0.025 C 
ENDBRANCH  14  16
ENDBRANCH   3  12
BRANCH  10  21
HETATM   21  O4  UNK     1      20.547  -3.234  34.452  1.00  0.00    -0.356 OA
HETATM   22  C16 UNK     1      20.311  -2.439  35.613  1.00  0.00     0.210 C 
ENDBRANCH  10  21
TORSDOF 3
ENDMDL
MODEL 2
REMARK VINA RESULT:      -8.0     22.492     24.803
REMARK  3 active torsions:
REMARK  status: ('A' for Active; 'I' for Inactive)
REMARK    1  A    between atoms: C14_19  and  O4_4 
REMARK    2  A    between atoms: C1_6  and  N1_5 
REMARK       I    between atoms: C6_11  and  N1_5 
REMARK    3  A    between atoms: C6_11  and  C7_12 
ROOT
HETATM    1  O2  UNK     1      11.725   6.738   6.550  1.00  0.00    -0.274 OA
HETATM    2  O3  UNK     1      13.998   6.959   6.556  1.00  0.00    -0.259 OA
HETATM    3  C7  UNK     1      13.015   6.052   8.512  1.00  0.00     0.108 A 
HETATM    4  C8  UNK     1      11.899   5.679   9.148  1.00  0.00     0.037 A 
HETATM    5  C9  UNK     1      10.604   5.819   8.502  1.00  0.00     0.002 A 
HETATM    6  C10 UNK     1      12.978   6.616   7.144  1.00  0.00     0.304 A 
HETATM    7  C11 UNK     1      10.547   6.346   7.215  1.00  0.00     0.089 A 
HETATM    8  C12 UNK     1       9.413   5.441   9.129  1.00  0.00     0.051 A 
HETATM    9  C13 UNK     1       9.338   6.506   6.541  1.00  0.00     0.041 A 
HETATM   10  C14 UNK     1       8.193   5.596   8.464  1.00  0.00     0.069 A 
HETATM   11  C15 UNK     1       8.156   6.128   7.173  1.00  0.00     0.039 A 
ENDROOT
BRANCH   3  12
HETATM   12  C6  UNK     1      14.272   5.873   9.246  1.00  0.00     0.258 C 
HETATM   13  O1  UNK     1      14.851   4.788   9.251  1.00  0.00    -0.267 OA
HETATM   14  N1  UNK     1      14.687   7.023   9.893  1.00  0.00    -0.352 N 
HETATM   15  H10 UNK     1      14.126   7.868   9.830  1.00  0.00     0.163 HD
BRANCH  14  16
HETATM   16  C1  UNK     1      15.893   7.092  10.680  1.00  0.00     0.084 C 
HETATM   17  C2  UNK     1      15.825   8.206  11.717  1.00  0.00     0.025 C 
HETATM   18  C4  UNK     1      16.193   9.471  10.945  1.00  0.00     0.002 C 
HETATM   19  C5  UNK     1      17.047   9.012   9.763  1.00  0.00     0.002 C 
HETATM   20  C3  UNK     1      17.100   7.488   9.838  1.00  0.00     0.025 C 
ENDBRANCH  14  16
ENDBRANCH   3  12
BRANCH  10  21
HETATM   21  O4  UNK     1       7.035   5.228   9.078  1.00  0.00    -0.356 OA
HETATM   22  C16 UNK     1       7.036   3.981   9.770  1.00  0.00     0.210 C 
ENDBRANCH  10  21
TORSDOF 3
ENDMDL
MODEL 3
REMARK VINA RESULT:      -7.8     13.679     16.526
REMARK  3 active torsions:
REMARK  status: ('A' for Active; 'I' for Inactive)
REMARK    1  A    between atoms: C14_19  and  O4_4 
REMARK    2  A    between atoms: C1_6  and  N1_5 
REMARK       I    between atoms: C6_11  and  N1_5 
REMARK    3  A    between atoms: C6_11  and  C7_12 
ROOT
HETATM    1  O2  UNK     1      19.305   0.959  15.204  1.00  0.00    -0.274 OA
HETATM    2  O3  UNK     1      19.067  -0.740  13.696  1.00  0.00    -0.259 OA
HETATM    3  C7  UNK     1      18.732  -1.291  15.976  1.00  0.00     0.108 A 
HETATM    4  C8  UNK     1      18.705  -0.876  17.249  1.00  0.00     0.037 A 
HETATM    5  C9  UNK     1      18.985   0.513  17.573  1.00  0.00     0.002 A 
HETATM    6  C10 UNK     1      19.042  -0.366  14.864  1.00  0.00     0.304 A 
HETATM    7  C11 UNK     1      19.279   1.400  16.542  1.00  0.00     0.089 A 
HETATM    8  C12 UNK     1      18.967   0.990  18.887  1.00  0.00     0.051 A 
HETATM    9  C13 UNK     1      19.555   2.744  16.786  1.00  0.00     0.041 A 
HETATM   10  C14 UNK     1      19.242   2.336  19.147  1.00  0.00     0.069 A 
HETATM   11  C15 UNK     1      19.536   3.210  18.098  1.00  0.00     0.039 A 
ENDROOT
BRANCH   3  12
HETATM   12  C6  UNK     1      18.437  -2.710  15.750  1.00  0.00     0.258 C 
HETATM   13  O1  UNK     1      17.360  -3.194  16.092  1.00  0.00    -0.267 OA
HETATM   14  N1  UNK     1      19.478  -3.384  15.136  1.00  0.00    -0.352 N 
HETATM   15  H10 UNK     1      20.333  -2.888  14.903  1.00  0.00     0.163 HD
BRANCH  14  16
HETATM   16  C1  UNK     1      19.423  -4.788  14.813  1.00  0.00     0.084 C 
HETATM   17  C2  UNK     1      20.665  -5.239  14.055  1.00  0.00     0.025 C 
HETATM   18  C4  UNK     1      20.396  -4.840  12.605  1.00  0.00     0.002 C 
HETATM   19  C5  UNK     1      18.875  -4.794  12.456  1.00  0.00     0.002 C 
HETATM   20  C3  UNK     1      18.298  -5.103  13.835  1.00  0.00     0.025 C 
ENDBRANCH  14  16
ENDBRANCH   3  12
BRANCH  10  21
HETATM   21  O4  UNK     1      19.225   2.795  20.428  1.00  0.00    -0.356 OA
HETATM   22  C16 UNK     1      19.678   1.902  21.444  1.00  0.00     0.210 C 
ENDBRANCH  10  21
TORSDOF 3
ENDMDL
MODEL 4
REMARK VINA RESULT:      -7.8      3.344      4.356
REMARK  3 active torsions:
REMARK  status: ('A' for Active; 'I' for Inactive)
REMARK    1  A    between atoms: C14_19  and  O4_4 
REMARK    2  A    between atoms: C1_6  and  N1_5 
REMARK       I    between atoms: C6_11  and  N1_5 
REMARK    3  A    between atoms: C6_11  and  C7_12 
ROOT
HETATM    1  O2  UNK     1      18.384   1.506  31.994  1.00  0.00    -0.274 OA
HETATM    2  O3  UNK     1      18.290   3.041  30.305  1.00  0.00    -0.259 OA
HETATM    3  C7  UNK     1      18.167   3.887  32.515  1.00  0.00     0.108 A 
HETATM    4  C8  UNK     1      18.160   3.627  33.827  1.00  0.00     0.037 A 
HETATM    5  C9  UNK     1      18.267   2.257  34.304  1.00  0.00     0.002 A 
HETATM    6  C10 UNK     1      18.282   2.807  31.509  1.00  0.00     0.304 A 
HETATM    7  C11 UNK     1      18.377   1.227  33.375  1.00  0.00     0.089 A 
HETATM    8  C12 UNK     1      18.265   1.940  35.665  1.00  0.00     0.051 A 
HETATM    9  C13 UNK     1      18.483  -0.106  33.766  1.00  0.00     0.041 A 
HETATM   10  C14 UNK     1      18.371   0.606  36.072  1.00  0.00     0.069 A 
HETATM   11  C15 UNK     1      18.479  -0.414  35.125  1.00  0.00     0.039 A 
ENDROOT
BRANCH   3  12
HETATM   12  C6  UNK     1      18.054   5.298  32.132  1.00  0.00     0.258 C 
HETATM   13  O1  UNK     1      19.020   5.910  31.681  1.00  0.00    -0.267 OA
HETATM   14  N1  UNK     1      16.785   5.812  32.338  1.00  0.00    -0.352 N 
HETATM   15  H10 UNK     1      16.058   5.219  32.726  1.00  0.00     0.163 HD
BRANCH  14  16
HETATM   16  C1  UNK     1      16.431   7.177  32.039  1.00  0.00     0.084 C 
HETATM   17  C2  UNK     1      16.810   8.118  33.176  1.00  0.00     0.025 C 
HETATM   18  C4  UNK     1      15.667   7.985  34.180  1.00  0.00     0.002 C 
HETATM   19  C5  UNK     1      14.446   7.542  33.374  1.00  0.00     0.002 C 
HETATM   20  C3  UNK     1      14.923   7.363  31.934  1.00  0.00     0.025 C 
ENDBRANCH  14  16
ENDBRANCH   3  12
BRANCH  10  21
HETATM   21  O4  UNK     1      18.367   0.301  37.399  1.00  0.00    -0.356 OA
HETATM   22  C16 UNK     1      17.590   1.137  38.255  1.00  0.00     0.210 C 
ENDBRANCH  10  21
TORSDOF 3
ENDMDL
MODEL 5
REMARK VINA RESULT:      -7.7      2.978      6.067
REMARK  3 active torsions:
REMARK  status: ('A' for Active; 'I' for Inactive)
REMARK    1  A    between atoms: C14_19  and  O4_4 
REMARK    2  A    between atoms: C1_6  and  N1_5 
REMARK       I    between atoms: C6_11  and  N1_5 
REMARK    3  A    between atoms: C6_11  and  C7_12 
ROOT
HETATM    1  O2  UNK     1      20.661  -2.515  32.075  1.00  0.00    -0.274 OA
HETATM    2  O3  UNK     1      20.623  -3.425  34.170  1.00  0.00    -0.259 OA
HETATM    3  C7  UNK     1      19.346  -1.456  33.845  1.00  0.00     0.108 A 
HETATM    4  C8  UNK     1      18.942  -0.494  33.007  1.00  0.00     0.037 A 
HETATM    5  C9  UNK     1      19.388  -0.493  31.623  1.00  0.00     0.002 A 
HETATM    6  C10 UNK     1      20.250  -2.542  33.406  1.00  0.00     0.304 A 
HETATM    7  C11 UNK     1      20.239  -1.505  31.189  1.00  0.00     0.089 A 
HETATM    8  C12 UNK     1      18.991   0.491  30.713  1.00  0.00     0.051 A 
HETATM    9  C13 UNK     1      20.702  -1.561  29.876  1.00  0.00     0.041 A 
HETATM   10  C14 UNK     1      19.448   0.446  29.392  1.00  0.00     0.069 A 
HETATM   11  C15 UNK     1      20.302  -0.577  28.975  1.00  0.00     0.039 A 
ENDROOT
BRANCH   3  12
HETATM   12  C6  UNK     1      18.843  -1.372  35.221  1.00  0.00     0.258 C 
HETATM   13  O1  UNK     1      19.501  -1.810  36.162  1.00  0.00    -0.267 OA
HETATM   14  N1  UNK     1      17.600  -0.768  35.303  1.00  0.00    -0.352 N 
HETATM   15  H10 UNK     1      17.137  -0.448  34.458  1.00  0.00     0.163 HD
BRANCH  14  16
HETATM   16  C1  UNK     1      16.902  -0.574  36.550  1.00  0.00     0.084 C 
HETATM   17  C2  UNK     1      15.895   0.565  36.457  1.00  0.00     0.025 C 
HETATM   18  C4  UNK     1      16.725   1.830  36.664  1.00  0.00     0.002 C 
HETATM   19  C5  UNK     1      17.951   1.403  37.472  1.00  0.00     0.002 C 
HETATM   20  C3  UNK     1      17.837  -0.108  37.659  1.00  0.00     0.025 C 
ENDBRANCH  14  16
ENDBRANCH   3  12
BRANCH  10  21
HETATM   21  O4  UNK     1      19.060   1.407  28.509  1.00  0.00    -0.356 OA
HETATM   22  C16 UNK     1      17.894   2.159  28.839  1.00  0.00     0.210 C 
ENDBRANCH  10  21
TORSDOF 3
ENDMDL
MODEL 6
REMARK VINA RESULT:      -7.6      2.407      3.037
REMARK  3 active torsions:
REMARK  status: ('A' for Active; 'I' for Inactive)
REMARK    1  A    between atoms: C14_19  and  O4_4 
REMARK    2  A    between atoms: C1_6  and  N1_5 
REMARK       I    between atoms: C6_11  and  N1_5 
REMARK    3  A    between atoms: C6_11  and  C7_12 
ROOT
HETATM    1  O2  UNK     1      19.293  -0.669  32.623  1.00  0.00    -0.274 OA
HETATM    2  O3  UNK     1      19.411   0.209  30.518  1.00  0.00    -0.259 OA
HETATM    3  C7  UNK     1      18.439   1.581  32.187  1.00  0.00     0.108 A 
HETATM    4  C8  UNK     1      18.080   1.722  33.469  1.00  0.00     0.037 A 
HETATM    5  C9  UNK     1      18.315   0.647  34.419  1.00  0.00     0.002 A 
HETATM    6  C10 UNK     1      19.080   0.343  31.691  1.00  0.00     0.304 A 
HETATM    7  C11 UNK     1      18.917  -0.526  33.973  1.00  0.00     0.089 A 
HETATM    8  C12 UNK     1      17.958   0.752  35.766  1.00  0.00     0.051 A 
HETATM    9  C13 UNK     1      19.171  -1.593  34.833  1.00  0.00     0.041 A 
HETATM   10  C14 UNK     1      18.206  -0.311  36.640  1.00  0.00     0.069 A 
HETATM   11  C15 UNK     1      18.811  -1.481  36.174  1.00  0.00     0.039 A 
ENDROOT
BRANCH   3  12
HETATM   12  C6  UNK     1      18.160   2.720  31.305  1.00  0.00     0.258 C 
HETATM   13  O1  UNK     1      17.298   2.646  30.432  1.00  0.00    -0.267 OA
HETATM   14  N1  UNK     1      18.955   3.819  31.578  1.00  0.00    -0.352 N 
HETATM   15  H10 UNK     1      19.647   3.771  32.319  1.00  0.00     0.163 HD
BRANCH  14  16
HETATM   16  C1  UNK     1      18.866   5.056  30.842  1.00  0.00     0.084 C 
HETATM   17  C2  UNK     1      20.229   5.716  30.685  1.00  0.00     0.025 C 
HETATM   18  C4  UNK     1      20.454   6.454  32.002  1.00  0.00     0.002 C 
HETATM   19  C5  UNK     1      19.062   6.743  32.567  1.00  0.00     0.002 C 
HETATM   20  C3  UNK     1      18.066   6.110  31.598  1.00  0.00     0.025 C 
ENDBRANCH  14  16
ENDBRANCH   3  12
BRANCH  10  21
HETATM   21  O4  UNK     1      17.855  -0.206  37.951  1.00  0.00    -0.356 OA
HETATM   22  C16 UNK     1      17.664   1.110  38.468  1.00  0.00     0.210 C 
ENDBRANCH  10  21
TORSDOF 3
ENDMDL
MODEL 7
REMARK VINA RESULT:      -7.6      3.343      7.213
REMARK  3 active torsions:
REMARK  status: ('A' for Active; 'I' for Inactive)
REMARK    1  A    between atoms: C14_19  and  O4_4 
REMARK    2  A    between atoms: C1_6  and  N1_5 
REMARK       I    between atoms: C6_11  and  N1_5 
REMARK    3  A    between atoms: C6_11  and  C7_12 
ROOT
HETATM    1  O2  UNK     1      18.771   3.317  30.495  1.00  0.00    -0.274 OA
HETATM    2  O3  UNK     1      18.759   1.034  30.565  1.00  0.00    -0.259 OA
HETATM    3  C7  UNK     1      18.382   2.161  32.615  1.00  0.00     0.108 A 
HETATM    4  C8  UNK     1      18.263   3.327  33.260  1.00  0.00     0.037 A 
HETATM    5  C9  UNK     1      18.395   4.582  32.537  1.00  0.00     0.002 A 
HETATM    6  C10 UNK     1      18.650   2.100  31.161  1.00  0.00     0.304 A 
HETATM    7  C11 UNK     1      18.647   4.547  31.169  1.00  0.00     0.089 A 
HETATM    8  C12 UNK     1      18.277   5.823  33.170  1.00  0.00     0.051 A 
HETATM    9  C13 UNK     1      18.783   5.713  30.419  1.00  0.00     0.041 A 
HETATM   10  C14 UNK     1      18.412   7.001  32.429  1.00  0.00     0.069 A 
HETATM   11  C15 UNK     1      18.665   6.946  31.057  1.00  0.00     0.039 A 
ENDROOT
BRANCH   3  12
HETATM   12  C6  UNK     1      18.233   0.950  33.430  1.00  0.00     0.258 C 
HETATM   13  O1  UNK     1      19.056   0.039  33.363  1.00  0.00    -0.267 OA
HETATM   14  N1  UNK     1      17.107   0.976  34.233  1.00  0.00    -0.352 N 
HETATM   15  H10 UNK     1      16.485   1.779  34.205  1.00  0.00     0.163 HD
BRANCH  14  16
HETATM   16  C1  UNK     1      16.748  -0.102  35.121  1.00  0.00     0.084 C 
HETATM   17  C2  UNK     1      15.444   0.184  35.855  1.00  0.00     0.025 C 
HETATM   18  C4  UNK     1      15.849   1.082  37.021  1.00  0.00     0.002 C 
HETATM   19  C5  UNK     1      17.318   0.767  37.307  1.00  0.00     0.002 C 
HETATM   20  C3  UNK     1      17.749  -0.257  36.260  1.00  0.00     0.025 C 
ENDBRANCH  14  16
ENDBRANCH   3  12
BRANCH  10  21
HETATM   21  O4  UNK     1      18.298   8.207  33.049  1.00  0.00    -0.356 OA
HETATM   22  C16 UNK     1      19.172   8.456  34.149  1.00  0.00     0.210 C 
ENDBRANCH  10  21
TORSDOF 3
ENDMDL
MODEL 8
REMARK VINA RESULT:      -7.5     22.908     24.817
REMARK  3 active torsions:
REMARK  status: ('A' for Active; 'I' for Inactive)
REMARK    1  A    between atoms: C14_19  and  O4_4 
REMARK    2  A    between atoms: C1_6  and  N1_5 
REMARK       I    between atoms: C6_11  and  N1_5 
REMARK    3  A    between atoms: C6_11  and  C7_12 
ROOT
HETATM    1  O2  UNK     1      14.096   5.002   8.986  1.00  0.00    -0.274 OA
HETATM    2  O3  UNK     1      12.197   4.011   8.193  1.00  0.00    -0.259 OA
HETATM    3  C7  UNK     1      12.240   6.380   8.187  1.00  0.00     0.108 A 
HETATM    4  C8  UNK     1      12.919   7.501   8.462  1.00  0.00     0.037 A 
HETATM    5  C9  UNK     1      14.256   7.427   9.028  1.00  0.00     0.002 A 
HETATM    6  C10 UNK     1      12.814   5.041   8.444  1.00  0.00     0.304 A 
HETATM    7  C11 UNK     1      14.815   6.177   9.278  1.00  0.00     0.089 A 
HETATM    8  C12 UNK     1      15.001   8.571   9.330  1.00  0.00     0.051 A 
HETATM    9  C13 UNK     1      16.091   6.039   9.818  1.00  0.00     0.041 A 
HETATM   10  C14 UNK     1      16.283   8.447   9.873  1.00  0.00     0.069 A 
HETATM   11  C15 UNK     1      16.827   7.184  10.117  1.00  0.00     0.039 A 
ENDROOT
BRANCH   3  12
HETATM   12  C6  UNK     1      10.899   6.557   7.619  1.00  0.00     0.258 C 
HETATM   13  O1  UNK     1      10.743   7.090   6.522  1.00  0.00    -0.267 OA
HETATM   14  N1  UNK     1       9.898   6.070   8.441  1.00  0.00    -0.352 N 
HETATM   15  H10 UNK     1      10.137   5.654   9.336  1.00  0.00     0.163 HD
BRANCH  14  16
HETATM   16  C1  UNK     1       8.499   6.133   8.098  1.00  0.00     0.084 C 
HETATM   17  C2  UNK     1       7.888   7.476   8.474  1.00  0.00     0.025 C 
HETATM   18  C4  UNK     1       7.572   7.352   9.963  1.00  0.00     0.002 C 
HETATM   19  C5  UNK     1       7.391   5.857  10.232  1.00  0.00     0.002 C 
HETATM   20  C3  UNK     1       7.670   5.146   8.910  1.00  0.00     0.025 C 
ENDBRANCH  14  16
ENDBRANCH   3  12
BRANCH  10  21
HETATM   21  O4  UNK     1      17.005   9.563  10.167  1.00  0.00    -0.356 OA
HETATM   22  C16 UNK     1      17.421  10.374   9.070  1.00  0.00     0.210 C 
ENDBRANCH  10  21
TORSDOF 3
ENDMDL
MODEL 9
REMARK VINA RESULT:      -7.4      3.885      8.581
REMARK  3 active torsions:
REMARK  status: ('A' for Active; 'I' for Inactive)
REMARK    1  A    between atoms: C14_19  and  O4_4 
REMARK    2  A    between atoms: C1_6  and  N1_5 
REMARK       I    between atoms: C6_11  and  N1_5 
REMARK    3  A    between atoms: C6_11  and  C7_12 
ROOT
HETATM    1  O2  UNK     1      18.471  -0.476  34.650  1.00  0.00    -0.274 OA
HETATM    2  O3  UNK     1      18.184  -1.200  36.797  1.00  0.00    -0.259 OA
HETATM    3  C7  UNK     1      19.597  -2.508  35.416  1.00  0.00     0.108 A 
HETATM    4  C8  UNK     1      20.159  -2.682  34.214  1.00  0.00     0.037 A 
HETATM    5  C9  UNK     1      19.899  -1.738  33.140  1.00  0.00     0.002 A 
HETATM    6  C10 UNK     1      18.701  -1.364  35.698  1.00  0.00     0.304 A 
HETATM    7  C11 UNK     1      19.060  -0.654  33.383  1.00  0.00     0.089 A 
HETATM    8  C12 UNK     1      20.465  -1.880  31.869  1.00  0.00     0.051 A 
HETATM    9  C13 UNK     1      18.771   0.286  32.397  1.00  0.00     0.041 A 
HETATM   10  C14 UNK     1      20.184  -0.943  30.870  1.00  0.00     0.069 A 
HETATM   11  C15 UNK     1      19.339   0.137  31.133  1.00  0.00     0.039 A 
ENDROOT
BRANCH   3  12
HETATM   12  C6  UNK     1      19.918  -3.514  36.435  1.00  0.00     0.258 C 
HETATM   13  O1  UNK     1      20.650  -3.240  37.384  1.00  0.00    -0.267 OA
HETATM   14  N1  UNK     1      19.320  -4.738  36.190  1.00  0.00    -0.352 N 
HETATM   15  H10 UNK     1      18.738  -4.860  35.367  1.00  0.00     0.163 HD
BRANCH  14  16
HETATM   16  C1  UNK     1      19.490  -5.882  37.052  1.00  0.00     0.084 C 
HETATM   17  C2  UNK     1      20.612  -6.790  36.565  1.00  0.00     0.025 C 
HETATM   18  C4  UNK     1      19.969  -7.641  35.472  1.00  0.00     0.002 C 
HETATM   19  C5  UNK     1      18.475  -7.681  35.792  1.00  0.00     0.002 C 
HETATM   20  C3  UNK     1      18.275  -6.800  37.023  1.00  0.00     0.025 C 
ENDBRANCH  14  16
ENDBRANCH   3  12
BRANCH  10  21
HETATM   21  O4  UNK     1      20.736  -1.086  29.634  1.00  0.00    -0.356 OA
HETATM   22  C16 UNK     1      19.932  -0.710  28.517  1.00  0.00     0.210 C 
ENDBRANCH  10  21
TORSDOF 3
ENDMDL
MODEL 10
REMARK VINA RESULT:      -7.3     11.397     14.121
REMARK  3 active torsions:
REMARK  status: ('A' for Active; 'I' for Inactive)
REMARK    1  A    between atoms: C14_19  and  O4_4 
REMARK    2  A    between atoms: C1_6  and  N1_5 
REMARK       I    between atoms: C6_11  and  N1_5 
REMARK    3  A    between atoms: C6_11  and  C7_12 
ROOT
HETATM    1  O2  UNK     1      27.653  -4.668  38.713  1.00  0.00    -0.274 OA
HETATM    2  O3  UNK     1      25.433  -5.138  38.965  1.00  0.00    -0.259 OA
HETATM    3  C7  UNK     1      26.894  -6.992  38.769  1.00  0.00     0.108 A 
HETATM    4  C8  UNK     1      28.149  -7.434  38.617  1.00  0.00     0.037 A 
HETATM    5  C9  UNK     1      29.249  -6.490  38.502  1.00  0.00     0.002 A 
HETATM    6  C10 UNK     1      26.580  -5.547  38.825  1.00  0.00     0.304 A 
HETATM    7  C11 UNK     1      28.975  -5.127  38.553  1.00  0.00     0.089 A 
HETATM    8  C12 UNK     1      30.574  -6.907  38.343  1.00  0.00     0.051 A 
HETATM    9  C13 UNK     1      29.985  -4.172  38.449  1.00  0.00     0.041 A 
HETATM   10  C14 UNK     1      31.597  -5.959  38.238  1.00  0.00     0.069 A 
HETATM   11  C15 UNK     1      31.302  -4.595  38.290  1.00  0.00     0.039 A 
ENDROOT
BRANCH   3  12
HETATM   12  C6  UNK     1      25.853  -8.020  38.876  1.00  0.00     0.258 C 
HETATM   13  O1  UNK     1      26.147  -9.203  39.035  1.00  0.00    -0.267 OA
HETATM   14  N1  UNK     1      24.574  -7.503  38.775  1.00  0.00    -0.352 N 
HETATM   15  H10 UNK     1      24.442  -6.506  38.635  1.00  0.00     0.163 HD
BRANCH  14  16
HETATM   16  C1  UNK     1      23.387  -8.319  38.849  1.00  0.00     0.084 C 
HETATM   17  C2  UNK     1      22.569  -8.237  37.567  1.00  0.00     0.025 C 
HETATM   18  C4  UNK     1      21.758  -6.952  37.710  1.00  0.00     0.002 C 
HETATM   19  C5  UNK     1      21.623  -6.703  39.213  1.00  0.00     0.002 C 
HETATM   20  C3  UNK     1      22.412  -7.811  39.904  1.00  0.00     0.025 C 
ENDBRANCH  14  16
ENDBRANCH   3  12
BRANCH  10  21
HETATM   21  O4  UNK     1      32.885  -6.368  38.081  1.00  0.00    -0.356 OA
HETATM   22  C16 UNK     1      33.091  -7.662  37.516  1.00  0.00     0.210 C 
ENDBRANCH  10  21
TORSDOF 3
ENDMDL
