MODEL 1
REMARK VINA RESULT:      -9.2      0.000      0.000
REMARK  7 active torsions:
REMARK  status: ('A' for Active; 'I' for Inactive)
REMARK    1  A    between atoms: C23_30  and  O3_3 
REMARK    2  A    between atoms: C27_34  and  O3_3 
REMARK    3  A    between atoms: C5_12  and  N1_6 
REMARK    4  A    between atoms: C6_13  and  N2_7 
REMARK    5  A    between atoms: C5_12  and  C7_14 
REMARK    6  A    between atoms: C6_13  and  C8_15 
REMARK    7  A    between atoms: C17_24  and  C24_31 
ROOT
HETATM    1  N1  UNK     1      26.286  -8.479  38.249  1.00  0.00     0.096 N 
HETATM    2  N2  UNK     1      23.787  -9.413  37.133  1.00  0.00     0.096 N 
HETATM    3  C1  UNK     1      26.204  -9.752  37.523  1.00  0.00     0.303 C 
HETATM    4  C2  UNK     1      25.002  -8.171  38.890  1.00  0.00     0.303 C 
HETATM    5  C3  UNK     1      25.073  -9.721  36.491  1.00  0.00     0.303 C 
HETATM    6  C4  UNK     1      23.870  -8.139  37.857  1.00  0.00     0.303 C 
ENDROOT
BRANCH   2   7
HETATM    7  C6  UNK     1      22.709  -9.381  36.147  1.00  0.00     0.312 C 
BRANCH   7   8
HETATM    8  C8  UNK     1      21.365  -9.469  36.782  1.00  0.00    -0.011 A 
HETATM    9  C10 UNK     1      20.459  -8.312  36.746  1.00  0.00     0.009 A 
HETATM   10  C15 UNK     1      19.207  -8.426  37.351  1.00  0.00     0.090 A 
HETATM   11  C16 UNK     1      20.779  -7.092  36.137  1.00  0.00     0.051 A 
HETATM   12  O2  UNK     1      18.810  -9.620  37.985  1.00  0.00    -0.275 OA
HETATM   13  C22 UNK     1      18.286  -7.376  37.363  1.00  0.00     0.041 A 
HETATM   14  C19 UNK     1      19.642 -10.726  38.034  1.00  0.00     0.288 A 
HETATM   15  C12 UNK     1      20.961 -10.591  37.392  1.00  0.00     0.092 A 
HETATM   16  O5  UNK     1      19.306 -11.772  38.581  1.00  0.00    -0.260 OA
HETATM   17  C25 UNK     1      18.623  -6.173  36.751  1.00  0.00     0.039 A 
HETATM   18  C23 UNK     1      19.867  -6.031  36.139  1.00  0.00     0.069 A 
BRANCH  18  19
HETATM   19  O3  UNK     1      20.196  -4.853  35.540  1.00  0.00    -0.351 OA
BRANCH  19  20
HETATM   20  C27 UNK     1      20.147  -3.679  36.347  1.00  0.00     0.171 C 
HETATM   21  C28 UNK     1      20.103  -2.463  35.446  1.00  0.00     0.034 C 
ENDBRANCH  19  20
ENDBRANCH  18  19
ENDBRANCH   7   8
ENDBRANCH   2   7
BRANCH   1  22
HETATM   22  C5  UNK     1      27.364  -8.513  39.236  1.00  0.00     0.312 C 
BRANCH  22  23
HETATM   23  C7  UNK     1      28.393  -7.468  38.979  1.00  0.00    -0.011 A 
HETATM   24  C11 UNK     1      28.204  -6.199  39.367  1.00  0.00     0.092 A 
HETATM   25  C18 UNK     1      29.191  -5.132  39.136  1.00  0.00     0.288 A 
HETATM   26  O1  UNK     1      30.361  -5.496  38.485  1.00  0.00    -0.275 OA
HETATM   27  O4  UNK     1      28.984  -3.981  39.506  1.00  0.00    -0.260 OA
HETATM   28  C13 UNK     1      30.589  -6.822  38.066  1.00  0.00     0.090 A 
HETATM   29  C9  UNK     1      29.642  -7.823  38.291  1.00  0.00     0.007 A 
HETATM   30  C20 UNK     1      31.800  -7.073  37.421  1.00  0.00     0.039 A 
HETATM   31  C14 UNK     1      29.945  -9.115  37.844  1.00  0.00     0.022 A 
HETATM   32  C17 UNK     1      31.156  -9.383  37.195  1.00  0.00    -0.058 A 
HETATM   33  C21 UNK     1      32.082  -8.363  36.983  1.00  0.00     0.010 A 
BRANCH  32  34
HETATM   34  C24 UNK     1      31.457 -10.767  36.726  1.00  0.00     0.034 C 
HETATM   35  C26 UNK     1      31.472 -10.874  35.204  1.00  0.00     0.010 C 
ENDBRANCH  32  34
ENDBRANCH  22  23
ENDBRANCH   1  22
TORSDOF 7
ENDMDL
MODEL 2
REMARK VINA RESULT:      -9.1      5.331      9.284
REMARK  7 active torsions:
REMARK  status: ('A' for Active; 'I' for Inactive)
REMARK    1  A    between atoms: C23_30  and  O3_3 
REMARK    2  A    between atoms: C27_34  and  O3_3 
REMARK    3  A    between atoms: C5_12  and  N1_6 
REMARK    4  A    between atoms: C6_13  and  N2_7 
REMARK    5  A    between atoms: C5_12  and  C7_14 
REMARK    6  A    between atoms: C6_13  and  C8_15 
REMARK    7  A    between atoms: C17_24  and  C24_31 
ROOT
HETATM    1  N1  UNK     1      31.401  -6.873  32.720  1.00  0.00     0.096 N 
HETATM    2  N2  UNK     1      31.087  -6.875  35.594  1.00  0.00     0.096 N 
HETATM    3  C1  UNK     1      32.505  -6.488  33.607  1.00  0.00     0.303 C 
HETATM    4  C2  UNK     1      30.110  -6.567  33.346  1.00  0.00     0.303 C 
HETATM    5  C3  UNK     1      32.381  -7.182  34.967  1.00  0.00     0.303 C 
HETATM    6  C4  UNK     1      29.985  -7.262  34.706  1.00  0.00     0.303 C 
ENDROOT
BRANCH   2   7
HETATM    7  C6  UNK     1      30.968  -7.539  36.891  1.00  0.00     0.312 C 
BRANCH   7   8
HETATM    8  C8  UNK     1      29.976  -6.869  37.775  1.00  0.00    -0.011 A 
HETATM    9  C10 UNK     1      28.672  -7.500  38.026  1.00  0.00     0.009 A 
HETATM   10  C15 UNK     1      27.763  -6.847  38.859  1.00  0.00     0.090 A 
HETATM   11  C16 UNK     1      28.283  -8.728  37.475  1.00  0.00     0.051 A 
HETATM   12  O2  UNK     1      28.078  -5.609  39.452  1.00  0.00    -0.275 OA
HETATM   13  C22 UNK     1      26.504  -7.376  39.149  1.00  0.00     0.041 A 
HETATM   14  C19 UNK     1      29.299  -4.990  39.235  1.00  0.00     0.288 A 
HETATM   15  C12 UNK     1      30.248  -5.691  38.352  1.00  0.00     0.092 A 
HETATM   16  O5  UNK     1      29.585  -3.913  39.747  1.00  0.00    -0.260 OA
HETATM   17  C25 UNK     1      26.137  -8.597  38.592  1.00  0.00     0.039 A 
HETATM   18  C23 UNK     1      27.025  -9.272  37.757  1.00  0.00     0.069 A 
BRANCH  18  19
HETATM   19  O3  UNK     1      26.667 -10.468  37.212  1.00  0.00    -0.351 OA
BRANCH  19  20
HETATM   20  C27 UNK     1      25.427 -10.514  36.509  1.00  0.00     0.171 C 
HETATM   21  C28 UNK     1      25.116 -11.953  36.154  1.00  0.00     0.034 C 
ENDBRANCH  19  20
ENDBRANCH  18  19
ENDBRANCH   7   8
ENDBRANCH   2   7
BRANCH   1  22
HETATM   22  C5  UNK     1      31.520  -6.207  31.424  1.00  0.00     0.312 C 
BRANCH  22  23
HETATM   23  C7  UNK     1      31.943  -7.145  30.347  1.00  0.00    -0.011 A 
HETATM   24  C11 UNK     1      33.224  -7.222  29.959  1.00  0.00     0.092 A 
HETATM   25  C18 UNK     1      33.690  -8.132  28.900  1.00  0.00     0.288 A 
HETATM   26  O1  UNK     1      32.730  -8.934  28.302  1.00  0.00    -0.275 OA
HETATM   27  O4  UNK     1      34.871  -8.175  28.572  1.00  0.00    -0.260 OA
HETATM   28  C13 UNK     1      31.376  -8.877  28.688  1.00  0.00     0.090 A 
HETATM   29  C9  UNK     1      30.949  -8.007  29.693  1.00  0.00     0.007 A 
HETATM   30  C20 UNK     1      30.498  -9.729  28.017  1.00  0.00     0.039 A 
HETATM   31  C14 UNK     1      29.587  -8.010  30.020  1.00  0.00     0.022 A 
HETATM   32  C17 UNK     1      28.694  -8.859  29.355  1.00  0.00    -0.058 A 
HETATM   33  C21 UNK     1      29.149  -9.717  28.355  1.00  0.00     0.010 A 
BRANCH  32  34
HETATM   34  C24 UNK     1      27.247  -8.846  29.719  1.00  0.00     0.034 C 
HETATM   35  C26 UNK     1      26.853  -7.585  30.484  1.00  0.00     0.010 C 
ENDBRANCH  32  34
ENDBRANCH  22  23
ENDBRANCH   1  22
TORSDOF 7
ENDMDL
MODEL 3
REMARK VINA RESULT:      -9.0     32.631     34.728
REMARK  7 active torsions:
REMARK  status: ('A' for Active; 'I' for Inactive)
REMARK    1  A    between atoms: C23_30  and  O3_3 
REMARK    2  A    between atoms: C27_34  and  O3_3 
REMARK    3  A    between atoms: C5_12  and  N1_6 
REMARK    4  A    between atoms: C6_13  and  N2_7 
REMARK    5  A    between atoms: C5_12  and  C7_14 
REMARK    6  A    between atoms: C6_13  and  C8_15 
REMARK    7  A    between atoms: C17_24  and  C24_31 
ROOT
HETATM    1  N1  UNK     1      11.926   6.274   7.461  1.00  0.00     0.096 N 
HETATM    2  N2  UNK     1       9.130   6.173   8.191  1.00  0.00     0.096 N 
HETATM    3  C1  UNK     1      11.501   6.356   8.864  1.00  0.00     0.303 C 
HETATM    4  C2  UNK     1      10.886   6.818   6.578  1.00  0.00     0.303 C 
HETATM    5  C3  UNK     1      10.170   5.629   9.076  1.00  0.00     0.303 C 
HETATM    6  C4  UNK     1       9.555   6.089   6.789  1.00  0.00     0.303 C 
ENDROOT
BRANCH   2   7
HETATM    7  C6  UNK     1       7.861   5.476   8.392  1.00  0.00     0.312 C 
BRANCH   7   8
HETATM    8  C8  UNK     1       7.191   5.883   9.658  1.00  0.00    -0.011 A 
HETATM    9  C10 UNK     1       6.429   4.896  10.435  1.00  0.00     0.009 A 
HETATM   10  C15 UNK     1       5.812   5.308  11.618  1.00  0.00     0.090 A 
HETATM   11  C16 UNK     1       6.283   3.554  10.060  1.00  0.00     0.051 A 
HETATM   12  O2  UNK     1       5.912   6.640  12.065  1.00  0.00    -0.275 OA
HETATM   13  C22 UNK     1       5.070   4.435  12.415  1.00  0.00     0.041 A 
HETATM   14  C19 UNK     1       6.623   7.593  11.353  1.00  0.00     0.288 A 
HETATM   15  C12 UNK     1       7.268   7.143  10.107  1.00  0.00     0.092 A 
HETATM   16  O5  UNK     1       6.718   8.755  11.733  1.00  0.00    -0.260 OA
HETATM   17  C25 UNK     1       4.938   3.106  12.024  1.00  0.00     0.039 A 
HETATM   18  C23 UNK     1       5.543   2.666  10.849  1.00  0.00     0.069 A 
BRANCH  18  19
HETATM   19  O3  UNK     1       5.415   1.366  10.467  1.00  0.00    -0.351 OA
BRANCH  19  20
HETATM   20  C27 UNK     1       5.147   1.119   9.087  1.00  0.00     0.171 C 
HETATM   21  C28 UNK     1       4.687  -0.315   8.924  1.00  0.00     0.034 C 
ENDBRANCH  19  20
ENDBRANCH  18  19
ENDBRANCH   7   8
ENDBRANCH   2   7
BRANCH   1  22
HETATM   22  C5  UNK     1      13.194   6.973   7.261  1.00  0.00     0.312 C 
BRANCH  22  23
HETATM   23  C7  UNK     1      14.185   6.655   8.326  1.00  0.00    -0.011 A 
HETATM   24  C11 UNK     1      14.531   5.387   8.593  1.00  0.00     0.092 A 
HETATM   25  C18 UNK     1      15.505   5.022   9.635  1.00  0.00     0.288 A 
HETATM   26  O1  UNK     1      16.071   6.066  10.351  1.00  0.00    -0.275 OA
HETATM   27  O4  UNK     1      15.798   3.851   9.850  1.00  0.00    -0.260 OA
HETATM   28  C13 UNK     1      15.727   7.408  10.094  1.00  0.00     0.090 A 
HETATM   29  C9  UNK     1      14.801   7.739   9.103  1.00  0.00     0.007 A 
HETATM   30  C20 UNK     1      16.359   8.375  10.876  1.00  0.00     0.039 A 
HETATM   31  C14 UNK     1      14.514   9.096   8.909  1.00  0.00     0.022 A 
HETATM   32  C17 UNK     1      15.139  10.078   9.686  1.00  0.00    -0.058 A 
HETATM   33  C21 UNK     1      16.060   9.718  10.669  1.00  0.00     0.010 A 
BRANCH  32  34
HETATM   34  C24 UNK     1      14.818  11.518   9.462  1.00  0.00     0.034 C 
HETATM   35  C26 UNK     1      15.442  12.058   8.179  1.00  0.00     0.010 C 
ENDBRANCH  32  34
ENDBRANCH  22  23
ENDBRANCH   1  22
TORSDOF 7
ENDMDL
MODEL 4
REMARK VINA RESULT:      -9.0      5.878      9.296
REMARK  7 active torsions:
REMARK  status: ('A' for Active; 'I' for Inactive)
REMARK    1  A    between atoms: C23_30  and  O3_3 
REMARK    2  A    between atoms: C27_34  and  O3_3 
REMARK    3  A    between atoms: C5_12  and  N1_6 
REMARK    4  A    between atoms: C6_13  and  N2_7 
REMARK    5  A    between atoms: C5_12  and  C7_14 
REMARK    6  A    between atoms: C6_13  and  C8_15 
REMARK    7  A    between atoms: C17_24  and  C24_31 
ROOT
HETATM    1  N1  UNK     1      31.770  -8.902  33.477  1.00  0.00     0.096 N 
HETATM    2  N2  UNK     1      31.194  -8.728  36.305  1.00  0.00     0.096 N 
HETATM    3  C1  UNK     1      32.700  -8.249  34.405  1.00  0.00     0.303 C 
HETATM    4  C2  UNK     1      30.392  -8.791  33.969  1.00  0.00     0.303 C 
HETATM    5  C3  UNK     1      32.574  -8.840  35.812  1.00  0.00     0.303 C 
HETATM    6  C4  UNK     1      30.266  -9.383  35.377  1.00  0.00     0.303 C 
ENDROOT
BRANCH   2   7
HETATM    7  C6  UNK     1      31.074  -9.294  37.647  1.00  0.00     0.312 C 
BRANCH   7   8
HETATM    8  C8  UNK     1      29.824  -8.861  38.329  1.00  0.00    -0.011 A 
HETATM    9  C10 UNK     1      29.500  -7.430  38.426  1.00  0.00     0.009 A 
HETATM   10  C15 UNK     1      28.321  -7.055  39.073  1.00  0.00     0.090 A 
HETATM   11  C16 UNK     1      30.308  -6.412  37.905  1.00  0.00     0.051 A 
HETATM   12  O2  UNK     1      27.454  -8.019  39.624  1.00  0.00    -0.275 OA
HETATM   13  C22 UNK     1      27.939  -5.719  39.209  1.00  0.00     0.041 A 
HETATM   14  C19 UNK     1      27.734  -9.374  39.548  1.00  0.00     0.288 A 
HETATM   15  C12 UNK     1      28.982  -9.755  38.864  1.00  0.00     0.092 A 
HETATM   16  O5  UNK     1      26.986 -10.222  40.023  1.00  0.00    -0.260 OA
HETATM   17  C25 UNK     1      28.755  -4.723  38.683  1.00  0.00     0.039 A 
HETATM   18  C23 UNK     1      29.937  -5.068  38.032  1.00  0.00     0.069 A 
BRANCH  18  19
HETATM   19  O3  UNK     1      30.736  -4.094  37.517  1.00  0.00    -0.351 OA
BRANCH  19  20
HETATM   20  C27 UNK     1      32.080  -4.455  37.203  1.00  0.00     0.171 C 
HETATM   21  C28 UNK     1      32.568  -3.592  36.058  1.00  0.00     0.034 C 
ENDBRANCH  19  20
ENDBRANCH  18  19
ENDBRANCH   7   8
ENDBRANCH   2   7
BRANCH   1  22
HETATM   22  C5  UNK     1      31.889  -8.334  32.135  1.00  0.00     0.312 C 
BRANCH  22  23
HETATM   23  C7  UNK     1      31.665  -9.352  31.072  1.00  0.00    -0.011 A 
HETATM   24  C11 UNK     1      32.615 -10.243  30.754  1.00  0.00     0.092 A 
HETATM   25  C18 UNK     1      32.440 -11.267  29.711  1.00  0.00     0.288 A 
HETATM   26  O1  UNK     1      31.221 -11.281  29.051  1.00  0.00    -0.275 OA
HETATM   27  O4  UNK     1      33.332 -12.066  29.448  1.00  0.00    -0.260 OA
HETATM   28  C13 UNK     1      30.202 -10.358  29.363  1.00  0.00     0.090 A 
HETATM   29  C9  UNK     1      30.383  -9.392  30.353  1.00  0.00     0.007 A 
HETATM   30  C20 UNK     1      29.018 -10.466  28.634  1.00  0.00     0.039 A 
HETATM   31  C14 UNK     1      29.323  -8.512  30.604  1.00  0.00     0.022 A 
HETATM   32  C17 UNK     1      28.128  -8.606  29.881  1.00  0.00    -0.058 A 
HETATM   33  C21 UNK     1      27.976  -9.582  28.897  1.00  0.00     0.010 A 
BRANCH  32  34
HETATM   34  C24 UNK     1      27.012  -7.658  30.164  1.00  0.00     0.034 C 
HETATM   35  C26 UNK     1      27.372  -6.644  31.246  1.00  0.00     0.010 C 
ENDBRANCH  32  34
ENDBRANCH  22  23
ENDBRANCH   1  22
TORSDOF 7
ENDMDL
MODEL 5
REMARK VINA RESULT:      -8.9      5.805      9.438
REMARK  7 active torsions:
REMARK  status: ('A' for Active; 'I' for Inactive)
REMARK    1  A    between atoms: C23_30  and  O3_3 
REMARK    2  A    between atoms: C27_34  and  O3_3 
REMARK    3  A    between atoms: C5_12  and  N1_6 
REMARK    4  A    between atoms: C6_13  and  N2_7 
REMARK    5  A    between atoms: C5_12  and  C7_14 
REMARK    6  A    between atoms: C6_13  and  C8_15 
REMARK    7  A    between atoms: C17_24  and  C24_31 
ROOT
HETATM    1  N1  UNK     1      30.455 -10.553  33.667  1.00  0.00     0.096 N 
HETATM    2  N2  UNK     1      30.516 -10.039  36.511  1.00  0.00     0.096 N 
HETATM    3  C1  UNK     1      29.301  -9.969  34.361  1.00  0.00     0.303 C 
HETATM    4  C2  UNK     1      31.224 -11.408  34.580  1.00  0.00     0.303 C 
HETATM    5  C3  UNK     1      29.747  -9.184  35.598  1.00  0.00     0.303 C 
HETATM    6  C4  UNK     1      31.671 -10.621  35.816  1.00  0.00     0.303 C 
ENDROOT
BRANCH   2   7
HETATM    7  C6  UNK     1      30.943  -9.288  37.690  1.00  0.00     0.312 C 
BRANCH   7   8
HETATM    8  C8  UNK     1      29.837  -8.478  38.270  1.00  0.00    -0.011 A 
HETATM    9  C10 UNK     1      29.962  -7.015  38.348  1.00  0.00     0.009 A 
HETATM   10  C15 UNK     1      28.909  -6.283  38.897  1.00  0.00     0.090 A 
HETATM   11  C16 UNK     1      31.083  -6.305  37.899  1.00  0.00     0.051 A 
HETATM   12  O2  UNK     1      27.746  -6.923  39.371  1.00  0.00    -0.275 OA
HETATM   13  C22 UNK     1      28.946  -4.892  39.008  1.00  0.00     0.041 A 
HETATM   14  C19 UNK     1      27.601  -8.299  39.312  1.00  0.00     0.288 A 
HETATM   15  C12 UNK     1      28.721  -9.059  38.730  1.00  0.00     0.092 A 
HETATM   16  O5  UNK     1      26.593  -8.867  39.719  1.00  0.00    -0.260 OA
HETATM   17  C25 UNK     1      30.068  -4.205  38.556  1.00  0.00     0.039 A 
HETATM   18  C23 UNK     1      31.135  -4.910  38.002  1.00  0.00     0.069 A 
BRANCH  18  19
HETATM   19  O3  UNK     1      32.233  -4.239  37.559  1.00  0.00    -0.351 OA
BRANCH  19  20
HETATM   20  C27 UNK     1      32.233  -3.825  36.194  1.00  0.00     0.171 C 
HETATM   21  C28 UNK     1      33.478  -4.358  35.517  1.00  0.00     0.034 C 
ENDBRANCH  19  20
ENDBRANCH  18  19
ENDBRANCH   7   8
ENDBRANCH   2   7
BRANCH   1  22
HETATM   22  C5  UNK     1      30.027 -11.306  32.489  1.00  0.00     0.312 C 
BRANCH  22  23
HETATM   23  C7  UNK     1      30.880 -11.024  31.301  1.00  0.00    -0.011 A 
HETATM   24  C11 UNK     1      31.882 -11.846  30.958  1.00  0.00     0.092 A 
HETATM   25  C18 UNK     1      32.752 -11.611  29.794  1.00  0.00     0.288 A 
HETATM   26  O1  UNK     1      32.491 -10.476  29.041  1.00  0.00    -0.275 OA
HETATM   27  O4  UNK     1      33.658 -12.386  29.510  1.00  0.00    -0.260 OA
HETATM   28  C13 UNK     1      31.445  -9.593  29.377  1.00  0.00     0.090 A 
HETATM   29  C9  UNK     1      30.629  -9.829  30.484  1.00  0.00     0.007 A 
HETATM   30  C20 UNK     1      31.275  -8.483  28.549  1.00  0.00     0.039 A 
HETATM   31  C14 UNK     1      29.612  -8.904  30.751  1.00  0.00     0.022 A 
HETATM   32  C17 UNK     1      29.428  -7.785  29.929  1.00  0.00    -0.058 A 
HETATM   33  C21 UNK     1      30.259  -7.575  28.830  1.00  0.00     0.010 A 
BRANCH  32  34
HETATM   34  C24 UNK     1      28.338  -6.813  30.232  1.00  0.00     0.034 C 
HETATM   35  C26 UNK     1      26.988  -7.496  30.425  1.00  0.00     0.010 C 
ENDBRANCH  32  34
ENDBRANCH  22  23
ENDBRANCH   1  22
TORSDOF 7
ENDMDL
MODEL 6
REMARK VINA RESULT:      -8.8      2.450      3.861
REMARK  7 active torsions:
REMARK  status: ('A' for Active; 'I' for Inactive)
REMARK    1  A    between atoms: C23_30  and  O3_3 
REMARK    2  A    between atoms: C27_34  and  O3_3 
REMARK    3  A    between atoms: C5_12  and  N1_6 
REMARK    4  A    between atoms: C6_13  and  N2_7 
REMARK    5  A    between atoms: C5_12  and  C7_14 
REMARK    6  A    between atoms: C6_13  and  C8_15 
REMARK    7  A    between atoms: C17_24  and  C24_31 
ROOT
HETATM    1  N1  UNK     1      29.617  -8.827  37.786  1.00  0.00     0.096 N 
HETATM    2  N2  UNK     1      26.785  -9.326  37.481  1.00  0.00     0.096 N 
HETATM    3  C1  UNK     1      28.977  -8.806  36.465  1.00  0.00     0.303 C 
HETATM    4  C2  UNK     1      28.902  -9.739  38.687  1.00  0.00     0.303 C 
HETATM    5  C3  UNK     1      27.500  -8.414  36.579  1.00  0.00     0.303 C 
HETATM    6  C4  UNK     1      27.425  -9.346  38.802  1.00  0.00     0.303 C 
ENDROOT
BRANCH   2   7
HETATM    7  C6  UNK     1      25.377  -8.950  37.592  1.00  0.00     0.312 C 
BRANCH   7   8
HETATM    8  C8  UNK     1      24.491  -9.854  36.807  1.00  0.00    -0.011 A 
HETATM    9  C10 UNK     1      23.093  -9.475  36.557  1.00  0.00     0.009 A 
HETATM   10  C15 UNK     1      22.288 -10.343  35.818  1.00  0.00     0.090 A 
HETATM   11  C16 UNK     1      22.515  -8.285  37.017  1.00  0.00     0.051 A 
HETATM   12  O2  UNK     1      22.795 -11.559  35.319  1.00  0.00    -0.275 OA
HETATM   13  C22 UNK     1      20.950 -10.060  35.535  1.00  0.00     0.041 A 
HETATM   14  C19 UNK     1      24.108 -11.943  35.539  1.00  0.00     0.288 A 
HETATM   15  C12 UNK     1      24.946 -11.017  36.321  1.00  0.00     0.092 A 
HETATM   16  O5  UNK     1      24.561 -12.998  35.108  1.00  0.00    -0.260 OA
HETATM   17  C25 UNK     1      20.395  -8.873  36.002  1.00  0.00     0.039 A 
HETATM   18  C23 UNK     1      21.176  -7.987  36.741  1.00  0.00     0.069 A 
BRANCH  18  19
HETATM   19  O3  UNK     1      20.633  -6.824  37.197  1.00  0.00    -0.351 OA
BRANCH  19  20
HETATM   20  C27 UNK     1      20.925  -6.457  38.544  1.00  0.00     0.171 C 
HETATM   21  C28 UNK     1      19.977  -7.190  39.471  1.00  0.00     0.034 C 
ENDBRANCH  19  20
ENDBRANCH  18  19
ENDBRANCH   7   8
ENDBRANCH   2   7
BRANCH   1  22
HETATM   22  C5  UNK     1      31.024  -9.206  37.675  1.00  0.00     0.312 C 
BRANCH  22  23
HETATM   23  C7  UNK     1      31.908  -8.026  37.466  1.00  0.00    -0.011 A 
HETATM   24  C11 UNK     1      31.885  -6.985  38.309  1.00  0.00     0.092 A 
HETATM   25  C18 UNK     1      32.738  -5.797  38.145  1.00  0.00     0.288 A 
HETATM   26  O1  UNK     1      33.596  -5.793  37.055  1.00  0.00    -0.275 OA
HETATM   27  O4  UNK     1      32.690  -4.863  38.938  1.00  0.00    -0.260 OA
HETATM   28  C13 UNK     1      33.644  -6.873  36.151  1.00  0.00     0.090 A 
HETATM   29  C9  UNK     1      32.827  -7.992  36.320  1.00  0.00     0.007 A 
HETATM   30  C20 UNK     1      34.545  -6.760  35.091  1.00  0.00     0.039 A 
HETATM   31  C14 UNK     1      32.935  -9.023  35.378  1.00  0.00     0.022 A 
HETATM   32  C17 UNK     1      33.834  -8.924  34.309  1.00  0.00    -0.058 A 
HETATM   33  C21 UNK     1      34.637  -7.794  34.166  1.00  0.00     0.010 A 
BRANCH  32  34
HETATM   34  C24 UNK     1      33.932 -10.035  33.317  1.00  0.00     0.034 C 
HETATM   35  C26 UNK     1      32.679 -10.906  33.296  1.00  0.00     0.010 C 
ENDBRANCH  32  34
ENDBRANCH  22  23
ENDBRANCH   1  22
TORSDOF 7
ENDMDL
MODEL 7
REMARK VINA RESULT:      -8.8      2.548      4.587
REMARK  7 active torsions:
REMARK  status: ('A' for Active; 'I' for Inactive)
REMARK    1  A    between atoms: C23_30  and  O3_3 
REMARK    2  A    between atoms: C27_34  and  O3_3 
REMARK    3  A    between atoms: C5_12  and  N1_6 
REMARK    4  A    between atoms: C6_13  and  N2_7 
REMARK    5  A    between atoms: C5_12  and  C7_14 
REMARK    6  A    between atoms: C6_13  and  C8_15 
REMARK    7  A    between atoms: C17_24  and  C24_31 
ROOT
HETATM    1  N1  UNK     1      29.745  -8.905  37.565  1.00  0.00     0.096 N 
HETATM    2  N2  UNK     1      26.899  -9.404  37.449  1.00  0.00     0.096 N 
HETATM    3  C1  UNK     1      29.072  -9.187  36.292  1.00  0.00     0.303 C 
HETATM    4  C2  UNK     1      29.039  -9.560  38.674  1.00  0.00     0.303 C 
HETATM    5  C3  UNK     1      27.605  -8.749  36.339  1.00  0.00     0.303 C 
HETATM    6  C4  UNK     1      27.572  -9.120  38.722  1.00  0.00     0.303 C 
ENDROOT
BRANCH   2   7
HETATM    7  C6  UNK     1      25.500  -8.983  37.495  1.00  0.00     0.312 C 
BRANCH   7   8
HETATM    8  C8  UNK     1      24.605  -9.930  36.775  1.00  0.00    -0.011 A 
HETATM    9  C10 UNK     1      23.200  -9.572  36.535  1.00  0.00     0.009 A 
HETATM   10  C15 UNK     1      22.386 -10.481  35.857  1.00  0.00     0.090 A 
HETATM   11  C16 UNK     1      22.623  -8.364  36.948  1.00  0.00     0.051 A 
HETATM   12  O2  UNK     1      22.891 -11.718  35.409  1.00  0.00    -0.275 OA
HETATM   13  C22 UNK     1      21.041 -10.220  35.588  1.00  0.00     0.041 A 
HETATM   14  C19 UNK     1      24.210 -12.082  35.621  1.00  0.00     0.288 A 
HETATM   15  C12 UNK     1      25.057 -11.113  36.338  1.00  0.00     0.092 A 
HETATM   16  O5  UNK     1      24.662 -13.155  35.233  1.00  0.00    -0.260 OA
HETATM   17  C25 UNK     1      20.487  -9.015  36.006  1.00  0.00     0.039 A 
HETATM   18  C23 UNK     1      21.277  -8.088  36.684  1.00  0.00     0.069 A 
BRANCH  18  19
HETATM   19  O3  UNK     1      20.735  -6.908  37.093  1.00  0.00    -0.351 OA
BRANCH  19  20
HETATM   20  C27 UNK     1      19.639  -6.977  38.004  1.00  0.00     0.171 C 
HETATM   21  C28 UNK     1      20.130  -6.630  39.393  1.00  0.00     0.034 C 
ENDBRANCH  19  20
ENDBRANCH  18  19
ENDBRANCH   7   8
ENDBRANCH   2   7
BRANCH   1  22
HETATM   22  C5  UNK     1      31.143  -9.328  37.519  1.00  0.00     0.312 C 
BRANCH  22  23
HETATM   23  C7  UNK     1      31.982  -8.407  36.701  1.00  0.00    -0.011 A 
HETATM   24  C11 UNK     1      32.834  -8.880  35.781  1.00  0.00     0.092 A 
HETATM   25  C18 UNK     1      33.683  -8.011  34.950  1.00  0.00     0.288 A 
HETATM   26  O1  UNK     1      33.565  -6.645  35.155  1.00  0.00    -0.275 OA
HETATM   27  O4  UNK     1      34.451  -8.480  34.116  1.00  0.00    -0.260 OA
HETATM   28  C13 UNK     1      32.677  -6.118  36.114  1.00  0.00     0.090 A 
HETATM   29  C9  UNK     1      31.880  -6.955  36.896  1.00  0.00     0.007 A 
HETATM   30  C20 UNK     1      32.642  -4.728  36.235  1.00  0.00     0.039 A 
HETATM   31  C14 UNK     1      31.023  -6.353  37.827  1.00  0.00     0.022 A 
HETATM   32  C17 UNK     1      30.977  -4.960  37.960  1.00  0.00    -0.058 A 
HETATM   33  C21 UNK     1      31.785  -4.149  37.166  1.00  0.00     0.010 A 
BRANCH  32  34
HETATM   34  C24 UNK     1      30.057  -4.340  38.959  1.00  0.00     0.034 C 
HETATM   35  C26 UNK     1      28.601  -4.732  38.727  1.00  0.00     0.010 C 
ENDBRANCH  32  34
ENDBRANCH  22  23
ENDBRANCH   1  22
TORSDOF 7
ENDMDL
MODEL 8
REMARK VINA RESULT:      -8.8      5.464      9.695
REMARK  7 active torsions:
REMARK  status: ('A' for Active; 'I' for Inactive)
REMARK    1  A    between atoms: C23_30  and  O3_3 
REMARK    2  A    between atoms: C27_34  and  O3_3 
REMARK    3  A    between atoms: C5_12  and  N1_6 
REMARK    4  A    between atoms: C6_13  and  N2_7 
REMARK    5  A    between atoms: C5_12  and  C7_14 
REMARK    6  A    between atoms: C6_13  and  C8_15 
REMARK    7  A    between atoms: C17_24  and  C24_31 
ROOT
HETATM    1  N1  UNK     1      31.278  -6.743  35.607  1.00  0.00     0.096 N 
HETATM    2  N2  UNK     1      31.396  -6.729  32.718  1.00  0.00     0.096 N 
HETATM    3  C1  UNK     1      32.418  -7.326  34.888  1.00  0.00     0.303 C 
HETATM    4  C2  UNK     1      30.059  -6.831  34.793  1.00  0.00     0.303 C 
HETATM    5  C3  UNK     1      32.616  -6.641  33.532  1.00  0.00     0.303 C 
HETATM    6  C4  UNK     1      30.258  -6.145  33.438  1.00  0.00     0.303 C 
ENDROOT
BRANCH   2   7
HETATM    7  C6  UNK     1      31.586  -6.073  31.426  1.00  0.00     0.312 C 
BRANCH   7   8
HETATM    8  C8  UNK     1      31.953  -7.040  30.354  1.00  0.00    -0.011 A 
HETATM    9  C10 UNK     1      30.918  -7.891  29.749  1.00  0.00     0.009 A 
HETATM   10  C15 UNK     1      31.294  -8.788  28.747  1.00  0.00     0.090 A 
HETATM   11  C16 UNK     1      29.568  -7.857  30.119  1.00  0.00     0.051 A 
HETATM   12  O2  UNK     1      32.632  -8.883  28.319  1.00  0.00    -0.275 OA
HETATM   13  C22 UNK     1      30.375  -9.632  28.121  1.00  0.00     0.041 A 
HETATM   14  C19 UNK     1      33.628  -8.094  28.871  1.00  0.00     0.288 A 
HETATM   15  C12 UNK     1      33.218  -7.153  29.927  1.00  0.00     0.092 A 
HETATM   16  O5  UNK     1      34.797  -8.166  28.504  1.00  0.00    -0.260 OA
HETATM   17  C25 UNK     1      29.038  -9.582  28.502  1.00  0.00     0.039 A 
HETATM   18  C23 UNK     1      28.635  -8.696  29.499  1.00  0.00     0.069 A 
BRANCH  18  19
HETATM   19  O3  UNK     1      27.326  -8.646  29.872  1.00  0.00    -0.351 OA
BRANCH  19  20
HETATM   20  C27 UNK     1      26.940  -7.584  30.742  1.00  0.00     0.171 C 
HETATM   21  C28 UNK     1      26.064  -6.614  29.977  1.00  0.00     0.034 C 
ENDBRANCH  19  20
ENDBRANCH  18  19
ENDBRANCH   7   8
ENDBRANCH   2   7
BRANCH   1  22
HETATM   22  C5  UNK     1      31.088  -7.401  36.899  1.00  0.00     0.312 C 
BRANCH  22  23
HETATM   23  C7  UNK     1      30.043  -6.731  37.722  1.00  0.00    -0.011 A 
HETATM   24  C11 UNK     1      30.303  -5.589  38.374  1.00  0.00     0.092 A 
HETATM   25  C18 UNK     1      29.305  -4.889  39.199  1.00  0.00     0.288 A 
HETATM   26  O1  UNK     1      28.048  -5.468  39.280  1.00  0.00    -0.275 OA
HETATM   27  O4  UNK     1      29.579  -3.845  39.781  1.00  0.00    -0.260 OA
HETATM   28  C13 UNK     1      27.744  -6.668  38.605  1.00  0.00     0.090 A 
HETATM   29  C9  UNK     1      28.702  -7.321  37.827  1.00  0.00     0.007 A 
HETATM   30  C20 UNK     1      26.447  -7.159  38.758  1.00  0.00     0.039 A 
HETATM   31  C14 UNK     1      28.321  -8.508  37.189  1.00  0.00     0.022 A 
HETATM   32  C17 UNK     1      27.024  -9.014  37.333  1.00  0.00    -0.058 A 
HETATM   33  C21 UNK     1      26.088  -8.340  38.116  1.00  0.00     0.010 A 
BRANCH  32  34
HETATM   34  C24 UNK     1      26.640 -10.280  36.644  1.00  0.00     0.034 C 
HETATM   35  C26 UNK     1      25.127 -10.449  36.541  1.00  0.00     0.010 C 
ENDBRANCH  32  34
ENDBRANCH  22  23
ENDBRANCH   1  22
TORSDOF 7
ENDMDL
MODEL 9
REMARK VINA RESULT:      -8.7      5.713      9.919
REMARK  7 active torsions:
REMARK  status: ('A' for Active; 'I' for Inactive)
REMARK    1  A    between atoms: C23_30  and  O3_3 
REMARK    2  A    between atoms: C27_34  and  O3_3 
REMARK    3  A    between atoms: C5_12  and  N1_6 
REMARK    4  A    between atoms: C6_13  and  N2_7 
REMARK    5  A    between atoms: C5_12  and  C7_14 
REMARK    6  A    between atoms: C6_13  and  C8_15 
REMARK    7  A    between atoms: C17_24  and  C24_31 
ROOT
HETATM    1  N1  UNK     1      32.986  -8.557  33.940  1.00  0.00     0.096 N 
HETATM    2  N2  UNK     1      32.950  -8.265  36.816  1.00  0.00     0.096 N 
HETATM    3  C1  UNK     1      32.033  -9.304  34.770  1.00  0.00     0.303 C 
HETATM    4  C2  UNK     1      34.214  -8.279  34.694  1.00  0.00     0.303 C 
HETATM    5  C3  UNK     1      31.720  -8.543  36.062  1.00  0.00     0.303 C 
HETATM    6  C4  UNK     1      33.901  -7.517  35.986  1.00  0.00     0.303 C 
ENDROOT
BRANCH   2   7
HETATM    7  C6  UNK     1      32.650  -7.537  38.048  1.00  0.00     0.312 C 
BRANCH   7   8
HETATM    8  C8  UNK     1      31.912  -6.271  37.786  1.00  0.00    -0.011 A 
HETATM    9  C10 UNK     1      30.506  -6.144  38.195  1.00  0.00     0.009 A 
HETATM   10  C15 UNK     1      29.841  -4.945  37.935  1.00  0.00     0.090 A 
HETATM   11  C16 UNK     1      29.786  -7.161  38.835  1.00  0.00     0.051 A 
HETATM   12  O2  UNK     1      30.495  -3.873  37.296  1.00  0.00    -0.275 OA
HETATM   13  C22 UNK     1      28.506  -4.741  38.290  1.00  0.00     0.041 A 
HETATM   14  C19 UNK     1      31.819  -3.964  36.899  1.00  0.00     0.288 A 
HETATM   15  C12 UNK     1      32.508  -5.236  37.179  1.00  0.00     0.092 A 
HETATM   16  O5  UNK     1      32.399  -3.037  36.344  1.00  0.00    -0.260 OA
HETATM   17  C25 UNK     1      27.809  -5.764  38.925  1.00  0.00     0.039 A 
HETATM   18  C23 UNK     1      28.448  -6.972  39.197  1.00  0.00     0.069 A 
BRANCH  18  19
HETATM   19  O3  UNK     1      27.767  -7.973  39.820  1.00  0.00    -0.351 OA
BRANCH  19  20
HETATM   20  C27 UNK     1      26.863  -8.735  39.023  1.00  0.00     0.171 C 
HETATM   21  C28 UNK     1      27.206 -10.204  39.156  1.00  0.00     0.034 C 
ENDBRANCH  19  20
ENDBRANCH  18  19
ENDBRANCH   7   8
ENDBRANCH   2   7
BRANCH   1  22
HETATM   22  C5  UNK     1      33.286  -9.286  32.709  1.00  0.00     0.312 C 
BRANCH  22  23
HETATM   23  C7  UNK     1      33.319  -8.391  31.519  1.00  0.00    -0.011 A 
HETATM   24  C11 UNK     1      34.468  -7.848  31.092  1.00  0.00     0.092 A 
HETATM   25  C18 UNK     1      34.551  -6.958  29.923  1.00  0.00     0.288 A 
HETATM   26  O1  UNK     1      33.364  -6.694  29.256  1.00  0.00    -0.275 OA
HETATM   27  O4  UNK     1      35.621  -6.481  29.561  1.00  0.00    -0.260 OA
HETATM   28  C13 UNK     1      32.140  -7.250  29.681  1.00  0.00     0.090 A 
HETATM   29  C9  UNK     1      32.077  -8.092  30.793  1.00  0.00     0.007 A 
HETATM   30  C20 UNK     1      31.010  -6.915  28.934  1.00  0.00     0.039 A 
HETATM   31  C14 UNK     1      30.824  -8.603  31.150  1.00  0.00     0.022 A 
HETATM   32  C17 UNK     1      29.680  -8.276  30.411  1.00  0.00    -0.058 A 
HETATM   33  C21 UNK     1      29.774  -7.433  29.305  1.00  0.00     0.010 A 
BRANCH  32  34
HETATM   34  C24 UNK     1      28.354  -8.832  30.810  1.00  0.00     0.034 C 
HETATM   35  C26 UNK     1      27.207  -7.874  30.503  1.00  0.00     0.010 C 
ENDBRANCH  32  34
ENDBRANCH  22  23
ENDBRANCH   1  22
TORSDOF 7
ENDMDL
MODEL 10
REMARK VINA RESULT:      -8.7      6.275      9.925
REMARK  7 active torsions:
REMARK  status: ('A' for Active; 'I' for Inactive)
REMARK    1  A    between atoms: C23_30  and  O3_3 
REMARK    2  A    between atoms: C27_34  and  O3_3 
REMARK    3  A    between atoms: C5_12  and  N1_6 
REMARK    4  A    between atoms: C6_13  and  N2_7 
REMARK    5  A    between atoms: C5_12  and  C7_14 
REMARK    6  A    between atoms: C6_13  and  C8_15 
REMARK    7  A    between atoms: C17_24  and  C24_31 
ROOT
HETATM    1  N1  UNK     1      32.919  -8.334  36.866  1.00  0.00     0.096 N 
HETATM    2  N2  UNK     1      32.927  -8.624  33.989  1.00  0.00     0.096 N 
HETATM    3  C1  UNK     1      31.711  -8.740  36.137  1.00  0.00     0.303 C 
HETATM    4  C2  UNK     1      33.771  -7.493  36.017  1.00  0.00     0.303 C 
HETATM    5  C3  UNK     1      32.074  -9.466  34.838  1.00  0.00     0.303 C 
HETATM    6  C4  UNK     1      34.135  -8.220  34.718  1.00  0.00     0.303 C 
ENDROOT
BRANCH   2   7
HETATM    7  C6  UNK     1      33.275  -9.319  32.751  1.00  0.00     0.312 C 
BRANCH   7   8
HETATM    8  C8  UNK     1      33.312  -8.398  31.582  1.00  0.00    -0.011 A 
HETATM    9  C10 UNK     1      32.058  -7.874  31.020  1.00  0.00     0.009 A 
HETATM   10  C15 UNK     1      32.126  -7.013  29.924  1.00  0.00     0.090 A 
HETATM   11  C16 UNK     1      30.789  -8.189  31.523  1.00  0.00     0.051 A 
HETATM   12  O2  UNK     1      33.364  -6.648  29.360  1.00  0.00    -0.275 OA
HETATM   13  C22 UNK     1      30.984  -6.472  29.330  1.00  0.00     0.041 A 
HETATM   14  C19 UNK     1      34.561  -7.126  29.867  1.00  0.00     0.288 A 
HETATM   15  C12 UNK     1      34.475  -8.034  31.024  1.00  0.00     0.092 A 
HETATM   16  O5  UNK     1      35.646  -6.813  29.386  1.00  0.00    -0.260 OA
HETATM   17  C25 UNK     1      29.733  -6.796  29.845  1.00  0.00     0.039 A 
HETATM   18  C23 UNK     1      29.636  -7.653  30.940  1.00  0.00     0.069 A 
BRANCH  18  19
HETATM   19  O3  UNK     1      28.412  -7.970  31.445  1.00  0.00    -0.351 OA
BRANCH  19  20
HETATM   20  C27 UNK     1      27.471  -6.906  31.581  1.00  0.00     0.171 C 
HETATM   21  C28 UNK     1      27.776  -6.139  32.851  1.00  0.00     0.034 C 
ENDBRANCH  19  20
ENDBRANCH  18  19
ENDBRANCH   7   8
ENDBRANCH   2   7
BRANCH   1  22
HETATM   22  C5  UNK     1      32.570  -7.638  38.103  1.00  0.00     0.312 C 
BRANCH  22  23
HETATM   23  C7  UNK     1      31.765  -6.411  37.848  1.00  0.00    -0.011 A 
HETATM   24  C11 UNK     1      32.316  -5.324  37.289  1.00  0.00     0.092 A 
HETATM   25  C18 UNK     1      31.562  -4.089  37.018  1.00  0.00     0.288 A 
HETATM   26  O1  UNK     1      30.221  -4.089  37.369  1.00  0.00    -0.275 OA
HETATM   27  O4  UNK     1      32.100  -3.115  36.503  1.00  0.00    -0.260 OA
HETATM   28  C13 UNK     1      29.613  -5.216  37.957  1.00  0.00     0.090 A 
HETATM   29  C9  UNK     1      30.341  -6.380  38.210  1.00  0.00     0.007 A 
HETATM   30  C20 UNK     1      28.257  -5.103  38.269  1.00  0.00     0.039 A 
HETATM   31  C14 UNK     1      29.664  -7.456  38.797  1.00  0.00     0.022 A 
HETATM   32  C17 UNK     1      28.304  -7.357  39.116  1.00  0.00    -0.058 A 
HETATM   33  C21 UNK     1      27.602  -6.182  38.853  1.00  0.00     0.010 A 
BRANCH  32  34
HETATM   34  C24 UNK     1      27.603  -8.516  39.742  1.00  0.00     0.034 C 
HETATM   35  C26 UNK     1      28.125  -9.855  39.230  1.00  0.00     0.010 C 
ENDBRANCH  32  34
ENDBRANCH  22  23
ENDBRANCH   1  22
TORSDOF 7
ENDMDL
