MODEL 1
REMARK VINA RESULT:      -9.3      0.000      0.000
REMARK  4 active torsions:
REMARK  status: ('A' for Active; 'I' for Inactive)
REMARK    1  A    between atoms: C7_13  and  O2_2 
REMARK    2  A    between atoms: C13_19  and  O3_3 
REMARK    3  A    between atoms: C3_9  and  N1_6 
REMARK       I    between atoms: C6_12  and  N1_6 
REMARK    4  A    between atoms: C2_8  and  C6_12 
ROOT
HETATM    1  O4  UNK     1      21.387  -4.384  36.982  1.00  0.00    -0.267 OA
HETATM    2  N1  UNK     1      19.132  -5.055  37.068  1.00  0.00    -0.320 N 
HETATM    3  C6  UNK     1      20.183  -4.175  36.853  1.00  0.00     0.262 C 
HETATM    4  H2  UNK     1      18.183  -4.729  36.899  1.00  0.00     0.169 HD
ENDROOT
BRANCH   3   5
HETATM    5  C2  UNK     1      19.717  -2.852  36.416  1.00  0.00     0.108 A 
HETATM    6  C5  UNK     1      18.997  -2.156  37.304  1.00  0.00     0.037 A 
HETATM    7  C1  UNK     1      18.490  -0.836  36.963  1.00  0.00    -0.001 A 
HETATM    8  C4  UNK     1      18.765  -0.314  35.703  1.00  0.00     0.089 A 
HETATM    9  C8  UNK     1      17.736  -0.073  37.858  1.00  0.00     0.014 A 
HETATM   10  C11 UNK     1      18.309   0.944  35.314  1.00  0.00     0.038 A 
HETATM   11  O1  UNK     1      19.524  -1.052  34.773  1.00  0.00    -0.274 OA
HETATM   12  C16 UNK     1      17.558   1.697  36.212  1.00  0.00     0.003 A 
HETATM   13  C15 UNK     1      17.271   1.189  37.481  1.00  0.00     0.001 A 
HETATM   14  C9  UNK     1      20.022  -2.317  35.070  1.00  0.00     0.304 A 
HETATM   15  O5  UNK     1      20.680  -2.953  34.254  1.00  0.00    -0.259 OA
ENDBRANCH   3   5
BRANCH   2  16
HETATM   16  C3  UNK     1      19.208  -6.405  37.491  1.00  0.00     0.068 A 
HETATM   17  C10 UNK     1      19.692  -6.675  38.760  1.00  0.00     0.035 A 
HETATM   18  C14 UNK     1      19.775  -8.000  39.191  1.00  0.00     0.039 A 
HETATM   19  C13 UNK     1      19.374  -9.035  38.346  1.00  0.00     0.070 A 
HETATM   20  C12 UNK     1      18.890  -8.745  37.070  1.00  0.00     0.075 A 
HETATM   21  C7  UNK     1      18.806  -7.420  36.639  1.00  0.00     0.097 A 
BRANCH  19  22
HETATM   22  O3  UNK     1      19.452 -10.327  38.767  1.00  0.00    -0.356 OA
HETATM   23  C18 UNK     1      19.822 -11.305  37.797  1.00  0.00     0.210 C 
ENDBRANCH  19  22
BRANCH  21  24
HETATM   24  O2  UNK     1      18.330  -7.158  35.390  1.00  0.00    -0.354 OA
HETATM   25  C17 UNK     1      16.969  -7.497  35.132  1.00  0.00     0.210 C 
ENDBRANCH  21  24
ENDBRANCH   2  16
TORSDOF 4
ENDMDL
MODEL 2
REMARK VINA RESULT:      -9.1      7.421     12.573
REMARK  4 active torsions:
REMARK  status: ('A' for Active; 'I' for Inactive)
REMARK    1  A    between atoms: C7_13  and  O2_2 
REMARK    2  A    between atoms: C13_19  and  O3_3 
REMARK    3  A    between atoms: C3_9  and  N1_6 
REMARK       I    between atoms: C6_12  and  N1_6 
REMARK    4  A    between atoms: C2_8  and  C6_12 
ROOT
HETATM    1  O4  UNK     1      18.667   4.662  30.163  1.00  0.00    -0.267 OA
HETATM    2  N1  UNK     1      17.788   4.625  32.347  1.00  0.00    -0.320 N 
HETATM    3  C6  UNK     1      18.381   4.089  31.213  1.00  0.00     0.262 C 
HETATM    4  H2  UNK     1      17.631   4.016  33.146  1.00  0.00     0.169 HD
ENDROOT
BRANCH   3   5
HETATM    5  C2  UNK     1      18.673   2.658  31.364  1.00  0.00     0.108 A 
HETATM    6  C5  UNK     1      19.215   2.050  30.302  1.00  0.00     0.037 A 
HETATM    7  C1  UNK     1      19.539   0.633  30.355  1.00  0.00    -0.001 A 
HETATM    8  C4  UNK     1      19.276  -0.075  31.524  1.00  0.00     0.089 A 
HETATM    9  C8  UNK     1      20.106  -0.043  29.272  1.00  0.00     0.014 A 
HETATM   10  C11 UNK     1      19.563  -1.433  31.640  1.00  0.00     0.038 A 
HETATM   11  O1  UNK     1      18.706   0.572  32.638  1.00  0.00    -0.274 OA
HETATM   12  C16 UNK     1      20.127  -2.099  30.555  1.00  0.00     0.003 A 
HETATM   13  C15 UNK     1      20.398  -1.406  29.373  1.00  0.00     0.001 A 
HETATM   14  C9  UNK     1      18.386   1.926  32.617  1.00  0.00     0.304 A 
HETATM   15  O5  UNK     1      17.888   2.480  33.592  1.00  0.00    -0.259 OA
ENDBRANCH   3   5
BRANCH   2  16
HETATM   16  C3  UNK     1      17.374   5.964  32.556  1.00  0.00     0.068 A 
HETATM   17  C10 UNK     1      16.159   6.370  32.030  1.00  0.00     0.035 A 
HETATM   18  C14 UNK     1      15.737   7.686  32.226  1.00  0.00     0.039 A 
HETATM   19  C13 UNK     1      16.538   8.576  32.943  1.00  0.00     0.070 A 
HETATM   20  C12 UNK     1      17.759   8.150  33.464  1.00  0.00     0.075 A 
HETATM   21  C7  UNK     1      18.180   6.834  33.270  1.00  0.00     0.097 A 
BRANCH  19  22
HETATM   22  O3  UNK     1      16.125   9.859  33.135  1.00  0.00    -0.356 OA
HETATM   23  C18 UNK     1      16.773  10.601  34.167  1.00  0.00     0.210 C 
ENDBRANCH  19  22
BRANCH  21  24
HETATM   24  O2  UNK     1      19.377   6.437  33.789  1.00  0.00    -0.354 OA
HETATM   25  C17 UNK     1      20.537   6.679  32.996  1.00  0.00     0.210 C 
ENDBRANCH  21  24
ENDBRANCH   2  16
TORSDOF 4
ENDMDL
MODEL 3
REMARK VINA RESULT:      -9.1      8.360     12.603
REMARK  4 active torsions:
REMARK  status: ('A' for Active; 'I' for Inactive)
REMARK    1  A    between atoms: C7_13  and  O2_2 
REMARK    2  A    between atoms: C13_19  and  O3_3 
REMARK    3  A    between atoms: C3_9  and  N1_6 
REMARK       I    between atoms: C6_12  and  N1_6 
REMARK    4  A    between atoms: C2_8  and  C6_12 
ROOT
HETATM    1  O4  UNK     1      17.606   3.347  32.854  1.00  0.00    -0.267 OA
HETATM    2  N1  UNK     1      18.668   4.836  31.371  1.00  0.00    -0.320 N 
HETATM    3  C6  UNK     1      18.255   3.596  31.840  1.00  0.00     0.262 C 
HETATM    4  H2  UNK     1      19.189   4.874  30.498  1.00  0.00     0.169 HD
ENDROOT
BRANCH   3   5
HETATM    5  C2  UNK     1      18.682   2.501  30.961  1.00  0.00     0.108 A 
HETATM    6  C5  UNK     1      19.112   1.388  31.568  1.00  0.00     0.037 A 
HETATM    7  C1  UNK     1      19.557   0.249  30.782  1.00  0.00    -0.001 A 
HETATM    8  C4  UNK     1      19.529   0.336  29.393  1.00  0.00     0.089 A 
HETATM    9  C8  UNK     1      20.012  -0.933  31.373  1.00  0.00     0.014 A 
HETATM   10  C11 UNK     1      19.941  -0.719  28.583  1.00  0.00     0.038 A 
HETATM   11  O1  UNK     1      19.075   1.510  28.760  1.00  0.00    -0.274 OA
HETATM   12  C16 UNK     1      20.394  -1.892  29.180  1.00  0.00     0.003 A 
HETATM   13  C15 UNK     1      20.430  -1.999  30.572  1.00  0.00     0.001 A 
HETATM   14  C9  UNK     1      18.643   2.617  29.486  1.00  0.00     0.304 A 
HETATM   15  O5  UNK     1      18.252   3.635  28.926  1.00  0.00    -0.259 OA
ENDBRANCH   3   5
BRANCH   2  16
HETATM   16  C3  UNK     1      18.436   6.103  31.958  1.00  0.00     0.068 A 
HETATM   17  C10 UNK     1      17.289   6.797  31.606  1.00  0.00     0.035 A 
HETATM   18  C14 UNK     1      17.047   8.048  32.174  1.00  0.00     0.039 A 
HETATM   19  C13 UNK     1      17.955   8.587  33.086  1.00  0.00     0.070 A 
HETATM   20  C12 UNK     1      19.104   7.877  33.428  1.00  0.00     0.075 A 
HETATM   21  C7  UNK     1      19.347   6.625  32.861  1.00  0.00     0.097 A 
BRANCH  19  22
HETATM   22  O3  UNK     1      17.717   9.807  33.642  1.00  0.00    -0.356 OA
HETATM   23  C18 UNK     1      16.381  10.079  34.063  1.00  0.00     0.210 C 
ENDBRANCH  19  22
BRANCH  21  24
HETATM   24  O2  UNK     1      20.476   5.946  33.209  1.00  0.00    -0.354 OA
HETATM   25  C17 UNK     1      21.675   6.286  32.517  1.00  0.00     0.210 C 
ENDBRANCH  21  24
ENDBRANCH   2  16
TORSDOF 4
ENDMDL
MODEL 4
REMARK VINA RESULT:      -8.8      1.548      2.122
REMARK  4 active torsions:
REMARK  status: ('A' for Active; 'I' for Inactive)
REMARK    1  A    between atoms: C7_13  and  O2_2 
REMARK    2  A    between atoms: C13_19  and  O3_3 
REMARK    3  A    between atoms: C3_9  and  N1_6 
REMARK       I    between atoms: C6_12  and  N1_6 
REMARK    4  A    between atoms: C2_8  and  C6_12 
ROOT
HETATM    1  O4  UNK     1      21.390  -4.303  37.257  1.00  0.00    -0.267 OA
HETATM    2  N1  UNK     1      19.789  -5.321  35.863  1.00  0.00    -0.320 N 
HETATM    3  C6  UNK     1      20.431  -4.262  36.489  1.00  0.00     0.262 C 
HETATM    4  H2  UNK     1      19.014  -5.116  35.237  1.00  0.00     0.169 HD
ENDROOT
BRANCH   3   5
HETATM    5  C2  UNK     1      19.835  -2.967  36.138  1.00  0.00     0.108 A 
HETATM    6  C5  UNK     1      19.129  -2.360  37.099  1.00  0.00     0.037 A 
HETATM    7  C1  UNK     1      18.499  -1.074  36.846  1.00  0.00    -0.001 A 
HETATM    8  C4  UNK     1      18.643  -0.489  35.592  1.00  0.00     0.089 A 
HETATM    9  C8  UNK     1      17.753  -0.405  37.820  1.00  0.00     0.014 A 
HETATM   10  C11 UNK     1      18.065   0.741  35.285  1.00  0.00     0.038 A 
HETATM   11  O1  UNK     1      19.388  -1.132  34.585  1.00  0.00    -0.274 OA
HETATM   12  C16 UNK     1      17.323   1.401  36.261  1.00  0.00     0.003 A 
HETATM   13  C15 UNK     1      17.167   0.829  37.526  1.00  0.00     0.001 A 
HETATM   14  C9  UNK     1      20.002  -2.363  34.797  1.00  0.00     0.304 A 
HETATM   15  O5  UNK     1      20.648  -2.916  33.913  1.00  0.00    -0.259 OA
ENDBRANCH   3   5
BRANCH   2  16
HETATM   16  C3  UNK     1      20.093  -6.700  35.968  1.00  0.00     0.068 A 
HETATM   17  C10 UNK     1      20.698  -7.329  34.892  1.00  0.00     0.035 A 
HETATM   18  C14 UNK     1      21.003  -8.688  34.979  1.00  0.00     0.039 A 
HETATM   19  C13 UNK     1      20.697  -9.398  36.141  1.00  0.00     0.070 A 
HETATM   20  C12 UNK     1      20.087  -8.750  37.214  1.00  0.00     0.075 A 
HETATM   21  C7  UNK     1      19.783  -7.390  37.128  1.00  0.00     0.097 A 
BRANCH  19  22
HETATM   22  O3  UNK     1      20.996 -10.723  36.227  1.00  0.00    -0.356 OA
HETATM   23  C18 UNK     1      22.123 -11.184  35.484  1.00  0.00     0.210 C 
ENDBRANCH  19  22
BRANCH  21  24
HETATM   24  O2  UNK     1      19.188  -6.775  38.188  1.00  0.00    -0.354 OA
HETATM   25  C17 UNK     1      19.935  -6.711  39.401  1.00  0.00     0.210 C 
ENDBRANCH  21  24
ENDBRANCH   2  16
TORSDOF 4
ENDMDL
MODEL 5
REMARK VINA RESULT:      -8.8      1.512      7.828
REMARK  4 active torsions:
REMARK  status: ('A' for Active; 'I' for Inactive)
REMARK    1  A    between atoms: C7_13  and  O2_2 
REMARK    2  A    between atoms: C13_19  and  O3_3 
REMARK    3  A    between atoms: C3_9  and  N1_6 
REMARK       I    between atoms: C6_12  and  N1_6 
REMARK    4  A    between atoms: C2_8  and  C6_12 
ROOT
HETATM    1  O4  UNK     1      21.189  -3.710  37.502  1.00  0.00    -0.267 OA
HETATM    2  N1  UNK     1      19.013  -3.623  36.606  1.00  0.00    -0.320 N 
HETATM    3  C6  UNK     1      20.169  -4.239  37.063  1.00  0.00     0.262 C 
HETATM    4  H2  UNK     1      18.245  -4.209  36.288  1.00  0.00     0.169 HD
ENDROOT
BRANCH   3   5
HETATM    5  C2  UNK     1      20.085  -5.703  36.984  1.00  0.00     0.108 A 
HETATM    6  C5  UNK     1      19.978  -6.353  38.149  1.00  0.00     0.037 A 
HETATM    7  C1  UNK     1      19.890  -7.805  38.173  1.00  0.00    -0.001 A 
HETATM    8  C4  UNK     1      19.919  -8.501  36.969  1.00  0.00     0.089 A 
HETATM    9  C8  UNK     1      19.776  -8.524  39.365  1.00  0.00     0.014 A 
HETATM   10  C11 UNK     1      19.839  -9.891  36.923  1.00  0.00     0.038 A 
HETATM   11  O1  UNK     1      20.032  -7.810  35.747  1.00  0.00    -0.274 OA
HETATM   12  C16 UNK     1      19.726 -10.601  38.116  1.00  0.00     0.003 A 
HETATM   13  C15 UNK     1      19.695  -9.919  39.335  1.00  0.00     0.001 A 
HETATM   14  C9  UNK     1      20.118  -6.422  35.692  1.00  0.00     0.304 A 
HETATM   15  O5  UNK     1      20.217  -5.830  34.622  1.00  0.00    -0.259 OA
ENDBRANCH   3   5
BRANCH   2  16
HETATM   16  C3  UNK     1      18.743  -2.234  36.538  1.00  0.00     0.068 A 
HETATM   17  C10 UNK     1      18.026  -1.648  37.568  1.00  0.00     0.035 A 
HETATM   18  C14 UNK     1      17.750  -0.280  37.515  1.00  0.00     0.039 A 
HETATM   19  C13 UNK     1      18.194   0.479  36.433  1.00  0.00     0.070 A 
HETATM   20  C12 UNK     1      18.913  -0.128  35.404  1.00  0.00     0.075 A 
HETATM   21  C7  UNK     1      19.190  -1.494  35.457  1.00  0.00     0.097 A 
BRANCH  19  22
HETATM   22  O3  UNK     1      17.926   1.813  36.383  1.00  0.00    -0.356 OA
HETATM   23  C18 UNK     1      18.393   2.526  35.239  1.00  0.00     0.210 C 
ENDBRANCH  19  22
BRANCH  21  24
HETATM   24  O2  UNK     1      19.896  -2.068  34.441  1.00  0.00    -0.354 OA
HETATM   25  C17 UNK     1      19.532  -1.701  33.113  1.00  0.00     0.210 C 
ENDBRANCH  21  24
ENDBRANCH   2  16
TORSDOF 4
ENDMDL
MODEL 6
REMARK VINA RESULT:      -8.4      7.164     10.209
REMARK  4 active torsions:
REMARK  status: ('A' for Active; 'I' for Inactive)
REMARK    1  A    between atoms: C7_13  and  O2_2 
REMARK    2  A    between atoms: C13_19  and  O3_3 
REMARK    3  A    between atoms: C3_9  and  N1_6 
REMARK       I    between atoms: C6_12  and  N1_6 
REMARK    4  A    between atoms: C2_8  and  C6_12 
ROOT
HETATM    1  O4  UNK     1      19.734   5.046  31.037  1.00  0.00    -0.267 OA
HETATM    2  N1  UNK     1      18.168   3.417  31.698  1.00  0.00    -0.320 N 
HETATM    3  C6  UNK     1      18.733   4.684  31.652  1.00  0.00     0.262 C 
HETATM    4  H2  UNK     1      17.322   3.283  32.246  1.00  0.00     0.169 HD
ENDROOT
BRANCH   3   5
HETATM    5  C2  UNK     1      17.984   5.654  32.461  1.00  0.00     0.108 A 
HETATM    6  C5  UNK     1      16.796   6.035  31.977  1.00  0.00     0.037 A 
HETATM    7  C1  UNK     1      15.981   6.994  32.706  1.00  0.00    -0.001 A 
HETATM    8  C4  UNK     1      16.457   7.505  33.909  1.00  0.00     0.089 A 
HETATM    9  C8  UNK     1      14.735   7.420  32.239  1.00  0.00     0.014 A 
HETATM   10  C11 UNK     1      15.726   8.426  34.656  1.00  0.00     0.038 A 
HETATM   11  O1  UNK     1      17.708   7.099  34.413  1.00  0.00    -0.274 OA
HETATM   12  C16 UNK     1      14.485   8.845  34.183  1.00  0.00     0.003 A 
HETATM   13  C15 UNK     1      13.990   8.344  32.977  1.00  0.00     0.001 A 
HETATM   14  C9  UNK     1      18.511   6.183  33.738  1.00  0.00     0.304 A 
HETATM   15  O5  UNK     1      19.599   5.837  34.184  1.00  0.00    -0.259 OA
ENDBRANCH   3   5
BRANCH   2  16
HETATM   16  C3  UNK     1      18.620   2.244  31.044  1.00  0.00     0.068 A 
HETATM   17  C10 UNK     1      18.712   2.251  29.662  1.00  0.00     0.035 A 
HETATM   18  C14 UNK     1      19.154   1.104  29.002  1.00  0.00     0.039 A 
HETATM   19  C13 UNK     1      19.495  -0.034  29.734  1.00  0.00     0.070 A 
HETATM   20  C12 UNK     1      19.395  -0.024  31.124  1.00  0.00     0.075 A 
HETATM   21  C7  UNK     1      18.954   1.124  31.785  1.00  0.00     0.097 A 
BRANCH  19  22
HETATM   22  O3  UNK     1      19.928  -1.152  29.090  1.00  0.00    -0.356 OA
HETATM   23  C18 UNK     1      20.447  -2.207  29.898  1.00  0.00     0.210 C 
ENDBRANCH  19  22
BRANCH  21  24
HETATM   24  O2  UNK     1      18.865   1.114  33.145  1.00  0.00    -0.354 OA
HETATM   25  C17 UNK     1      18.321  -0.058  33.748  1.00  0.00     0.210 C 
ENDBRANCH  21  24
ENDBRANCH   2  16
TORSDOF 4
ENDMDL
MODEL 7
REMARK VINA RESULT:      -8.4      1.306      2.265
REMARK  4 active torsions:
REMARK  status: ('A' for Active; 'I' for Inactive)
REMARK    1  A    between atoms: C7_13  and  O2_2 
REMARK    2  A    between atoms: C13_19  and  O3_3 
REMARK    3  A    between atoms: C3_9  and  N1_6 
REMARK       I    between atoms: C6_12  and  N1_6 
REMARK    4  A    between atoms: C2_8  and  C6_12 
ROOT
HETATM    1  O4  UNK     1      20.155  -4.857  35.211  1.00  0.00    -0.267 OA
HETATM    2  N1  UNK     1      19.663  -4.781  37.512  1.00  0.00    -0.320 N 
HETATM    3  C6  UNK     1      19.838  -4.260  36.238  1.00  0.00     0.262 C 
HETATM    4  H2  UNK     1      19.381  -4.151  38.259  1.00  0.00     0.169 HD
ENDROOT
BRANCH   3   5
HETATM    5  C2  UNK     1      19.594  -2.813  36.193  1.00  0.00     0.108 A 
HETATM    6  C5  UNK     1      18.431  -2.393  36.704  1.00  0.00     0.037 A 
HETATM    7  C1  UNK     1      18.098  -0.977  36.704  1.00  0.00    -0.001 A 
HETATM    8  C4  UNK     1      19.007  -0.072  36.165  1.00  0.00     0.089 A 
HETATM    9  C8  UNK     1      16.897  -0.494  37.228  1.00  0.00     0.014 A 
HETATM   10  C11 UNK     1      18.749   1.297  36.134  1.00  0.00     0.038 A 
HETATM   11  O1  UNK     1      20.230  -0.521  35.628  1.00  0.00    -0.274 OA
HETATM   12  C16 UNK     1      17.549   1.770  36.658  1.00  0.00     0.003 A 
HETATM   13  C15 UNK     1      16.624   0.876  37.204  1.00  0.00     0.001 A 
HETATM   14  C9  UNK     1      20.576  -1.869  35.614  1.00  0.00     0.304 A 
HETATM   15  O5  UNK     1      21.642  -2.250  35.144  1.00  0.00    -0.259 OA
ENDBRANCH   3   5
BRANCH   2  16
HETATM   16  C3  UNK     1      19.811  -6.129  37.923  1.00  0.00     0.068 A 
HETATM   17  C10 UNK     1      18.741  -6.992  37.762  1.00  0.00     0.035 A 
HETATM   18  C14 UNK     1      18.871  -8.323  38.163  1.00  0.00     0.039 A 
HETATM   19  C13 UNK     1      20.069  -8.769  38.721  1.00  0.00     0.070 A 
HETATM   20  C12 UNK     1      21.137  -7.885  38.877  1.00  0.00     0.075 A 
HETATM   21  C7  UNK     1      21.007  -6.555  38.475  1.00  0.00     0.097 A 
BRANCH  19  22
HETATM   22  O3  UNK     1      20.197 -10.067  39.110  1.00  0.00    -0.356 OA
HETATM   23  C18 UNK     1      19.643 -11.060  38.249  1.00  0.00     0.210 C 
ENDBRANCH  19  22
BRANCH  21  24
HETATM   24  O2  UNK     1      22.063  -5.708  38.635  1.00  0.00    -0.354 OA
HETATM   25  C17 UNK     1      23.271  -6.269  39.143  1.00  0.00     0.210 C 
ENDBRANCH  21  24
ENDBRANCH   2  16
TORSDOF 4
ENDMDL
MODEL 8
REMARK VINA RESULT:      -8.3     19.666     21.414
REMARK  4 active torsions:
REMARK  status: ('A' for Active; 'I' for Inactive)
REMARK    1  A    between atoms: C7_13  and  O2_2 
REMARK    2  A    between atoms: C13_19  and  O3_3 
REMARK    3  A    between atoms: C3_9  and  N1_6 
REMARK       I    between atoms: C6_12  and  N1_6 
REMARK    4  A    between atoms: C2_8  and  C6_12 
ROOT
HETATM    1  O4  UNK     1      20.390  -3.383  15.894  1.00  0.00    -0.267 OA
HETATM    2  N1  UNK     1      18.079  -3.301  15.451  1.00  0.00    -0.320 N 
HETATM    3  C6  UNK     1      19.316  -2.790  15.818  1.00  0.00     0.262 C 
HETATM    4  H2  UNK     1      17.282  -2.669  15.421  1.00  0.00     0.169 HD
ENDROOT
BRANCH   3   5
HETATM    5  C2  UNK     1      19.251  -1.358  16.137  1.00  0.00     0.108 A 
HETATM    6  C5  UNK     1      19.118  -1.046  17.432  1.00  0.00     0.037 A 
HETATM    7  C1  UNK     1      19.044   0.346  17.846  1.00  0.00    -0.001 A 
HETATM    8  C4  UNK     1      19.112   1.342  16.877  1.00  0.00     0.089 A 
HETATM    9  C8  UNK     1      18.906   0.718  19.186  1.00  0.00     0.014 A 
HETATM   10  C11 UNK     1      19.047   2.694  17.208  1.00  0.00     0.038 A 
HETATM   11  O1  UNK     1      19.253   1.007  15.517  1.00  0.00    -0.274 OA
HETATM   12  C16 UNK     1      18.909   3.056  18.545  1.00  0.00     0.003 A 
HETATM   13  C15 UNK     1      18.838   2.070  19.533  1.00  0.00     0.001 A 
HETATM   14  C9  UNK     1      19.326  -0.316  15.089  1.00  0.00     0.304 A 
HETATM   15  O5  UNK     1      19.447  -0.598  13.902  1.00  0.00    -0.259 OA
ENDBRANCH   3   5
BRANCH   2  16
HETATM   16  C3  UNK     1      17.770  -4.632  15.079  1.00  0.00     0.068 A 
HETATM   17  C10 UNK     1      17.188  -5.465  16.020  1.00  0.00     0.035 A 
HETATM   18  C14 UNK     1      16.878  -6.780  15.670  1.00  0.00     0.039 A 
HETATM   19  C13 UNK     1      17.157  -7.242  14.383  1.00  0.00     0.070 A 
HETATM   20  C12 UNK     1      17.744  -6.391  13.448  1.00  0.00     0.075 A 
HETATM   21  C7  UNK     1      18.052  -5.076  13.798  1.00  0.00     0.097 A 
BRANCH  19  22
HETATM   22  O3  UNK     1      16.853  -8.524  14.041  1.00  0.00    -0.356 OA
HETATM   23  C18 UNK     1      16.542  -8.775  12.672  1.00  0.00     0.210 C 
ENDBRANCH  19  22
BRANCH  21  24
HETATM   24  O2  UNK     1      18.625  -4.259  12.869  1.00  0.00    -0.354 OA
HETATM   25  C17 UNK     1      19.985  -4.520  12.529  1.00  0.00     0.210 C 
ENDBRANCH  21  24
ENDBRANCH   2  16
TORSDOF 4
ENDMDL
MODEL 9
REMARK VINA RESULT:      -8.2      1.747      8.054
REMARK  4 active torsions:
REMARK  status: ('A' for Active; 'I' for Inactive)
REMARK    1  A    between atoms: C7_13  and  O2_2 
REMARK    2  A    between atoms: C13_19  and  O3_3 
REMARK    3  A    between atoms: C3_9  and  N1_6 
REMARK       I    between atoms: C6_12  and  N1_6 
REMARK    4  A    between atoms: C2_8  and  C6_12 
ROOT
HETATM    1  O4  UNK     1      20.920  -4.130  38.016  1.00  0.00    -0.267 OA
HETATM    2  N1  UNK     1      19.097  -3.967  36.534  1.00  0.00    -0.320 N 
HETATM    3  C6  UNK     1      20.068  -4.623  37.279  1.00  0.00     0.262 C 
HETATM    4  H2  UNK     1      18.451  -4.526  35.982  1.00  0.00     0.169 HD
ENDROOT
BRANCH   3   5
HETATM    5  C2  UNK     1      20.003  -6.080  37.114  1.00  0.00     0.108 A 
HETATM    6  C5  UNK     1      21.172  -6.709  36.944  1.00  0.00     0.037 A 
HETATM    7  C1  UNK     1      21.210  -8.153  36.772  1.00  0.00    -0.001 A 
HETATM    8  C4  UNK     1      20.014  -8.864  36.786  1.00  0.00     0.089 A 
HETATM    9  C8  UNK     1      22.406  -8.851  36.592  1.00  0.00     0.014 A 
HETATM   10  C11 UNK     1      19.981 -10.248  36.627  1.00  0.00     0.038 A 
HETATM   11  O1  UNK     1      18.787  -8.196  36.966  1.00  0.00    -0.274 OA
HETATM   12  C16 UNK     1      21.178 -10.935  36.447  1.00  0.00     0.003 A 
HETATM   13  C15 UNK     1      22.389 -10.239  36.430  1.00  0.00     0.001 A 
HETATM   14  C9  UNK     1      18.719  -6.816  37.134  1.00  0.00     0.304 A 
HETATM   15  O5  UNK     1      17.646  -6.243  37.288  1.00  0.00    -0.259 OA
ENDBRANCH   3   5
BRANCH   2  16
HETATM   16  C3  UNK     1      18.865  -2.573  36.452  1.00  0.00     0.068 A 
HETATM   17  C10 UNK     1      17.887  -2.015  37.259  1.00  0.00     0.035 A 
HETATM   18  C14 UNK     1      17.646  -0.642  37.189  1.00  0.00     0.039 A 
HETATM   19  C13 UNK     1      18.385   0.152  36.312  1.00  0.00     0.070 A 
HETATM   20  C12 UNK     1      19.365  -0.426  35.506  1.00  0.00     0.075 A 
HETATM   21  C7  UNK     1      19.608  -1.798  35.577  1.00  0.00     0.097 A 
BRANCH  19  22
HETATM   22  O3  UNK     1      18.151   1.491  36.245  1.00  0.00    -0.356 OA
HETATM   23  C18 UNK     1      18.363   2.126  34.986  1.00  0.00     0.210 C 
ENDBRANCH  19  22
BRANCH  21  24
HETATM   24  O2  UNK     1      20.571  -2.344  34.781  1.00  0.00    -0.354 OA
HETATM   25  C17 UNK     1      20.310  -2.375  33.380  1.00  0.00     0.210 C 
ENDBRANCH  21  24
ENDBRANCH   2  16
TORSDOF 4
ENDMDL
MODEL 10
REMARK VINA RESULT:      -8.2      6.262     12.297
REMARK  4 active torsions:
REMARK  status: ('A' for Active; 'I' for Inactive)
REMARK    1  A    between atoms: C7_13  and  O2_2 
REMARK    2  A    between atoms: C13_19  and  O3_3 
REMARK    3  A    between atoms: C3_9  and  N1_6 
REMARK       I    between atoms: C6_12  and  N1_6 
REMARK    4  A    between atoms: C2_8  and  C6_12 
ROOT
HETATM    1  O4  UNK     1      18.835   4.717  32.153  1.00  0.00    -0.267 OA
HETATM    2  N1  UNK     1      18.102   5.500  34.249  1.00  0.00    -0.320 N 
HETATM    3  C6  UNK     1      18.431   4.541  33.301  1.00  0.00     0.262 C 
HETATM    4  H2  UNK     1      17.796   5.188  35.167  1.00  0.00     0.169 HD
ENDROOT
BRANCH   3   5
HETATM    5  C2  UNK     1      18.250   3.175  33.808  1.00  0.00     0.108 A 
HETATM    6  C5  UNK     1      18.181   3.043  35.138  1.00  0.00     0.037 A 
HETATM    7  C1  UNK     1      18.004   1.729  35.736  1.00  0.00    -0.001 A 
HETATM    8  C4  UNK     1      17.908   0.618  34.904  1.00  0.00     0.089 A 
HETATM    9  C8  UNK     1      17.926   1.544  37.119  1.00  0.00     0.014 A 
HETATM   10  C11 UNK     1      17.738  -0.667  35.413  1.00  0.00     0.038 A 
HETATM   11  O1  UNK     1      17.981   0.765  33.505  1.00  0.00    -0.274 OA
HETATM   12  C16 UNK     1      17.662  -0.843  36.792  1.00  0.00     0.003 A 
HETATM   13  C15 UNK     1      17.756   0.260  37.644  1.00  0.00     0.001 A 
HETATM   14  C9  UNK     1      18.151   2.009  32.904  1.00  0.00     0.304 A 
HETATM   15  O5  UNK     1      18.214   2.126  31.685  1.00  0.00    -0.259 OA
ENDBRANCH   3   5
BRANCH   2  16
HETATM   16  C3  UNK     1      18.156   6.909  34.109  1.00  0.00     0.068 A 
HETATM   17  C10 UNK     1      19.351   7.556  34.376  1.00  0.00     0.035 A 
HETATM   18  C14 UNK     1      19.420   8.943  34.244  1.00  0.00     0.039 A 
HETATM   19  C13 UNK     1      18.292   9.663  33.848  1.00  0.00     0.070 A 
HETATM   20  C12 UNK     1      17.097   8.996  33.584  1.00  0.00     0.075 A 
HETATM   21  C7  UNK     1      17.028   7.608  33.714  1.00  0.00     0.097 A 
BRANCH  19  22
HETATM   22  O3  UNK     1      18.360  11.016  33.717  1.00  0.00    -0.356 OA
HETATM   23  C18 UNK     1      17.248  11.772  34.194  1.00  0.00     0.210 C 
ENDBRANCH  19  22
BRANCH  21  24
HETATM   24  O2  UNK     1      15.850   6.974  33.451  1.00  0.00    -0.354 OA
HETATM   25  C17 UNK     1      15.357   7.057  32.115  1.00  0.00     0.210 C 
ENDBRANCH  21  24
ENDBRANCH   2  16
TORSDOF 4
ENDMDL
