MODEL 1
REMARK VINA RESULT:      -7.2      0.000      0.000
REMARK  3 active torsions:
REMARK  status: ('A' for Active; 'I' for Inactive)
REMARK    1  A    between atoms: C6_9  and  O2_2 
REMARK    2  A    between atoms: C3_6  and  C8_11 
REMARK    3  A    between atoms: C13_16  and  C8_11 
ROOT
HETATM    1  O1  UNK     1      17.077   9.033  34.647  1.00  0.00    -0.274 OA
HETATM    2  O3  UNK     1      15.343  10.197  35.577  1.00  0.00    -0.260 OA
HETATM    3  C1  UNK     1      16.615   7.408  32.882  1.00  0.00     0.005 A 
HETATM    4  C2  UNK     1      17.518   8.071  33.716  1.00  0.00     0.099 A 
HETATM    5  C3  UNK     1      18.507   6.205  31.932  1.00  0.00    -0.020 A 
HETATM    6  C4  UNK     1      18.890   7.822  33.677  1.00  0.00     0.007 A 
HETATM    7  C5  UNK     1      17.133   6.466  31.983  1.00  0.00     0.025 A 
HETATM    8  C6  UNK     1      19.384   6.882  32.778  1.00  0.00     0.081 A 
HETATM    9  C7  UNK     1      15.187   7.733  32.991  1.00  0.00    -0.043 A 
HETATM   10  C9  UNK     1      19.822   8.552  34.588  1.00  0.00     0.054 C 
HETATM   11  C10 UNK     1      14.797   8.653  33.885  1.00  0.00     0.090 A 
HETATM   12  C11 UNK     1      14.191   7.039  32.108  1.00  0.00     0.049 C 
HETATM   13  C12 UNK     1      15.736   9.360  34.772  1.00  0.00     0.288 A 
ENDROOT
BRANCH   5  14
HETATM   14  C8  UNK     1      19.018   5.191  30.962  1.00  0.00     0.067 C 
BRANCH  14  15
HETATM   15  C13 UNK     1      18.447   3.817  31.193  1.00  0.00    -0.032 C 
HETATM   16  C14 UNK     1      18.613   2.784  30.358  1.00  0.00     0.007 C 
ENDBRANCH  14  15
ENDBRANCH   5  14
BRANCH   8  17
HETATM   17  O2  UNK     1      20.722   6.624  32.722  1.00  0.00    -0.359 OA
HETATM   18  H12 UNK     1      21.073   6.793  31.835  1.00  0.00     0.217 HD
ENDBRANCH   8  17
TORSDOF 3
ENDMDL
MODEL 2
REMARK VINA RESULT:      -7.1      4.338      8.191
REMARK  3 active torsions:
REMARK  status: ('A' for Active; 'I' for Inactive)
REMARK    1  A    between atoms: C6_9  and  O2_2 
REMARK    2  A    between atoms: C3_6  and  C8_11 
REMARK    3  A    between atoms: C13_16  and  C8_11 
ROOT
HETATM    1  O1  UNK     1      19.353  -0.677  33.062  1.00  0.00    -0.274 OA
HETATM    2  O3  UNK     1      20.181  -2.785  33.371  1.00  0.00    -0.260 OA
HETATM    3  C1  UNK     1      19.569   0.384  30.873  1.00  0.00     0.005 A 
HETATM    4  C2  UNK     1      19.139   0.417  32.201  1.00  0.00     0.099 A 
HETATM    5  C3  UNK     1      18.662   2.628  30.611  1.00  0.00    -0.020 A 
HETATM    6  C4  UNK     1      18.483   1.522  32.745  1.00  0.00     0.007 A 
HETATM    7  C5  UNK     1      19.319   1.513  30.081  1.00  0.00     0.025 A 
HETATM    8  C6  UNK     1      18.245   2.634  31.941  1.00  0.00     0.081 A 
HETATM    9  C7  UNK     1      20.252  -0.821  30.384  1.00  0.00    -0.043 A 
HETATM   10  C9  UNK     1      18.041   1.519  34.171  1.00  0.00     0.054 C 
HETATM   11  C10 UNK     1      20.440  -1.847  31.227  1.00  0.00     0.090 A 
HETATM   12  C11 UNK     1      20.725  -0.889  28.962  1.00  0.00     0.049 C 
HETATM   13  C12 UNK     1      19.993  -1.827  32.630  1.00  0.00     0.288 A 
ENDROOT
BRANCH   5  14
HETATM   14  C8  UNK     1      18.417   3.812  29.733  1.00  0.00     0.067 C 
BRANCH  14  15
HETATM   15  C13 UNK     1      19.371   4.946  29.997  1.00  0.00    -0.032 C 
HETATM   16  C14 UNK     1      18.997   6.164  30.406  1.00  0.00     0.007 C 
ENDBRANCH  14  15
ENDBRANCH   5  14
BRANCH   8  17
HETATM   17  O2  UNK     1      17.604   3.724  32.452  1.00  0.00    -0.359 OA
HETATM   18  H12 UNK     1      17.438   4.385  31.764  1.00  0.00     0.217 HD
ENDBRANCH   8  17
TORSDOF 3
ENDMDL
MODEL 3
REMARK VINA RESULT:      -7.1      2.944      5.248
REMARK  3 active torsions:
REMARK  status: ('A' for Active; 'I' for Inactive)
REMARK    1  A    between atoms: C6_9  and  O2_2 
REMARK    2  A    between atoms: C3_6  and  C8_11 
REMARK    3  A    between atoms: C13_16  and  C8_11 
ROOT
HETATM    1  O1  UNK     1      17.967   4.212  33.532  1.00  0.00    -0.274 OA
HETATM    2  O3  UNK     1      17.692   6.320  34.375  1.00  0.00    -0.260 OA
HETATM    3  C1  UNK     1      18.610   3.935  31.192  1.00  0.00     0.005 A 
HETATM    4  C2  UNK     1      18.285   3.388  32.435  1.00  0.00     0.099 A 
HETATM    5  C3  UNK     1      18.889   1.665  30.360  1.00  0.00    -0.020 A 
HETATM    6  C4  UNK     1      18.256   2.011  32.658  1.00  0.00     0.007 A 
HETATM    7  C5  UNK     1      18.914   3.048  30.151  1.00  0.00     0.025 A 
HETATM    8  C6  UNK     1      18.560   1.146  31.611  1.00  0.00     0.081 A 
HETATM    9  C7  UNK     1      18.616   5.397  31.047  1.00  0.00    -0.043 A 
HETATM   10  C9  UNK     1      17.901   1.465  34.003  1.00  0.00     0.054 C 
HETATM   11  C10 UNK     1      18.310   6.156  32.109  1.00  0.00     0.090 A 
HETATM   12  C11 UNK     1      18.962   6.017  29.725  1.00  0.00     0.049 C 
HETATM   13  C12 UNK     1      17.965   5.594  33.426  1.00  0.00     0.288 A 
ENDROOT
BRANCH   5  14
HETATM   14  C8  UNK     1      19.217   0.753  29.222  1.00  0.00     0.067 C 
BRANCH  14  15
HETATM   15  C13 UNK     1      20.502  -0.005  29.428  1.00  0.00    -0.032 C 
HETATM   16  C14 UNK     1      20.612  -1.335  29.338  1.00  0.00     0.007 C 
ENDBRANCH  14  15
ENDBRANCH   5  14
BRANCH   8  17
HETATM   17  O2  UNK     1      18.539  -0.203  31.807  1.00  0.00    -0.359 OA
HETATM   18  H12 UNK     1      19.437  -0.557  31.889  1.00  0.00     0.217 HD
ENDBRANCH   8  17
TORSDOF 3
ENDMDL
MODEL 4
REMARK VINA RESULT:      -6.9     13.162     15.551
REMARK  3 active torsions:
REMARK  status: ('A' for Active; 'I' for Inactive)
REMARK    1  A    between atoms: C6_9  and  O2_2 
REMARK    2  A    between atoms: C3_6  and  C8_11 
REMARK    3  A    between atoms: C13_16  and  C8_11 
ROOT
HETATM    1  O1  UNK     1      21.438  -4.830  37.559  1.00  0.00    -0.274 OA
HETATM    2  O3  UNK     1      21.002  -2.942  36.346  1.00  0.00    -0.260 OA
HETATM    3  C1  UNK     1      19.734  -6.573  37.713  1.00  0.00     0.005 A 
HETATM    4  C2  UNK     1      21.002  -6.084  38.031  1.00  0.00     0.099 A 
HETATM    5  C3  UNK     1      20.264  -8.559  39.017  1.00  0.00    -0.020 A 
HETATM    6  C4  UNK     1      21.900  -6.800  38.824  1.00  0.00     0.007 A 
HETATM    7  C5  UNK     1      19.376  -7.829  38.221  1.00  0.00     0.025 A 
HETATM    8  C6  UNK     1      21.524  -8.045  39.320  1.00  0.00     0.081 A 
HETATM    9  C7  UNK     1      18.854  -5.752  36.871  1.00  0.00    -0.043 A 
HETATM   10  C9  UNK     1      23.248  -6.240  39.143  1.00  0.00     0.054 C 
HETATM   11  C10 UNK     1      19.296  -4.563  36.436  1.00  0.00     0.090 A 
HETATM   12  C11 UNK     1      17.484  -6.249  36.510  1.00  0.00     0.049 C 
HETATM   13  C12 UNK     1      20.631  -4.034  36.763  1.00  0.00     0.288 A 
ENDROOT
BRANCH   5  14
HETATM   14  C8  UNK     1      19.842  -9.893  39.541  1.00  0.00     0.067 C 
BRANCH  14  15
HETATM   15  C13 UNK     1      19.524 -10.879  38.449  1.00  0.00    -0.032 C 
HETATM   16  C14 UNK     1      20.302 -11.095  37.382  1.00  0.00     0.007 C 
ENDBRANCH  14  15
ENDBRANCH   5  14
BRANCH   8  17
HETATM   17  O2  UNK     1      22.386  -8.763  40.096  1.00  0.00    -0.359 OA
HETATM   18  H12 UNK     1      22.592  -8.290  40.916  1.00  0.00     0.217 HD
ENDBRANCH   8  17
TORSDOF 3
ENDMDL
MODEL 5
REMARK VINA RESULT:      -6.9      3.654      6.786
REMARK  3 active torsions:
REMARK  status: ('A' for Active; 'I' for Inactive)
REMARK    1  A    between atoms: C6_9  and  O2_2 
REMARK    2  A    between atoms: C3_6  and  C8_11 
REMARK    3  A    between atoms: C13_16  and  C8_11 
ROOT
HETATM    1  O1  UNK     1      18.632   0.586  31.792  1.00  0.00    -0.274 OA
HETATM    2  O3  UNK     1      18.641  -1.549  32.609  1.00  0.00    -0.260 OA
HETATM    3  C1  UNK     1      18.327   2.455  33.335  1.00  0.00     0.005 A 
HETATM    4  C2  UNK     1      18.526   1.969  32.042  1.00  0.00     0.099 A 
HETATM    5  C3  UNK     1      18.332   4.703  32.401  1.00  0.00    -0.020 A 
HETATM    6  C4  UNK     1      18.627   2.814  30.936  1.00  0.00     0.007 A 
HETATM    7  C5  UNK     1      18.231   3.844  33.500  1.00  0.00     0.025 A 
HETATM    8  C6  UNK     1      18.529   4.190  31.120  1.00  0.00     0.081 A 
HETATM    9  C7  UNK     1      18.231   1.494  34.442  1.00  0.00    -0.043 A 
HETATM   10  C9  UNK     1      18.838   2.253  29.567  1.00  0.00     0.054 C 
HETATM   11  C10 UNK     1      18.338   0.184  34.174  1.00  0.00     0.090 A 
HETATM   12  C11 UNK     1      18.019   1.984  35.844  1.00  0.00     0.049 C 
HETATM   13  C12 UNK     1      18.546  -0.344  32.815  1.00  0.00     0.288 A 
ENDROOT
BRANCH   5  14
HETATM   14  C8  UNK     1      18.221   6.177  32.619  1.00  0.00     0.067 C 
BRANCH  14  15
HETATM   15  C13 UNK     1      19.421   6.758  33.320  1.00  0.00    -0.032 C 
HETATM   16  C14 UNK     1      20.684   6.586  32.915  1.00  0.00     0.007 C 
ENDBRANCH  14  15
ENDBRANCH   5  14
BRANCH   8  17
HETATM   17  O2  UNK     1      18.627   5.033  30.053  1.00  0.00    -0.359 OA
HETATM   18  H12 UNK     1      19.444   5.553  30.094  1.00  0.00     0.217 HD
ENDBRANCH   8  17
TORSDOF 3
ENDMDL
MODEL 6
REMARK VINA RESULT:      -6.9      4.839      7.484
REMARK  3 active torsions:
REMARK  status: ('A' for Active; 'I' for Inactive)
REMARK    1  A    between atoms: C6_9  and  O2_2 
REMARK    2  A    between atoms: C3_6  and  C8_11 
REMARK    3  A    between atoms: C13_16  and  C8_11 
ROOT
HETATM    1  O1  UNK     1      18.675   1.027  31.118  1.00  0.00    -0.274 OA
HETATM    2  O3  UNK     1      18.722   2.073  29.085  1.00  0.00    -0.260 OA
HETATM    3  C1  UNK     1      18.307   2.353  33.136  1.00  0.00     0.005 A 
HETATM    4  C2  UNK     1      18.530   1.123  32.517  1.00  0.00     0.099 A 
HETATM    5  C3  UNK     1      18.265   1.178  35.267  1.00  0.00    -0.020 A 
HETATM    6  C4  UNK     1      18.623  -0.069  33.237  1.00  0.00     0.007 A 
HETATM    7  C5  UNK     1      18.175   2.364  34.531  1.00  0.00     0.025 A 
HETATM    8  C6  UNK     1      18.490  -0.037  34.622  1.00  0.00     0.081 A 
HETATM    9  C7  UNK     1      18.224   3.558  32.300  1.00  0.00    -0.043 A 
HETATM   10  C9  UNK     1      18.865  -1.366  32.536  1.00  0.00     0.054 C 
HETATM   11  C10 UNK     1      18.364   3.436  30.972  1.00  0.00     0.090 A 
HETATM   12  C11 UNK     1      17.984   4.896  32.935  1.00  0.00     0.049 C 
HETATM   13  C12 UNK     1      18.600   2.146  30.303  1.00  0.00     0.288 A 
ENDROOT
BRANCH   5  14
HETATM   14  C8  UNK     1      18.121   1.233  36.754  1.00  0.00     0.067 C 
BRANCH  14  15
HETATM   15  C13 UNK     1      16.687   1.342  37.201  1.00  0.00    -0.032 C 
HETATM   16  C14 UNK     1      15.665   0.717  36.606  1.00  0.00     0.007 C 
ENDBRANCH  14  15
ENDBRANCH   5  14
BRANCH   8  17
HETATM   17  O2  UNK     1      18.575  -1.190  35.346  1.00  0.00    -0.359 OA
HETATM   18  H12 UNK     1      18.079  -1.906  34.921  1.00  0.00     0.217 HD
ENDBRANCH   8  17
TORSDOF 3
ENDMDL
MODEL 7
REMARK VINA RESULT:      -6.7      5.301      8.547
REMARK  3 active torsions:
REMARK  status: ('A' for Active; 'I' for Inactive)
REMARK    1  A    between atoms: C6_9  and  O2_2 
REMARK    2  A    between atoms: C3_6  and  C8_11 
REMARK    3  A    between atoms: C13_16  and  C8_11 
ROOT
HETATM    1  O1  UNK     1      19.719   0.748  29.560  1.00  0.00    -0.274 OA
HETATM    2  O3  UNK     1      20.711  -0.675  28.070  1.00  0.00    -0.260 OA
HETATM    3  C1  UNK     1      19.336   0.001  31.854  1.00  0.00     0.005 A 
HETATM    4  C2  UNK     1      19.246   0.983  30.866  1.00  0.00     0.099 A 
HETATM    5  C3  UNK     1      18.279   1.566  33.389  1.00  0.00    -0.020 A 
HETATM    6  C4  UNK     1      18.687   2.238  31.112  1.00  0.00     0.007 A 
HETATM    7  C5  UNK     1      18.842   0.313  33.127  1.00  0.00     0.025 A 
HETATM    8  C6  UNK     1      18.201   2.528  32.384  1.00  0.00     0.081 A 
HETATM    9  C7  UNK     1      19.939  -1.293  31.507  1.00  0.00    -0.043 A 
HETATM   10  C9  UNK     1      18.607   3.261  30.027  1.00  0.00     0.054 C 
HETATM   11  C10 UNK     1      20.382  -1.488  30.256  1.00  0.00     0.090 A 
HETATM   12  C11 UNK     1      20.052  -2.370  32.546  1.00  0.00     0.049 C 
HETATM   13  C12 UNK     1      20.293  -0.462  29.203  1.00  0.00     0.288 A 
ENDROOT
BRANCH   5  14
HETATM   14  C8  UNK     1      17.762   1.858  34.760  1.00  0.00     0.067 C 
BRANCH  14  15
HETATM   15  C13 UNK     1      17.180   0.646  35.439  1.00  0.00    -0.032 C 
HETATM   16  C14 UNK     1      15.894   0.286  35.361  1.00  0.00     0.007 C 
ENDBRANCH  14  15
ENDBRANCH   5  14
BRANCH   8  17
HETATM   17  O2  UNK     1      17.653   3.749  32.646  1.00  0.00    -0.359 OA
HETATM   18  H12 UNK     1      18.293   4.333  33.080  1.00  0.00     0.217 HD
ENDBRANCH   8  17
TORSDOF 3
ENDMDL
MODEL 8
REMARK VINA RESULT:      -6.6     22.941     24.706
REMARK  3 active torsions:
REMARK  status: ('A' for Active; 'I' for Inactive)
REMARK    1  A    between atoms: C6_9  and  O2_2 
REMARK    2  A    between atoms: C3_6  and  C8_11 
REMARK    3  A    between atoms: C13_16  and  C8_11 
ROOT
HETATM    1  O1  UNK     1      16.308   6.622  10.058  1.00  0.00    -0.274 OA
HETATM    2  O3  UNK     1      18.261   7.659  10.637  1.00  0.00    -0.260 OA
HETATM    3  C1  UNK     1      14.498   7.941   9.082  1.00  0.00     0.005 A 
HETATM    4  C2  UNK     1      15.009   6.717   9.520  1.00  0.00     0.099 A 
HETATM    5  C3  UNK     1      12.446   6.774   8.486  1.00  0.00    -0.020 A 
HETATM    6  C4  UNK     1      14.272   5.535   9.453  1.00  0.00     0.007 A 
HETATM    7  C5  UNK     1      13.198   7.952   8.560  1.00  0.00     0.025 A 
HETATM    8  C6  UNK     1      12.982   5.567   8.931  1.00  0.00     0.081 A 
HETATM    9  C7  UNK     1      15.344   9.137   9.191  1.00  0.00    -0.043 A 
HETATM   10  C9  UNK     1      14.855   4.246   9.934  1.00  0.00     0.054 C 
HETATM   11  C10 UNK     1      16.576   9.015   9.706  1.00  0.00     0.090 A 
HETATM   12  C11 UNK     1      14.825  10.466   8.729  1.00  0.00     0.049 C 
HETATM   13  C12 UNK     1      17.129   7.732  10.173  1.00  0.00     0.288 A 
ENDROOT
BRANCH   5  14
HETATM   14  C8  UNK     1      11.063   6.830   7.924  1.00  0.00     0.067 C 
BRANCH  14  15
HETATM   15  C13 UNK     1      11.025   6.625   6.433  1.00  0.00    -0.032 C 
HETATM   16  C14 UNK     1       9.961   6.167   5.765  1.00  0.00     0.007 C 
ENDBRANCH  14  15
ENDBRANCH   5  14
BRANCH   8  17
HETATM   17  O2  UNK     1      12.244   4.422   8.854  1.00  0.00    -0.359 OA
HETATM   18  H12 UNK     1      11.306   4.601   9.015  1.00  0.00     0.217 HD
ENDBRANCH   8  17
TORSDOF 3
ENDMDL
MODEL 9
REMARK VINA RESULT:      -6.5      6.865      9.120
REMARK  3 active torsions:
REMARK  status: ('A' for Active; 'I' for Inactive)
REMARK    1  A    between atoms: C6_9  and  O2_2 
REMARK    2  A    between atoms: C3_6  and  C8_11 
REMARK    3  A    between atoms: C13_16  and  C8_11 
ROOT
HETATM    1  O1  UNK     1      20.412  -1.127  30.463  1.00  0.00    -0.274 OA
HETATM    2  O3  UNK     1      20.982  -0.639  28.304  1.00  0.00    -0.260 OA
HETATM    3  C1  UNK     1      19.022   0.443  31.717  1.00  0.00     0.005 A 
HETATM    4  C2  UNK     1      19.734  -0.756  31.642  1.00  0.00     0.099 A 
HETATM    5  C3  UNK     1      18.449  -0.140  34.010  1.00  0.00    -0.020 A 
HETATM    6  C4  UNK     1      19.817  -1.643  32.716  1.00  0.00     0.007 A 
HETATM    7  C5  UNK     1      18.376   0.739  32.925  1.00  0.00     0.025 A 
HETATM    8  C6  UNK     1      19.169  -1.329  33.907  1.00  0.00     0.081 A 
HETATM    9  C7  UNK     1      18.989   1.317  30.537  1.00  0.00    -0.043 A 
HETATM   10  C9  UNK     1      20.592  -2.914  32.595  1.00  0.00     0.054 C 
HETATM   11  C10 UNK     1      19.641   0.937  29.430  1.00  0.00     0.090 A 
HETATM   12  C11 UNK     1      18.231   2.612  30.585  1.00  0.00     0.049 C 
HETATM   13  C12 UNK     1      20.398  -0.323  29.335  1.00  0.00     0.288 A 
ENDROOT
BRANCH   5  14
HETATM   14  C8  UNK     1      17.748   0.216  35.281  1.00  0.00     0.067 C 
BRANCH  14  15
HETATM   15  C13 UNK     1      16.250   0.091  35.180  1.00  0.00    -0.032 C 
HETATM   16  C14 UNK     1      15.398   0.482  36.134  1.00  0.00     0.007 C 
ENDBRANCH  14  15
ENDBRANCH   5  14
BRANCH   8  17
HETATM   17  O2  UNK     1      19.235  -2.182  34.969  1.00  0.00    -0.359 OA
HETATM   18  H12 UNK     1      19.945  -2.831  34.851  1.00  0.00     0.217 HD
ENDBRANCH   8  17
TORSDOF 3
ENDMDL
MODEL 10
REMARK VINA RESULT:      -6.5     22.967     24.318
REMARK  3 active torsions:
REMARK  status: ('A' for Active; 'I' for Inactive)
REMARK    1  A    between atoms: C6_9  and  O2_2 
REMARK    2  A    between atoms: C3_6  and  C8_11 
REMARK    3  A    between atoms: C13_16  and  C8_11 
ROOT
HETATM    1  O1  UNK     1      13.983   8.452  11.346  1.00  0.00    -0.274 OA
HETATM    2  O3  UNK     1      13.771   9.907  13.096  1.00  0.00    -0.260 OA
HETATM    3  C1  UNK     1      12.278   8.428   9.597  1.00  0.00     0.005 A 
HETATM    4  C2  UNK     1      13.470   7.941  10.137  1.00  0.00     0.099 A 
HETATM    5  C3  UNK     1      12.567   6.857   7.760  1.00  0.00    -0.020 A 
HETATM    6  C4  UNK     1      14.211   6.933   9.519  1.00  0.00     0.007 A 
HETATM    7  C5  UNK     1      11.834   7.868   8.392  1.00  0.00     0.025 A 
HETATM    8  C6  UNK     1      13.753   6.390   8.323  1.00  0.00     0.081 A 
HETATM    9  C7  UNK     1      11.562   9.492  10.315  1.00  0.00    -0.043 A 
HETATM   10  C9  UNK     1      15.481   6.439  10.131  1.00  0.00     0.054 C 
HETATM   11  C10 UNK     1      12.076   9.958  11.462  1.00  0.00     0.090 A 
HETATM   12  C11 UNK     1      10.279  10.038   9.761  1.00  0.00     0.049 C 
HETATM   13  C12 UNK     1      13.331   9.455  12.045  1.00  0.00     0.288 A 
ENDROOT
BRANCH   5  14
HETATM   14  C8  UNK     1      12.057   6.285   6.477  1.00  0.00     0.067 C 
BRANCH  14  15
HETATM   15  C13 UNK     1      10.732   6.867   6.060  1.00  0.00    -0.032 C 
HETATM   16  C14 UNK     1       9.604   6.158   5.943  1.00  0.00     0.007 C 
ENDBRANCH  14  15
ENDBRANCH   5  14
BRANCH   8  17
HETATM   17  O2  UNK     1      14.462   5.405   7.701  1.00  0.00    -0.359 OA
HETATM   18  H12 UNK     1      14.655   5.641   6.781  1.00  0.00     0.217 HD
ENDBRANCH   8  17
TORSDOF 3
ENDMDL
