MODEL 1
REMARK VINA RESULT:      -9.7      0.000      0.000
REMARK  6 active torsions:
REMARK  status: ('A' for Active; 'I' for Inactive)
REMARK    1  A    between atoms: C5_11  and  N1_4 
REMARK    2  A    between atoms: C6_12  and  N2_5 
REMARK    3  A    between atoms: C18_24  and  N3_6 
REMARK       I    between atoms: C9_15  and  N3_6 
REMARK    4  A    between atoms: C5_11  and  C7_13 
REMARK    5  A    between atoms: C6_12  and  C9_15 
REMARK    6  A    between atoms: C13_19  and  C17_23 
ROOT
HETATM    1  N1  UNK     1      19.293  -3.640  36.455  1.00  0.00     0.096 N 
HETATM    2  N2  UNK     1      18.930  -0.876  35.691  1.00  0.00     0.100 N 
HETATM    3  C1  UNK     1      20.369  -2.881  35.805  1.00  0.00     0.303 C 
HETATM    4  C2  UNK     1      18.428  -2.743  37.230  1.00  0.00     0.303 C 
HETATM    5  C3  UNK     1      19.794  -1.775  34.915  1.00  0.00     0.303 C 
HETATM    6  C4  UNK     1      17.854  -1.635  36.340  1.00  0.00     0.303 C 
ENDROOT
BRANCH   1   7
HETATM    7  C5  UNK     1      19.843  -4.695  37.306  1.00  0.00     0.312 C 
BRANCH   7   8
HETATM    8  C7  UNK     1      19.311  -6.039  36.950  1.00  0.00    -0.011 A 
HETATM    9  C10 UNK     1      18.321  -6.177  36.056  1.00  0.00     0.092 A 
HETATM   10  C14 UNK     1      17.762  -7.484  35.672  1.00  0.00     0.288 A 
HETATM   11  O1  UNK     1      18.312  -8.601  36.283  1.00  0.00    -0.275 OA
HETATM   12  O3  UNK     1      16.858  -7.571  34.849  1.00  0.00    -0.260 OA
HETATM   13  C11 UNK     1      19.353  -8.487  37.225  1.00  0.00     0.090 A 
HETATM   14  C8  UNK     1      19.873  -7.241  37.580  1.00  0.00     0.007 A 
HETATM   15  C15 UNK     1      19.829  -9.677  37.777  1.00  0.00     0.039 A 
HETATM   16  C12 UNK     1      20.907  -7.213  38.526  1.00  0.00     0.022 A 
HETATM   17  C13 UNK     1      21.394  -8.398  39.087  1.00  0.00    -0.058 A 
HETATM   18  C16 UNK     1      20.856  -9.629  38.713  1.00  0.00     0.010 A 
BRANCH  17  19
HETATM   19  C17 UNK     1      22.497  -8.345  40.092  1.00  0.00     0.034 C 
HETATM   20  C19 UNK     1      23.844  -8.013  39.458  1.00  0.00     0.010 C 
ENDBRANCH  17  19
ENDBRANCH   7   8
ENDBRANCH   1   7
BRANCH   2  21
HETATM   21  C6  UNK     1      18.382   0.178  34.840  1.00  0.00     0.375 C 
BRANCH  21  22
HETATM   22  C9  UNK     1      18.243  -0.340  33.419  1.00  0.00     0.250 C 
HETATM   23  O2  UNK     1      17.330  -1.083  33.072  1.00  0.00    -0.271 OA
HETATM   24  N3  UNK     1      19.274   0.155  32.623  1.00  0.00    -0.326 N 
HETATM   25  H16 UNK     1      19.961   0.763  33.062  1.00  0.00     0.169 HD
BRANCH  24  26
HETATM   26  C18 UNK     1      19.497  -0.093  31.248  1.00  0.00     0.034 A 
HETATM   27  C20 UNK     1      20.121  -1.274  30.846  1.00  0.00     0.029 A 
HETATM   28  C22 UNK     1      20.341  -1.520  29.490  1.00  0.00     0.002 A 
HETATM   29  C24 UNK     1      19.938  -0.584  28.537  1.00  0.00     0.000 A 
HETATM   30  C23 UNK     1      19.314   0.597  28.939  1.00  0.00     0.002 A 
HETATM   31  C21 UNK     1      19.094   0.843  30.295  1.00  0.00     0.029 A 
ENDBRANCH  24  26
ENDBRANCH  21  22
ENDBRANCH   2  21
TORSDOF 6
ENDMDL
MODEL 2
REMARK VINA RESULT:      -9.5      2.213      2.773
REMARK  6 active torsions:
REMARK  status: ('A' for Active; 'I' for Inactive)
REMARK    1  A    between atoms: C5_11  and  N1_4 
REMARK    2  A    between atoms: C6_12  and  N2_5 
REMARK    3  A    between atoms: C18_24  and  N3_6 
REMARK       I    between atoms: C9_15  and  N3_6 
REMARK    4  A    between atoms: C5_11  and  C7_13 
REMARK    5  A    between atoms: C6_12  and  C9_15 
REMARK    6  A    between atoms: C13_19  and  C17_23 
ROOT
HETATM    1  N1  UNK     1      19.235  -3.108  36.132  1.00  0.00     0.096 N 
HETATM    2  N2  UNK     1      18.332  -0.479  35.337  1.00  0.00     0.100 N 
HETATM    3  C1  UNK     1      19.965  -2.322  35.129  1.00  0.00     0.303 C 
HETATM    4  C2  UNK     1      18.546  -2.221  37.076  1.00  0.00     0.303 C 
HETATM    5  C3  UNK     1      19.020  -1.368  34.392  1.00  0.00     0.303 C 
HETATM    6  C4  UNK     1      17.602  -1.265  36.339  1.00  0.00     0.303 C 
ENDROOT
BRANCH   1   7
HETATM    7  C5  UNK     1      20.138  -4.017  36.837  1.00  0.00     0.312 C 
BRANCH   7   8
HETATM    8  C7  UNK     1      19.710  -5.439  36.717  1.00  0.00    -0.011 A 
HETATM    9  C10 UNK     1      18.581  -5.770  36.074  1.00  0.00     0.092 A 
HETATM   10  C14 UNK     1      18.117  -7.160  35.930  1.00  0.00     0.288 A 
HETATM   11  O1  UNK     1      18.911  -8.144  36.499  1.00  0.00    -0.275 OA
HETATM   12  O3  UNK     1      17.079  -7.425  35.333  1.00  0.00    -0.260 OA
HETATM   13  C11 UNK     1      20.103  -7.826  37.181  1.00  0.00     0.090 A 
HETATM   14  C8  UNK     1      20.530  -6.504  37.310  1.00  0.00     0.007 A 
HETATM   15  C15 UNK     1      20.822  -8.897  37.714  1.00  0.00     0.039 A 
HETATM   16  C12 UNK     1      21.726  -6.271  38.003  1.00  0.00     0.022 A 
HETATM   17  C13 UNK     1      22.458  -7.335  38.542  1.00  0.00    -0.058 A 
HETATM   18  C16 UNK     1      22.007  -8.646  38.397  1.00  0.00     0.010 A 
BRANCH  17  19
HETATM   19  C17 UNK     1      23.729  -7.064  39.276  1.00  0.00     0.034 C 
HETATM   20  C19 UNK     1      24.874  -7.952  38.799  1.00  0.00     0.010 C 
ENDBRANCH  17  19
ENDBRANCH   7   8
ENDBRANCH   1   7
BRANCH   2  21
HETATM   21  C6  UNK     1      17.431   0.430  34.632  1.00  0.00     0.375 C 
BRANCH  21  22
HETATM   22  C9  UNK     1      18.182   1.697  34.258  1.00  0.00     0.250 C 
HETATM   23  O2  UNK     1      19.054   2.183  34.971  1.00  0.00    -0.271 OA
HETATM   24  N3  UNK     1      17.734   2.177  33.029  1.00  0.00    -0.326 N 
HETATM   25  H16 UNK     1      16.996   1.659  32.559  1.00  0.00     0.169 HD
BRANCH  24  26
HETATM   26  C18 UNK     1      18.180   3.329  32.339  1.00  0.00     0.034 A 
HETATM   27  C20 UNK     1      18.583   3.230  31.007  1.00  0.00     0.029 A 
HETATM   28  C22 UNK     1      19.022   4.365  30.325  1.00  0.00     0.002 A 
HETATM   29  C24 UNK     1      19.059   5.598  30.976  1.00  0.00     0.000 A 
HETATM   30  C23 UNK     1      18.656   5.698  32.307  1.00  0.00     0.002 A 
HETATM   31  C21 UNK     1      18.217   4.562  32.989  1.00  0.00     0.029 A 
ENDBRANCH  24  26
ENDBRANCH  21  22
ENDBRANCH   2  21
TORSDOF 6
ENDMDL
MODEL 3
REMARK VINA RESULT:      -9.3      6.159     10.115
REMARK  6 active torsions:
REMARK  status: ('A' for Active; 'I' for Inactive)
REMARK    1  A    between atoms: C5_11  and  N1_4 
REMARK    2  A    between atoms: C6_12  and  N2_5 
REMARK    3  A    between atoms: C18_24  and  N3_6 
REMARK       I    between atoms: C9_15  and  N3_6 
REMARK    4  A    between atoms: C5_11  and  C7_13 
REMARK    5  A    between atoms: C6_12  and  C9_15 
REMARK    6  A    between atoms: C13_19  and  C17_23 
ROOT
HETATM    1  N1  UNK     1      18.873   3.601  31.352  1.00  0.00     0.096 N 
HETATM    2  N2  UNK     1      19.192   6.284  32.382  1.00  0.00     0.100 N 
HETATM    3  C1  UNK     1      18.030   4.104  32.445  1.00  0.00     0.303 C 
HETATM    4  C2  UNK     1      19.299   4.704  30.484  1.00  0.00     0.303 C 
HETATM    5  C3  UNK     1      18.768   5.179  33.250  1.00  0.00     0.303 C 
HETATM    6  C4  UNK     1      20.035   5.781  31.290  1.00  0.00     0.303 C 
ENDROOT
BRANCH   1   7
HETATM    7  C5  UNK     1      18.168   2.577  30.583  1.00  0.00     0.312 C 
BRANCH   7   8
HETATM    8  C7  UNK     1      18.927   1.297  30.523  1.00  0.00    -0.011 A 
HETATM    9  C10 UNK     1      19.599   0.941  29.418  1.00  0.00     0.092 A 
HETATM   10  C14 UNK     1      20.363  -0.313  29.311  1.00  0.00     0.288 A 
HETATM   11  O1  UNK     1      20.366  -1.137  30.426  1.00  0.00    -0.275 OA
HETATM   12  O3  UNK     1      20.966  -0.604  28.284  1.00  0.00    -0.260 OA
HETATM   13  C11 UNK     1      19.671  -0.790  31.601  1.00  0.00     0.090 A 
HETATM   14  C8  UNK     1      18.950   0.402  31.688  1.00  0.00     0.007 A 
HETATM   15  C15 UNK     1      19.744  -1.695  32.661  1.00  0.00     0.039 A 
HETATM   16  C12 UNK     1      18.285   0.675  32.891  1.00  0.00     0.022 A 
HETATM   17  C13 UNK     1      18.349  -0.224  33.962  1.00  0.00    -0.058 A 
HETATM   18  C16 UNK     1      19.078  -1.407  33.847  1.00  0.00     0.010 A 
BRANCH  17  19
HETATM   19  C17 UNK     1      17.634   0.086  35.235  1.00  0.00     0.034 C 
HETATM   20  C19 UNK     1      16.129   0.233  35.033  1.00  0.00     0.010 C 
ENDBRANCH  17  19
ENDBRANCH   7   8
ENDBRANCH   1   7
BRANCH   2  21
HETATM   21  C6  UNK     1      19.895   7.308  33.151  1.00  0.00     0.375 C 
BRANCH  21  22
HETATM   22  C9  UNK     1      18.920   7.987  34.098  1.00  0.00     0.250 C 
HETATM   23  O2  UNK     1      19.023   7.913  35.318  1.00  0.00    -0.271 OA
HETATM   24  N3  UNK     1      17.948   8.676  33.375  1.00  0.00    -0.326 N 
HETATM   25  H16 UNK     1      17.998   8.640  32.359  1.00  0.00     0.169 HD
BRANCH  24  26
HETATM   26  C18 UNK     1      16.867   9.433  33.886  1.00  0.00     0.034 A 
HETATM   27  C20 UNK     1      15.617   8.837  34.052  1.00  0.00     0.029 A 
HETATM   28  C22 UNK     1      14.551   9.583  34.558  1.00  0.00     0.002 A 
HETATM   29  C24 UNK     1      14.736  10.923  34.895  1.00  0.00     0.000 A 
HETATM   30  C23 UNK     1      15.986  11.519  34.730  1.00  0.00     0.002 A 
HETATM   31  C21 UNK     1      17.052  10.774  34.224  1.00  0.00     0.029 A 
ENDBRANCH  24  26
ENDBRANCH  21  22
ENDBRANCH   2  21
TORSDOF 6
ENDMDL
MODEL 4
REMARK VINA RESULT:      -8.9      3.950     10.769
REMARK  6 active torsions:
REMARK  status: ('A' for Active; 'I' for Inactive)
REMARK    1  A    between atoms: C5_11  and  N1_4 
REMARK    2  A    between atoms: C6_12  and  N2_5 
REMARK    3  A    between atoms: C18_24  and  N3_6 
REMARK       I    between atoms: C9_15  and  N3_6 
REMARK    4  A    between atoms: C5_11  and  C7_13 
REMARK    5  A    between atoms: C6_12  and  C9_15 
REMARK    6  A    between atoms: C13_19  and  C17_23 
ROOT
HETATM    1  N1  UNK     1      17.924   1.498  35.201  1.00  0.00     0.096 N 
HETATM    2  N2  UNK     1      18.230  -1.022  36.584  1.00  0.00     0.100 N 
HETATM    3  C1  UNK     1      17.527   1.347  36.606  1.00  0.00     0.303 C 
HETATM    4  C2  UNK     1      19.021   0.579  34.876  1.00  0.00     0.303 C 
HETATM    5  C3  UNK     1      17.131  -0.103  36.907  1.00  0.00     0.303 C 
HETATM    6  C4  UNK     1      18.627  -0.871  35.179  1.00  0.00     0.303 C 
ENDROOT
BRANCH   1   7
HETATM    7  C5  UNK     1      18.304   2.881  34.915  1.00  0.00     0.312 C 
BRANCH   7   8
HETATM    8  C7  UNK     1      18.318   3.170  33.454  1.00  0.00    -0.011 A 
HETATM    9  C10 UNK     1      18.295   2.178  32.552  1.00  0.00     0.092 A 
HETATM   10  C14 UNK     1      18.308   2.413  31.099  1.00  0.00     0.288 A 
HETATM   11  O1  UNK     1      18.344   3.734  30.682  1.00  0.00    -0.275 OA
HETATM   12  O3  UNK     1      18.286   1.480  30.304  1.00  0.00    -0.260 OA
HETATM   13  C11 UNK     1      18.367   4.798  31.606  1.00  0.00     0.090 A 
HETATM   14  C8  UNK     1      18.355   4.560  32.981  1.00  0.00     0.007 A 
HETATM   15  C15 UNK     1      18.403   6.088  31.073  1.00  0.00     0.039 A 
HETATM   16  C12 UNK     1      18.380   5.672  33.834  1.00  0.00     0.022 A 
HETATM   17  C13 UNK     1      18.416   6.970  33.315  1.00  0.00    -0.058 A 
HETATM   18  C16 UNK     1      18.427   7.178  31.936  1.00  0.00     0.010 A 
BRANCH  17  19
HETATM   19  C17 UNK     1      18.443   8.140  34.241  1.00  0.00     0.034 C 
HETATM   20  C19 UNK     1      19.858   8.655  34.485  1.00  0.00     0.010 C 
ENDBRANCH  17  19
ENDBRANCH   7   8
ENDBRANCH   1   7
BRANCH   2  21
HETATM   21  C6  UNK     1      17.851  -2.404  36.871  1.00  0.00     0.375 C 
BRANCH  21  22
HETATM   22  C9  UNK     1      19.094  -3.279  36.872  1.00  0.00     0.250 C 
HETATM   23  O2  UNK     1      20.207  -2.846  37.152  1.00  0.00    -0.271 OA
HETATM   24  N3  UNK     1      18.762  -4.586  36.523  1.00  0.00    -0.326 N 
HETATM   25  H16 UNK     1      17.787  -4.788  36.314  1.00  0.00     0.169 HD
BRANCH  24  26
HETATM   26  C18 UNK     1      19.632  -5.696  36.410  1.00  0.00     0.034 A 
HETATM   27  C20 UNK     1      19.718  -6.395  35.206  1.00  0.00     0.029 A 
HETATM   28  C22 UNK     1      20.577  -7.489  35.094  1.00  0.00     0.002 A 
HETATM   29  C24 UNK     1      21.348  -7.885  36.187  1.00  0.00     0.000 A 
HETATM   30  C23 UNK     1      21.262  -7.187  37.391  1.00  0.00     0.002 A 
HETATM   31  C21 UNK     1      20.403  -6.092  37.503  1.00  0.00     0.029 A 
ENDBRANCH  24  26
ENDBRANCH  21  22
ENDBRANCH   2  21
TORSDOF 6
ENDMDL
MODEL 5
REMARK VINA RESULT:      -8.8      2.859      9.308
REMARK  6 active torsions:
REMARK  status: ('A' for Active; 'I' for Inactive)
REMARK    1  A    between atoms: C5_11  and  N1_4 
REMARK    2  A    between atoms: C6_12  and  N2_5 
REMARK    3  A    between atoms: C18_24  and  N3_6 
REMARK       I    between atoms: C9_15  and  N3_6 
REMARK    4  A    between atoms: C5_11  and  C7_13 
REMARK    5  A    between atoms: C6_12  and  C9_15 
REMARK    6  A    between atoms: C13_19  and  C17_23 
ROOT
HETATM    1  N1  UNK     1      20.062  -4.645  36.296  1.00  0.00     0.096 N 
HETATM    2  N2  UNK     1      19.619  -7.361  37.183  1.00  0.00     0.100 N 
HETATM    3  C1  UNK     1      18.705  -5.181  36.466  1.00  0.00     0.303 C 
HETATM    4  C2  UNK     1      20.993  -5.308  37.216  1.00  0.00     0.303 C 
HETATM    5  C3  UNK     1      18.689  -6.699  36.260  1.00  0.00     0.303 C 
HETATM    6  C4  UNK     1      20.976  -6.826  37.012  1.00  0.00     0.303 C 
ENDROOT
BRANCH   1   7
HETATM    7  C5  UNK     1      20.076  -3.197  36.495  1.00  0.00     0.312 C 
BRANCH   7   8
HETATM    8  C7  UNK     1      19.864  -2.453  35.222  1.00  0.00    -0.011 A 
HETATM    9  C10 UNK     1      20.480  -2.826  34.090  1.00  0.00     0.092 A 
HETATM   10  C14 UNK     1      20.301  -2.124  32.809  1.00  0.00     0.288 A 
HETATM   11  O1  UNK     1      19.448  -1.031  32.812  1.00  0.00    -0.275 OA
HETATM   12  O3  UNK     1      20.881  -2.495  31.794  1.00  0.00    -0.260 OA
HETATM   13  C11 UNK     1      18.787  -0.615  33.984  1.00  0.00     0.090 A 
HETATM   14  C8  UNK     1      18.966  -1.291  35.192  1.00  0.00     0.007 A 
HETATM   15  C15 UNK     1      17.952   0.498  33.870  1.00  0.00     0.039 A 
HETATM   16  C12 UNK     1      18.272  -0.815  36.313  1.00  0.00     0.022 A 
HETATM   17  C13 UNK     1      17.432   0.300  36.213  1.00  0.00    -0.058 A 
HETATM   18  C16 UNK     1      17.272   0.955  34.994  1.00  0.00     0.010 A 
BRANCH  17  19
HETATM   19  C17 UNK     1      16.703   0.790  37.420  1.00  0.00     0.034 C 
HETATM   20  C19 UNK     1      17.641   1.403  38.455  1.00  0.00     0.010 C 
ENDBRANCH  17  19
ENDBRANCH   7   8
ENDBRANCH   1   7
BRANCH   2  21
HETATM   21  C6  UNK     1      19.603  -8.809  36.985  1.00  0.00     0.375 C 
BRANCH  21  22
HETATM   22  C9  UNK     1      20.938  -9.393  37.415  1.00  0.00     0.250 C 
HETATM   23  O2  UNK     1      21.247  -9.539  38.593  1.00  0.00    -0.271 OA
HETATM   24  N3  UNK     1      21.703  -9.719  36.297  1.00  0.00    -0.326 N 
HETATM   25  H16 UNK     1      21.305  -9.533  35.379  1.00  0.00     0.169 HD
BRANCH  24  26
HETATM   26  C18 UNK     1      23.001 -10.283  36.274  1.00  0.00     0.034 A 
HETATM   27  C20 UNK     1      24.095  -9.532  36.705  1.00  0.00     0.029 A 
HETATM   28  C22 UNK     1      25.374 -10.088  36.684  1.00  0.00     0.002 A 
HETATM   29  C24 UNK     1      25.559 -11.394  36.231  1.00  0.00     0.000 A 
HETATM   30  C23 UNK     1      24.466 -12.145  35.800  1.00  0.00     0.002 A 
HETATM   31  C21 UNK     1      23.186 -11.589  35.821  1.00  0.00     0.029 A 
ENDBRANCH  24  26
ENDBRANCH  21  22
ENDBRANCH   2  21
TORSDOF 6
ENDMDL
MODEL 6
REMARK VINA RESULT:      -8.7      7.561     11.497
REMARK  6 active torsions:
REMARK  status: ('A' for Active; 'I' for Inactive)
REMARK    1  A    between atoms: C5_11  and  N1_4 
REMARK    2  A    between atoms: C6_12  and  N2_5 
REMARK    3  A    between atoms: C18_24  and  N3_6 
REMARK       I    between atoms: C9_15  and  N3_6 
REMARK    4  A    between atoms: C5_11  and  C7_13 
REMARK    5  A    between atoms: C6_12  and  C9_15 
REMARK    6  A    between atoms: C13_19  and  C17_23 
ROOT
HETATM    1  N1  UNK     1      26.837  -9.382  37.581  1.00  0.00     0.096 N 
HETATM    2  N2  UNK     1      29.667  -9.140  38.121  1.00  0.00     0.100 N 
HETATM    3  C1  UNK     1      27.346  -9.288  38.955  1.00  0.00     0.303 C 
HETATM    4  C2  UNK     1      27.732  -8.681  36.654  1.00  0.00     0.303 C 
HETATM    5  C3  UNK     1      28.770  -9.843  39.048  1.00  0.00     0.303 C 
HETATM    6  C4  UNK     1      29.158  -9.235  36.747  1.00  0.00     0.303 C 
ENDROOT
BRANCH   1   7
HETATM    7  C5  UNK     1      25.478  -8.849  37.494  1.00  0.00     0.312 C 
BRANCH   7   8
HETATM    8  C7  UNK     1      24.553  -9.782  36.792  1.00  0.00    -0.011 A 
HETATM    9  C10 UNK     1      24.999 -10.928  36.258  1.00  0.00     0.092 A 
HETATM   10  C14 UNK     1      24.124 -11.881  35.555  1.00  0.00     0.288 A 
HETATM   11  O1  UNK     1      22.783 -11.544  35.462  1.00  0.00    -0.275 OA
HETATM   12  O3  UNK     1      24.568 -12.921  35.081  1.00  0.00    -0.260 OA
HETATM   13  C11 UNK     1      22.285 -10.346  36.014  1.00  0.00     0.090 A 
HETATM   14  C8  UNK     1      23.126  -9.452  36.677  1.00  0.00     0.007 A 
HETATM   15  C15 UNK     1      20.918 -10.110  35.860  1.00  0.00     0.039 A 
HETATM   16  C12 UNK     1      22.553  -8.283  37.197  1.00  0.00     0.022 A 
HETATM   17  C13 UNK     1      21.184  -8.033  37.051  1.00  0.00    -0.058 A 
HETATM   18  C16 UNK     1      20.368  -8.944  36.384  1.00  0.00     0.010 A 
BRANCH  17  19
HETATM   19  C17 UNK     1      20.595  -6.782  37.613  1.00  0.00     0.034 C 
HETATM   20  C19 UNK     1      20.366  -6.873  39.118  1.00  0.00     0.010 C 
ENDBRANCH  17  19
ENDBRANCH   7   8
ENDBRANCH   1   7
BRANCH   2  21
HETATM   21  C6  UNK     1      31.025  -9.672  38.210  1.00  0.00     0.375 C 
BRANCH  21  22
HETATM   22  C9  UNK     1      31.913  -8.960  37.202  1.00  0.00     0.250 C 
HETATM   23  O2  UNK     1      32.324  -9.506  36.183  1.00  0.00    -0.271 OA
HETATM   24  N3  UNK     1      32.157  -7.652  37.615  1.00  0.00    -0.326 N 
HETATM   25  H16 UNK     1      31.743  -7.347  38.493  1.00  0.00     0.169 HD
BRANCH  24  26
HETATM   26  C18 UNK     1      32.934  -6.670  36.955  1.00  0.00     0.034 A 
HETATM   27  C20 UNK     1      34.322  -6.672  37.094  1.00  0.00     0.029 A 
HETATM   28  C22 UNK     1      35.089  -5.705  36.443  1.00  0.00     0.002 A 
HETATM   29  C24 UNK     1      34.468  -4.736  35.656  1.00  0.00     0.000 A 
HETATM   30  C23 UNK     1      33.080  -4.734  35.517  1.00  0.00     0.002 A 
HETATM   31  C21 UNK     1      32.313  -5.701  36.168  1.00  0.00     0.029 A 
ENDBRANCH  24  26
ENDBRANCH  21  22
ENDBRANCH   2  21
TORSDOF 6
ENDMDL
MODEL 7
REMARK VINA RESULT:      -8.7     11.812     15.019
REMARK  6 active torsions:
REMARK  status: ('A' for Active; 'I' for Inactive)
REMARK    1  A    between atoms: C5_11  and  N1_4 
REMARK    2  A    between atoms: C6_12  and  N2_5 
REMARK    3  A    between atoms: C18_24  and  N3_6 
REMARK       I    between atoms: C9_15  and  N3_6 
REMARK    4  A    between atoms: C5_11  and  C7_13 
REMARK    5  A    between atoms: C6_12  and  C9_15 
REMARK    6  A    between atoms: C13_19  and  C17_23 
ROOT
HETATM    1  N1  UNK     1      31.934  -5.966  35.831  1.00  0.00     0.096 N 
HETATM    2  N2  UNK     1      34.531  -6.653  34.761  1.00  0.00     0.100 N 
HETATM    3  C1  UNK     1      32.738  -4.985  35.090  1.00  0.00     0.303 C 
HETATM    4  C2  UNK     1      32.233  -7.326  35.369  1.00  0.00     0.303 C 
HETATM    5  C3  UNK     1      34.232  -5.292  35.226  1.00  0.00     0.303 C 
HETATM    6  C4  UNK     1      33.728  -7.633  35.503  1.00  0.00     0.303 C 
ENDROOT
BRANCH   1   7
HETATM    7  C5  UNK     1      30.507  -5.673  35.700  1.00  0.00     0.312 C 
BRANCH   7   8
HETATM    8  C7  UNK     1      29.820  -5.623  37.020  1.00  0.00    -0.011 A 
HETATM    9  C10 UNK     1      30.057  -4.627  37.886  1.00  0.00     0.092 A 
HETATM   10  C14 UNK     1      29.403  -4.534  39.202  1.00  0.00     0.288 A 
HETATM   11  O1  UNK     1      28.507  -5.541  39.524  1.00  0.00    -0.275 OA
HETATM   12  O3  UNK     1      29.643  -3.607  39.967  1.00  0.00    -0.260 OA
HETATM   13  C11 UNK     1      28.237  -6.600  38.635  1.00  0.00     0.090 A 
HETATM   14  C8  UNK     1      28.865  -6.675  37.391  1.00  0.00     0.007 A 
HETATM   15  C15 UNK     1      27.318  -7.558  39.064  1.00  0.00     0.039 A 
HETATM   16  C12 UNK     1      28.543  -7.760  36.564  1.00  0.00     0.022 A 
HETATM   17  C13 UNK     1      27.623  -8.728  36.981  1.00  0.00    -0.058 A 
HETATM   18  C16 UNK     1      27.011  -8.627  38.229  1.00  0.00     0.010 A 
BRANCH  17  19
HETATM   19  C17 UNK     1      27.295  -9.876  36.085  1.00  0.00     0.034 C 
HETATM   20  C19 UNK     1      26.040 -10.620  36.531  1.00  0.00     0.010 C 
ENDBRANCH  17  19
ENDBRANCH   7   8
ENDBRANCH   1   7
BRANCH   2  21
HETATM   21  C6  UNK     1      35.957  -6.944  34.892  1.00  0.00     0.375 C 
BRANCH  21  22
HETATM   22  C9  UNK     1      36.503  -7.402  33.550  1.00  0.00     0.250 C 
HETATM   23  O2  UNK     1      36.635  -6.643  32.595  1.00  0.00    -0.271 OA
HETATM   24  N3  UNK     1      36.817  -8.759  33.596  1.00  0.00    -0.326 N 
HETATM   25  H16 UNK     1      36.647  -9.256  34.467  1.00  0.00     0.169 HD
BRANCH  24  26
HETATM   26  C18 UNK     1      37.348  -9.558  32.555  1.00  0.00     0.034 A 
HETATM   27  C20 UNK     1      36.653  -9.686  31.352  1.00  0.00     0.029 A 
HETATM   28  C22 UNK     1      37.177 -10.472  30.325  1.00  0.00     0.002 A 
HETATM   29  C24 UNK     1      38.394 -11.130  30.502  1.00  0.00     0.000 A 
HETATM   30  C23 UNK     1      39.088 -11.002  31.704  1.00  0.00     0.002 A 
HETATM   31  C21 UNK     1      38.565 -10.216  32.732  1.00  0.00     0.029 A 
ENDBRANCH  24  26
ENDBRANCH  21  22
ENDBRANCH   2  21
TORSDOF 6
ENDMDL
MODEL 8
REMARK VINA RESULT:      -8.5     27.835     30.568
REMARK  6 active torsions:
REMARK  status: ('A' for Active; 'I' for Inactive)
REMARK    1  A    between atoms: C5_11  and  N1_4 
REMARK    2  A    between atoms: C6_12  and  N2_5 
REMARK    3  A    between atoms: C18_24  and  N3_6 
REMARK       I    between atoms: C9_15  and  N3_6 
REMARK    4  A    between atoms: C5_11  and  C7_13 
REMARK    5  A    between atoms: C6_12  and  C9_15 
REMARK    6  A    between atoms: C13_19  and  C17_23 
ROOT
HETATM    1  N1  UNK     1      16.861   9.536   9.640  1.00  0.00     0.096 N 
HETATM    2  N2  UNK     1      15.236   7.163   9.939  1.00  0.00     0.100 N 
HETATM    3  C1  UNK     1      15.394   9.611   9.642  1.00  0.00     0.303 C 
HETATM    4  C2  UNK     1      17.316   8.397  10.445  1.00  0.00     0.303 C 
HETATM    5  C3  UNK     1      14.781   8.303   9.132  1.00  0.00     0.303 C 
HETATM    6  C4  UNK     1      16.702   7.088   9.936  1.00  0.00     0.303 C 
ENDROOT
BRANCH   1   7
HETATM    7  C5  UNK     1      17.445  10.784  10.129  1.00  0.00     0.312 C 
BRANCH   7   8
HETATM    8  C7  UNK     1      18.407  11.373   9.157  1.00  0.00    -0.011 A 
HETATM    9  C10 UNK     1      18.120  11.434   7.849  1.00  0.00     0.092 A 
HETATM   10  C14 UNK     1      19.039  12.005   6.850  1.00  0.00     0.288 A 
HETATM   11  O1  UNK     1      20.247  12.494   7.323  1.00  0.00    -0.275 OA
HETATM   12  O3  UNK     1      18.741  12.045   5.662  1.00  0.00    -0.260 OA
HETATM   13  C11 UNK     1      20.576  12.445   8.693  1.00  0.00     0.090 A 
HETATM   14  C8  UNK     1      19.695  11.899   9.628  1.00  0.00     0.007 A 
HETATM   15  C15 UNK     1      21.819  12.966   9.055  1.00  0.00     0.039 A 
HETATM   16  C12 UNK     1      20.097  11.887  10.970  1.00  0.00     0.022 A 
HETATM   17  C13 UNK     1      21.340  12.406  11.348  1.00  0.00    -0.058 A 
HETATM   18  C16 UNK     1      22.200  12.945  10.393  1.00  0.00     0.010 A 
BRANCH  17  19
HETATM   19  C17 UNK     1      21.749  12.383  12.784  1.00  0.00     0.034 C 
HETATM   20  C19 UNK     1      20.625  12.829  13.714  1.00  0.00     0.010 C 
ENDBRANCH  17  19
ENDBRANCH   7   8
ENDBRANCH   1   7
BRANCH   2  21
HETATM   21  C6  UNK     1      14.651   5.916   9.451  1.00  0.00     0.375 C 
BRANCH  21  22
HETATM   22  C9  UNK     1      13.140   6.059   9.383  1.00  0.00     0.250 C 
HETATM   23  O2  UNK     1      12.450   6.263  10.378  1.00  0.00    -0.271 OA
HETATM   24  N3  UNK     1      12.702   5.930   8.067  1.00  0.00    -0.326 N 
HETATM   25  H16 UNK     1      13.403   5.758   7.349  1.00  0.00     0.169 HD
BRANCH  24  26
HETATM   26  C18 UNK     1      11.372   6.000   7.589  1.00  0.00     0.034 A 
HETATM   27  C20 UNK     1      10.305   5.898   8.482  1.00  0.00     0.029 A 
HETATM   28  C22 UNK     1       8.993   5.969   8.012  1.00  0.00     0.002 A 
HETATM   29  C24 UNK     1       8.749   6.140   6.650  1.00  0.00     0.000 A 
HETATM   30  C23 UNK     1       9.816   6.242   5.757  1.00  0.00     0.002 A 
HETATM   31  C21 UNK     1      11.128   6.172   6.227  1.00  0.00     0.029 A 
ENDBRANCH  24  26
ENDBRANCH  21  22
ENDBRANCH   2  21
TORSDOF 6
ENDMDL
MODEL 9
REMARK VINA RESULT:      -8.5      8.250     12.367
REMARK  6 active torsions:
REMARK  status: ('A' for Active; 'I' for Inactive)
REMARK    1  A    between atoms: C5_11  and  N1_4 
REMARK    2  A    between atoms: C6_12  and  N2_5 
REMARK    3  A    between atoms: C18_24  and  N3_6 
REMARK       I    between atoms: C9_15  and  N3_6 
REMARK    4  A    between atoms: C5_11  and  C7_13 
REMARK    5  A    between atoms: C6_12  and  C9_15 
REMARK    6  A    between atoms: C13_19  and  C17_23 
ROOT
HETATM    1  N1  UNK     1      29.298  -6.433  37.433  1.00  0.00     0.096 N 
HETATM    2  N2  UNK     1      26.749  -7.469  38.322  1.00  0.00     0.100 N 
HETATM    3  C1  UNK     1      28.315  -6.963  36.479  1.00  0.00     0.303 C 
HETATM    4  C2  UNK     1      28.621  -5.882  38.613  1.00  0.00     0.303 C 
HETATM    5  C3  UNK     1      27.428  -8.021  37.143  1.00  0.00     0.303 C 
HETATM    6  C4  UNK     1      27.732  -6.939  39.276  1.00  0.00     0.303 C 
ENDROOT
BRANCH   1   7
HETATM    7  C5  UNK     1      30.142  -5.422  36.799  1.00  0.00     0.312 C 
BRANCH   7   8
HETATM    8  C7  UNK     1      31.485  -5.957  36.439  1.00  0.00    -0.011 A 
HETATM    9  C10 UNK     1      32.428  -6.147  37.374  1.00  0.00     0.092 A 
HETATM   10  C14 UNK     1      33.768  -6.673  37.067  1.00  0.00     0.288 A 
HETATM   11  O1  UNK     1      34.030  -6.975  35.740  1.00  0.00    -0.275 OA
HETATM   12  O3  UNK     1      34.604  -6.835  37.949  1.00  0.00    -0.260 OA
HETATM   13  C11 UNK     1      33.059  -6.786  34.736  1.00  0.00     0.090 A 
HETATM   14  C8  UNK     1      31.793  -6.286  35.041  1.00  0.00     0.007 A 
HETATM   15  C15 UNK     1      33.434  -7.123  33.434  1.00  0.00     0.039 A 
HETATM   16  C12 UNK     1      30.884  -6.127  33.986  1.00  0.00     0.022 A 
HETATM   17  C13 UNK     1      31.245  -6.461  32.676  1.00  0.00    -0.058 A 
HETATM   18  C16 UNK     1      32.518  -6.959  32.400  1.00  0.00     0.010 A 
BRANCH  17  19
HETATM   19  C17 UNK     1      30.262  -6.284  31.567  1.00  0.00     0.034 C 
HETATM   20  C19 UNK     1      29.143  -5.313  31.934  1.00  0.00     0.010 C 
ENDBRANCH  17  19
ENDBRANCH   7   8
ENDBRANCH   1   7
BRANCH   2  21
HETATM   21  C6  UNK     1      25.904  -8.479  38.955  1.00  0.00     0.375 C 
BRANCH  21  22
HETATM   22  C9  UNK     1      24.489  -8.367  38.412  1.00  0.00     0.250 C 
HETATM   23  O2  UNK     1      24.227  -8.486  37.220  1.00  0.00    -0.271 OA
HETATM   24  N3  UNK     1      23.593  -8.124  39.452  1.00  0.00    -0.326 N 
HETATM   25  H16 UNK     1      23.969  -8.048  40.394  1.00  0.00     0.169 HD
BRANCH  24  26
HETATM   26  C18 UNK     1      22.191  -7.956  39.360  1.00  0.00     0.034 A 
HETATM   27  C20 UNK     1      21.353  -9.071  39.401  1.00  0.00     0.029 A 
HETATM   28  C22 UNK     1      19.970  -8.906  39.312  1.00  0.00     0.002 A 
HETATM   29  C24 UNK     1      19.427  -7.629  39.179  1.00  0.00     0.000 A 
HETATM   30  C23 UNK     1      20.264  -6.515  39.137  1.00  0.00     0.002 A 
HETATM   31  C21 UNK     1      21.648  -6.679  39.227  1.00  0.00     0.029 A 
ENDBRANCH  24  26
ENDBRANCH  21  22
ENDBRANCH   2  21
TORSDOF 6
ENDMDL
MODEL 10
REMARK VINA RESULT:      -8.5      7.670     11.974
REMARK  6 active torsions:
REMARK  status: ('A' for Active; 'I' for Inactive)
REMARK    1  A    between atoms: C5_11  and  N1_4 
REMARK    2  A    between atoms: C6_12  and  N2_5 
REMARK    3  A    between atoms: C18_24  and  N3_6 
REMARK       I    between atoms: C9_15  and  N3_6 
REMARK    4  A    between atoms: C5_11  and  C7_13 
REMARK    5  A    between atoms: C6_12  and  C9_15 
REMARK    6  A    between atoms: C13_19  and  C17_23 
ROOT
HETATM    1  N1  UNK     1      29.712  -8.828  37.685  1.00  0.00     0.096 N 
HETATM    2  N2  UNK     1      26.922  -9.269  37.067  1.00  0.00     0.100 N 
HETATM    3  C1  UNK     1      29.108  -8.291  36.459  1.00  0.00     0.303 C 
HETATM    4  C2  UNK     1      28.704  -8.939  38.746  1.00  0.00     0.303 C 
HETATM    5  C3  UNK     1      27.930  -9.160  36.005  1.00  0.00     0.303 C 
HETATM    6  C4  UNK     1      27.526  -9.807  38.292  1.00  0.00     0.303 C 
ENDROOT
BRANCH   1   7
HETATM    7  C5  UNK     1      30.834  -7.996  38.118  1.00  0.00     0.312 C 
BRANCH   7   8
HETATM    8  C7  UNK     1      30.523  -6.543  38.025  1.00  0.00    -0.011 A 
HETATM    9  C10 UNK     1      29.438  -6.027  38.621  1.00  0.00     0.092 A 
HETATM   10  C14 UNK     1      29.090  -4.598  38.557  1.00  0.00     0.288 A 
HETATM   11  O1  UNK     1      29.948  -3.779  37.840  1.00  0.00    -0.275 OA
HETATM   12  O3  UNK     1      28.090  -4.162  39.116  1.00  0.00    -0.260 OA
HETATM   13  C11 UNK     1      31.096  -4.292  37.204  1.00  0.00     0.090 A 
HETATM   14  C8  UNK     1      31.414  -5.649  37.272  1.00  0.00     0.007 A 
HETATM   15  C15 UNK     1      31.888  -3.375  36.510  1.00  0.00     0.039 A 
HETATM   16  C12 UNK     1      32.573  -6.080  36.612  1.00  0.00     0.022 A 
HETATM   17  C13 UNK     1      33.375  -5.173  35.913  1.00  0.00    -0.058 A 
HETATM   18  C16 UNK     1      33.034  -3.823  35.862  1.00  0.00     0.010 A 
BRANCH  17  19
HETATM   19  C17 UNK     1      34.605  -5.654  35.217  1.00  0.00     0.034 C 
HETATM   20  C19 UNK     1      34.803  -7.160  35.363  1.00  0.00     0.010 C 
ENDBRANCH  17  19
ENDBRANCH   7   8
ENDBRANCH   1   7
BRANCH   2  21
HETATM   21  C6  UNK     1      25.800 -10.099  36.634  1.00  0.00     0.375 C 
BRANCH  21  22
HETATM   22  C9  UNK     1      24.494  -9.386  36.944  1.00  0.00     0.250 C 
HETATM   23  O2  UNK     1      24.451  -8.323  37.555  1.00  0.00    -0.271 OA
HETATM   24  N3  UNK     1      23.418 -10.110  36.435  1.00  0.00    -0.326 N 
HETATM   25  H16 UNK     1      23.619 -10.981  35.951  1.00  0.00     0.169 HD
BRANCH  24  26
HETATM   26  C18 UNK     1      22.043  -9.782  36.515  1.00  0.00     0.034 A 
HETATM   27  C20 UNK     1      21.176 -10.593  37.246  1.00  0.00     0.029 A 
HETATM   28  C22 UNK     1      19.821 -10.270  37.326  1.00  0.00     0.002 A 
HETATM   29  C24 UNK     1      19.334  -9.138  36.673  1.00  0.00     0.000 A 
HETATM   30  C23 UNK     1      20.201  -8.328  35.942  1.00  0.00     0.002 A 
HETATM   31  C21 UNK     1      21.557  -8.650  35.862  1.00  0.00     0.029 A 
ENDBRANCH  24  26
ENDBRANCH  21  22
ENDBRANCH   2  21
TORSDOF 6
ENDMDL
