MODEL 1
REMARK VINA RESULT:      -8.7      0.000      0.000
REMARK  3 active torsions:
REMARK  status: ('A' for Active; 'I' for Inactive)
REMARK    1  A    between atoms: C10_14  and  N1_4 
REMARK       I    between atoms: C12_16  and  N1_4 
REMARK    2  A    between atoms: C1_5  and  C2_6 
REMARK    3  A    between atoms: C12_16  and  C7_11 
ROOT
HETATM    1  O2  UNK     1      19.693   5.454  31.982  1.00  0.00    -0.267 OA
HETATM    2  N1  UNK     1      17.779   4.115  32.249  1.00  0.00    -0.323 N 
HETATM    3  C12 UNK     1      18.498   5.316  32.218  1.00  0.00     0.256 C 
HETATM    4  H13 UNK     1      16.778   4.156  32.415  1.00  0.00     0.169 HD
ENDROOT
BRANCH   2   5
HETATM    5  C10 UNK     1      18.256   2.823  32.019  1.00  0.00     0.035 A 
HETATM    6  C13 UNK     1      18.708   2.464  30.745  1.00  0.00     0.043 A 
HETATM    7  C11 UNK     1      19.186   1.172  30.512  1.00  0.00     0.000 A 
HETATM    8  C14 UNK     1      19.202   0.261  31.565  1.00  0.00     0.089 A 
HETATM    9  C17 UNK     1      19.667   0.747  29.210  1.00  0.00     0.020 A 
HETATM   10  O1  UNK     1      19.675  -1.052  31.369  1.00  0.00    -0.275 OA
HETATM   11  C16 UNK     1      18.754   0.605  32.839  1.00  0.00     0.040 A 
HETATM   12  C19 UNK     1      20.141  -1.482  30.132  1.00  0.00     0.288 A 
HETATM   13  C18 UNK     1      20.115  -0.499  29.033  1.00  0.00     0.083 A 
HETATM   14  O3  UNK     1      20.556  -2.622  29.954  1.00  0.00    -0.260 OA
HETATM   15  C15 UNK     1      18.280   1.896  33.063  1.00  0.00     0.032 A 
ENDBRANCH   2   5
BRANCH   3  16
HETATM   16  C7  UNK     1      17.711   6.536  32.535  1.00  0.00     0.032 A 
HETATM   17  C8  UNK     1      16.348   6.523  32.321  1.00  0.00     0.017 A 
HETATM   18  C5  UNK     1      15.609   7.668  32.619  1.00  0.00     0.008 A 
HETATM   19  C2  UNK     1      16.249   8.800  33.125  1.00  0.00    -0.055 A 
HETATM   20  C6  UNK     1      17.628   8.787  33.333  1.00  0.00     0.008 A 
HETATM   21  C9  UNK     1      18.367   7.642  33.034  1.00  0.00     0.017 A 
BRANCH  19  22
HETATM   22  C1  UNK     1      15.458  10.023  33.444  1.00  0.00     0.010 C 
HETATM   23  C3  UNK     1      16.315  11.125  34.095  1.00  0.00     0.015 C 
HETATM   24  C4  UNK     1      14.236   9.720  34.330  1.00  0.00     0.015 C 
ENDBRANCH  19  22
ENDBRANCH   3  16
TORSDOF 3
ENDMDL
MODEL 2
REMARK VINA RESULT:      -8.7      6.132     11.004
REMARK  3 active torsions:
REMARK  status: ('A' for Active; 'I' for Inactive)
REMARK    1  A    between atoms: C10_14  and  N1_4 
REMARK       I    between atoms: C12_16  and  N1_4 
REMARK    2  A    between atoms: C1_5  and  C2_6 
REMARK    3  A    between atoms: C12_16  and  C7_11 
ROOT
HETATM    1  O2  UNK     1      21.357  -2.478  35.751  1.00  0.00    -0.267 OA
HETATM    2  N1  UNK     1      19.036  -2.464  35.380  1.00  0.00    -0.323 N 
HETATM    3  C12 UNK     1      20.239  -2.959  35.897  1.00  0.00     0.256 C 
HETATM    4  H13 UNK     1      18.174  -2.944  35.621  1.00  0.00     0.169 HD
ENDROOT
BRANCH   2   5
HETATM    5  C10 UNK     1      18.843  -1.326  34.594  1.00  0.00     0.035 A 
HETATM    6  C13 UNK     1      19.238  -1.333  33.252  1.00  0.00     0.043 A 
HETATM    7  C11 UNK     1      19.047  -0.196  32.463  1.00  0.00     0.000 A 
HETATM    8  C14 UNK     1      18.461   0.930  33.036  1.00  0.00     0.089 A 
HETATM    9  C17 UNK     1      19.437  -0.148  31.065  1.00  0.00     0.020 A 
HETATM   10  O1  UNK     1      18.253   2.096  32.272  1.00  0.00    -0.275 OA
HETATM   11  C16 UNK     1      18.064   0.950  34.371  1.00  0.00     0.040 A 
HETATM   12  C19 UNK     1      18.618   2.166  30.933  1.00  0.00     0.288 A 
HETATM   13  C18 UNK     1      19.236   0.960  30.348  1.00  0.00     0.083 A 
HETATM   14  O3  UNK     1      18.439   3.176  30.261  1.00  0.00    -0.260 OA
HETATM   15  C15 UNK     1      18.257  -0.188  35.151  1.00  0.00     0.032 A 
ENDBRANCH   2   5
BRANCH   3  16
HETATM   16  C7  UNK     1      20.124  -4.217  36.681  1.00  0.00     0.032 A 
HETATM   17  C8  UNK     1      21.082  -4.498  37.633  1.00  0.00     0.017 A 
HETATM   18  C5  UNK     1      20.975  -5.678  38.368  1.00  0.00     0.008 A 
HETATM   19  C2  UNK     1      19.910  -6.550  38.136  1.00  0.00    -0.055 A 
HETATM   20  C6  UNK     1      18.955  -6.242  37.169  1.00  0.00     0.008 A 
HETATM   21  C9  UNK     1      19.063  -5.063  36.432  1.00  0.00     0.017 A 
BRANCH  19  22
HETATM   22  C1  UNK     1      19.795  -7.812  38.924  1.00  0.00     0.010 C 
HETATM   23  C3  UNK     1      21.155  -8.299  39.457  1.00  0.00     0.015 C 
HETATM   24  C4  UNK     1      19.110  -8.940  38.130  1.00  0.00     0.015 C 
ENDBRANCH  19  22
ENDBRANCH   3  16
TORSDOF 3
ENDMDL
MODEL 3
REMARK VINA RESULT:      -8.7      2.448      9.092
REMARK  3 active torsions:
REMARK  status: ('A' for Active; 'I' for Inactive)
REMARK    1  A    between atoms: C10_14  and  N1_4 
REMARK       I    between atoms: C12_16  and  N1_4 
REMARK    2  A    between atoms: C1_5  and  C2_6 
REMARK    3  A    between atoms: C12_16  and  C7_11 
ROOT
HETATM    1  O2  UNK     1      17.881   3.085  33.807  1.00  0.00    -0.267 OA
HETATM    2  N1  UNK     1      17.933   4.824  32.226  1.00  0.00    -0.323 N 
HETATM    3  C12 UNK     1      18.074   3.504  32.671  1.00  0.00     0.256 C 
HETATM    4  H13 UNK     1      18.084   5.019  31.241  1.00  0.00     0.169 HD
ENDROOT
BRANCH   2   5
HETATM    5  C10 UNK     1      17.546   5.943  32.966  1.00  0.00     0.035 A 
HETATM    6  C13 UNK     1      16.275   6.497  32.776  1.00  0.00     0.043 A 
HETATM    7  C11 UNK     1      15.885   7.617  33.515  1.00  0.00     0.000 A 
HETATM    8  C14 UNK     1      16.778   8.162  34.433  1.00  0.00     0.089 A 
HETATM    9  C17 UNK     1      14.578   8.231  33.358  1.00  0.00     0.020 A 
HETATM   10  O1  UNK     1      16.422   9.292  35.196  1.00  0.00    -0.275 OA
HETATM   11  C16 UNK     1      18.047   7.620  34.632  1.00  0.00     0.040 A 
HETATM   12  C19 UNK     1      15.177   9.898  35.064  1.00  0.00     0.288 A 
HETATM   13  C18 UNK     1      14.248   9.301  34.086  1.00  0.00     0.083 A 
HETATM   14  O3  UNK     1      14.859  10.880  35.725  1.00  0.00    -0.260 OA
HETATM   15  C15 UNK     1      18.428   6.503  33.892  1.00  0.00     0.032 A 
ENDBRANCH   2   5
BRANCH   3  16
HETATM   16  C7  UNK     1      18.532   2.532  31.645  1.00  0.00     0.032 A 
HETATM   17  C8  UNK     1      18.493   2.900  30.316  1.00  0.00     0.017 A 
HETATM   18  C5  UNK     1      18.923   1.988  29.352  1.00  0.00     0.008 A 
HETATM   19  C2  UNK     1      19.385   0.730  29.739  1.00  0.00    -0.055 A 
HETATM   20  C6  UNK     1      19.416   0.383  31.089  1.00  0.00     0.008 A 
HETATM   21  C9  UNK     1      18.984   1.294  32.053  1.00  0.00     0.017 A 
BRANCH  19  22
HETATM   22  C1  UNK     1      19.846  -0.245  28.708  1.00  0.00     0.010 C 
HETATM   23  C3  UNK     1      18.760  -0.550  27.659  1.00  0.00     0.015 C 
HETATM   24  C4  UNK     1      20.359  -1.558  29.328  1.00  0.00     0.015 C 
ENDBRANCH  19  22
ENDBRANCH   3  16
TORSDOF 3
ENDMDL
MODEL 4
REMARK VINA RESULT:      -8.6      8.135     10.647
REMARK  3 active torsions:
REMARK  status: ('A' for Active; 'I' for Inactive)
REMARK    1  A    between atoms: C10_14  and  N1_4 
REMARK       I    between atoms: C12_16  and  N1_4 
REMARK    2  A    between atoms: C1_5  and  C2_6 
REMARK    3  A    between atoms: C12_16  and  C7_11 
ROOT
HETATM    1  O2  UNK     1      20.764  -3.960  36.461  1.00  0.00    -0.267 OA
HETATM    2  N1  UNK     1      18.547  -4.650  36.828  1.00  0.00    -0.323 N 
HETATM    3  C12 UNK     1      19.571  -3.720  36.607  1.00  0.00     0.256 C 
HETATM    4  H13 UNK     1      17.592  -4.310  36.886  1.00  0.00     0.169 HD
ENDROOT
BRANCH   2   5
HETATM    5  C10 UNK     1      18.656  -6.039  36.927  1.00  0.00     0.035 A 
HETATM    6  C13 UNK     1      19.187  -6.614  38.087  1.00  0.00     0.043 A 
HETATM    7  C11 UNK     1      19.296  -8.003  38.189  1.00  0.00     0.000 A 
HETATM    8  C14 UNK     1      18.870  -8.791  37.124  1.00  0.00     0.089 A 
HETATM    9  C17 UNK     1      19.839  -8.652  39.370  1.00  0.00     0.020 A 
HETATM   10  O1  UNK     1      18.966 -10.197  37.189  1.00  0.00    -0.275 OA
HETATM   11  C16 UNK     1      18.340  -8.232  35.963  1.00  0.00     0.040 A 
HETATM   12  C19 UNK     1      19.481 -10.841  38.308  1.00  0.00     0.288 A 
HETATM   13  C18 UNK     1      19.925  -9.983  39.424  1.00  0.00     0.083 A 
HETATM   14  O3  UNK     1      19.567 -12.062  38.374  1.00  0.00    -0.260 OA
HETATM   15  C15 UNK     1      18.233  -6.846  35.869  1.00  0.00     0.032 A 
ENDBRANCH   2   5
BRANCH   3  16
HETATM   16  C7  UNK     1      19.142  -2.298  36.579  1.00  0.00     0.032 A 
HETATM   17  C8  UNK     1      18.427  -1.797  37.647  1.00  0.00     0.017 A 
HETATM   18  C5  UNK     1      18.024  -0.462  37.621  1.00  0.00     0.008 A 
HETATM   19  C2  UNK     1      18.348   0.343  36.528  1.00  0.00    -0.055 A 
HETATM   20  C6  UNK     1      19.073  -0.187  35.462  1.00  0.00     0.008 A 
HETATM   21  C9  UNK     1      19.474  -1.523  35.487  1.00  0.00     0.017 A 
BRANCH  19  22
HETATM   22  C1  UNK     1      17.918   1.771  36.501  1.00  0.00     0.010 C 
HETATM   23  C3  UNK     1      16.478   1.963  37.013  1.00  0.00     0.015 C 
HETATM   24  C4  UNK     1      18.064   2.403  35.104  1.00  0.00     0.015 C 
ENDBRANCH  19  22
ENDBRANCH   3  16
TORSDOF 3
ENDMDL
MODEL 5
REMARK VINA RESULT:      -8.4     14.336     18.907
REMARK  3 active torsions:
REMARK  status: ('A' for Active; 'I' for Inactive)
REMARK    1  A    between atoms: C10_14  and  N1_4 
REMARK       I    between atoms: C12_16  and  N1_4 
REMARK    2  A    between atoms: C1_5  and  C2_6 
REMARK    3  A    between atoms: C12_16  and  C7_11 
ROOT
HETATM    1  O2  UNK     1      17.934  -2.151  15.984  1.00  0.00    -0.267 OA
HETATM    2  N1  UNK     1      19.247  -0.277  15.446  1.00  0.00    -0.323 N 
HETATM    3  C12 UNK     1      18.618  -1.503  15.200  1.00  0.00     0.256 C 
HETATM    4  H13 UNK     1      19.747   0.170  14.684  1.00  0.00     0.169 HD
ENDROOT
BRANCH   2   5
HETATM    5  C10 UNK     1      19.236   0.472  16.625  1.00  0.00     0.035 A 
HETATM    6  C13 UNK     1      19.318  -0.176  17.862  1.00  0.00     0.043 A 
HETATM    7  C11 UNK     1      19.307   0.571  19.042  1.00  0.00     0.000 A 
HETATM    8  C14 UNK     1      19.214   1.957  18.961  1.00  0.00     0.089 A 
HETATM    9  C17 UNK     1      19.391  -0.051  20.353  1.00  0.00     0.020 A 
HETATM   10  O1  UNK     1      19.199   2.745  20.130  1.00  0.00    -0.275 OA
HETATM   11  C16 UNK     1      19.131   2.616  17.736  1.00  0.00     0.040 A 
HETATM   12  C19 UNK     1      19.278   2.173  21.395  1.00  0.00     0.288 A 
HETATM   13  C18 UNK     1      19.377   0.702  21.455  1.00  0.00     0.083 A 
HETATM   14  O3  UNK     1      19.266   2.851  22.417  1.00  0.00    -0.260 OA
HETATM   15  C15 UNK     1      19.143   1.864  16.563  1.00  0.00     0.032 A 
ENDBRANCH   2   5
BRANCH   3  16
HETATM   16  C7  UNK     1      18.840  -2.070  13.844  1.00  0.00     0.032 A 
HETATM   17  C8  UNK     1      18.826  -3.440  13.685  1.00  0.00     0.017 A 
HETATM   18  C5  UNK     1      19.033  -3.973  12.413  1.00  0.00     0.008 A 
HETATM   19  C2  UNK     1      19.249  -3.123  11.328  1.00  0.00    -0.055 A 
HETATM   20  C6  UNK     1      19.257  -1.741  11.515  1.00  0.00     0.008 A 
HETATM   21  C9  UNK     1      19.051  -1.209  12.787  1.00  0.00     0.017 A 
BRANCH  19  22
HETATM   22  C1  UNK     1      19.470  -3.693   9.967  1.00  0.00     0.010 C 
HETATM   23  C3  UNK     1      18.266  -4.515   9.470  1.00  0.00     0.015 C 
HETATM   24  C4  UNK     1      20.752  -4.541   9.886  1.00  0.00     0.015 C 
ENDBRANCH  19  22
ENDBRANCH   3  16
TORSDOF 3
ENDMDL
MODEL 6
REMARK VINA RESULT:      -8.4      1.041      1.930
REMARK  3 active torsions:
REMARK  status: ('A' for Active; 'I' for Inactive)
REMARK    1  A    between atoms: C10_14  and  N1_4 
REMARK       I    between atoms: C12_16  and  N1_4 
REMARK    2  A    between atoms: C1_5  and  C2_6 
REMARK    3  A    between atoms: C12_16  and  C7_11 
ROOT
HETATM    1  O2  UNK     1      19.576   5.502  31.590  1.00  0.00    -0.267 OA
HETATM    2  N1  UNK     1      17.779   3.988  31.666  1.00  0.00    -0.323 N 
HETATM    3  C12 UNK     1      18.412   5.223  31.855  1.00  0.00     0.256 C 
HETATM    4  H13 UNK     1      16.792   3.913  31.891  1.00  0.00     0.169 HD
ENDROOT
BRANCH   2   5
HETATM    5  C10 UNK     1      18.325   2.815  31.141  1.00  0.00     0.035 A 
HETATM    6  C13 UNK     1      18.590   1.732  31.985  1.00  0.00     0.043 A 
HETATM    7  C11 UNK     1      19.136   0.557  31.462  1.00  0.00     0.000 A 
HETATM    8  C14 UNK     1      19.408   0.490  30.099  1.00  0.00     0.089 A 
HETATM    9  C17 UNK     1      19.430  -0.598  32.293  1.00  0.00     0.020 A 
HETATM   10  O1  UNK     1      19.960  -0.678  29.534  1.00  0.00    -0.275 OA
HETATM   11  C16 UNK     1      19.150   1.562  29.246  1.00  0.00     0.040 A 
HETATM   12  C19 UNK     1      20.250  -1.795  30.308  1.00  0.00     0.288 A 
HETATM   13  C18 UNK     1      19.953  -1.700  31.750  1.00  0.00     0.083 A 
HETATM   14  O3  UNK     1      20.730  -2.815  29.825  1.00  0.00    -0.260 OA
HETATM   15  C15 UNK     1      18.604   2.729  29.775  1.00  0.00     0.032 A 
ENDBRANCH   2   5
BRANCH   3  16
HETATM   16  C7  UNK     1      17.568   6.282  32.467  1.00  0.00     0.032 A 
HETATM   17  C8  UNK     1      17.398   6.290  33.835  1.00  0.00     0.017 A 
HETATM   18  C5  UNK     1      16.607   7.284  34.410  1.00  0.00     0.008 A 
HETATM   19  C2  UNK     1      16.004   8.250  33.603  1.00  0.00    -0.055 A 
HETATM   20  C6  UNK     1      16.193   8.220  32.222  1.00  0.00     0.008 A 
HETATM   21  C9  UNK     1      16.983   7.225  31.647  1.00  0.00     0.017 A 
BRANCH  19  22
HETATM   22  C1  UNK     1      15.159   9.313  34.218  1.00  0.00     0.010 C 
HETATM   23  C3  UNK     1      14.002   9.751  33.299  1.00  0.00     0.015 C 
HETATM   24  C4  UNK     1      15.979  10.544  34.647  1.00  0.00     0.015 C 
ENDBRANCH  19  22
ENDBRANCH   3  16
TORSDOF 3
ENDMDL
MODEL 7
REMARK VINA RESULT:      -8.4      7.147     12.215
REMARK  3 active torsions:
REMARK  status: ('A' for Active; 'I' for Inactive)
REMARK    1  A    between atoms: C10_14  and  N1_4 
REMARK       I    between atoms: C12_16  and  N1_4 
REMARK    2  A    between atoms: C1_5  and  C2_6 
REMARK    3  A    between atoms: C12_16  and  C7_11 
ROOT
HETATM    1  O2  UNK     1      20.793  -3.766  36.232  1.00  0.00    -0.267 OA
HETATM    2  N1  UNK     1      18.567  -3.307  36.834  1.00  0.00    -0.323 N 
HETATM    3  C12 UNK     1      19.708  -4.106  36.691  1.00  0.00     0.256 C 
HETATM    4  H13 UNK     1      17.747  -3.712  37.274  1.00  0.00     0.169 HD
ENDROOT
BRANCH   2   5
HETATM    5  C10 UNK     1      18.413  -1.962  36.492  1.00  0.00     0.035 A 
HETATM    6  C13 UNK     1      18.563  -1.561  35.160  1.00  0.00     0.043 A 
HETATM    7  C11 UNK     1      18.409  -0.216  34.816  1.00  0.00     0.000 A 
HETATM    8  C14 UNK     1      18.108   0.705  35.815  1.00  0.00     0.089 A 
HETATM    9  C17 UNK     1      18.553   0.255  33.449  1.00  0.00     0.020 A 
HETATM   10  O1  UNK     1      17.946   2.071  35.507  1.00  0.00    -0.275 OA
HETATM   11  C16 UNK     1      17.957   0.320  37.146  1.00  0.00     0.040 A 
HETATM   12  C19 UNK     1      18.079   2.545  34.207  1.00  0.00     0.288 A 
HETATM   13  C18 UNK     1      18.398   1.551  33.165  1.00  0.00     0.083 A 
HETATM   14  O3  UNK     1      17.940   3.732  33.929  1.00  0.00    -0.260 OA
HETATM   15  C15 UNK     1      18.111  -1.024  37.481  1.00  0.00     0.032 A 
ENDBRANCH   2   5
BRANCH   3  16
HETATM   16  C7  UNK     1      19.552  -5.519  37.123  1.00  0.00     0.032 A 
HETATM   17  C8  UNK     1      18.835  -6.385  36.323  1.00  0.00     0.017 A 
HETATM   18  C5  UNK     1      18.689  -7.712  36.728  1.00  0.00     0.008 A 
HETATM   19  C2  UNK     1      19.264  -8.143  37.924  1.00  0.00    -0.055 A 
HETATM   20  C6  UNK     1      19.984  -7.248  38.715  1.00  0.00     0.008 A 
HETATM   21  C9  UNK     1      20.129  -5.921  38.310  1.00  0.00     0.017 A 
BRANCH  19  22
HETATM   22  C1  UNK     1      19.108  -9.562  38.357  1.00  0.00     0.010 C 
HETATM   23  C3  UNK     1      19.990  -9.907  39.572  1.00  0.00     0.015 C 
HETATM   24  C4  UNK     1      19.377 -10.559  37.215  1.00  0.00     0.015 C 
ENDBRANCH  19  22
ENDBRANCH   3  16
TORSDOF 3
ENDMDL
MODEL 8
REMARK VINA RESULT:      -8.4      3.061      9.114
REMARK  3 active torsions:
REMARK  status: ('A' for Active; 'I' for Inactive)
REMARK    1  A    between atoms: C10_14  and  N1_4 
REMARK       I    between atoms: C12_16  and  N1_4 
REMARK    2  A    between atoms: C1_5  and  C2_6 
REMARK    3  A    between atoms: C12_16  and  C7_11 
ROOT
HETATM    1  O2  UNK     1      17.920   3.703  32.318  1.00  0.00    -0.267 OA
HETATM    2  N1  UNK     1      18.282   4.695  34.419  1.00  0.00    -0.323 N 
HETATM    3  C12 UNK     1      18.159   3.630  33.518  1.00  0.00     0.256 C 
HETATM    4  H13 UNK     1      18.528   4.487  35.381  1.00  0.00     0.169 HD
ENDROOT
BRANCH   2   5
HETATM    5  C10 UNK     1      18.162   6.061  34.154  1.00  0.00     0.035 A 
HETATM    6  C13 UNK     1      19.201   6.931  34.499  1.00  0.00     0.043 A 
HETATM    7  C11 UNK     1      19.084   8.298  34.235  1.00  0.00     0.000 A 
HETATM    8  C14 UNK     1      17.922   8.768  33.629  1.00  0.00     0.089 A 
HETATM    9  C17 UNK     1      20.133   9.245  34.570  1.00  0.00     0.020 A 
HETATM   10  O1  UNK     1      17.766  10.141  33.348  1.00  0.00    -0.275 OA
HETATM   11  C16 UNK     1      16.878   7.913  33.281  1.00  0.00     0.040 A 
HETATM   12  C19 UNK     1      18.755  11.066  33.660  1.00  0.00     0.288 A 
HETATM   13  C18 UNK     1      19.977  10.543  34.301  1.00  0.00     0.083 A 
HETATM   14  O3  UNK     1      18.628  12.262  33.418  1.00  0.00    -0.260 OA
HETATM   15  C15 UNK     1      17.004   6.552  33.547  1.00  0.00     0.032 A 
ENDBRANCH   2   5
BRANCH   3  16
HETATM   16  C7  UNK     1      18.314   2.276  34.111  1.00  0.00     0.032 A 
HETATM   17  C8  UNK     1      18.252   1.175  33.282  1.00  0.00     0.017 A 
HETATM   18  C5  UNK     1      18.398  -0.096  33.837  1.00  0.00     0.008 A 
HETATM   19  C2  UNK     1      18.603  -0.237  35.210  1.00  0.00    -0.055 A 
HETATM   20  C6  UNK     1      18.663   0.891  36.027  1.00  0.00     0.008 A 
HETATM   21  C9  UNK     1      18.516   2.162  35.471  1.00  0.00     0.017 A 
BRANCH  19  22
HETATM   22  C1  UNK     1      18.760  -1.597  35.804  1.00  0.00     0.010 C 
HETATM   23  C3  UNK     1      18.289  -1.656  37.269  1.00  0.00     0.015 C 
HETATM   24  C4  UNK     1      20.203  -2.124  35.697  1.00  0.00     0.015 C 
ENDBRANCH  19  22
ENDBRANCH   3  16
TORSDOF 3
ENDMDL
MODEL 9
REMARK VINA RESULT:      -8.3      2.351      9.114
REMARK  3 active torsions:
REMARK  status: ('A' for Active; 'I' for Inactive)
REMARK    1  A    between atoms: C10_14  and  N1_4 
REMARK       I    between atoms: C12_16  and  N1_4 
REMARK    2  A    between atoms: C1_5  and  C2_6 
REMARK    3  A    between atoms: C12_16  and  C7_11 
ROOT
HETATM    1  O2  UNK     1      18.603   4.186  29.803  1.00  0.00    -0.267 OA
HETATM    2  N1  UNK     1      18.429   4.263  32.146  1.00  0.00    -0.323 N 
HETATM    3  C12 UNK     1      18.655   3.653  30.906  1.00  0.00     0.256 C 
HETATM    4  H13 UNK     1      18.551   3.706  32.986  1.00  0.00     0.169 HD
ENDROOT
BRANCH   2   5
HETATM    5  C10 UNK     1      18.101   5.596  32.400  1.00  0.00     0.035 A 
HETATM    6  C13 UNK     1      19.002   6.416  33.087  1.00  0.00     0.043 A 
HETATM    7  C11 UNK     1      18.676   7.750  33.342  1.00  0.00     0.000 A 
HETATM    8  C14 UNK     1      17.448   8.238  32.904  1.00  0.00     0.089 A 
HETATM    9  C17 UNK     1      19.575   8.646  34.049  1.00  0.00     0.020 A 
HETATM   10  O1  UNK     1      17.082   9.579  33.144  1.00  0.00    -0.275 OA
HETATM   11  C16 UNK     1      16.540   7.432  32.220  1.00  0.00     0.040 A 
HETATM   12  C19 UNK     1      17.926  10.455  33.818  1.00  0.00     0.288 A 
HETATM   13  C18 UNK     1      19.221   9.914  34.272  1.00  0.00     0.083 A 
HETATM   14  O3  UNK     1      17.616  11.622  34.030  1.00  0.00    -0.260 OA
HETATM   15  C15 UNK     1      16.873   6.103  31.969  1.00  0.00     0.032 A 
ENDBRANCH   2   5
BRANCH   3  16
HETATM   16  C7  UNK     1      18.961   2.200  30.958  1.00  0.00     0.032 A 
HETATM   17  C8  UNK     1      18.772   1.522  32.145  1.00  0.00     0.017 A 
HETATM   18  C5  UNK     1      19.059   0.158  32.195  1.00  0.00     0.008 A 
HETATM   19  C2  UNK     1      19.528  -0.498  31.056  1.00  0.00    -0.055 A 
HETATM   20  C6  UNK     1      19.711   0.210  29.869  1.00  0.00     0.008 A 
HETATM   21  C9  UNK     1      19.424   1.574  29.819  1.00  0.00     0.017 A 
BRANCH  19  22
HETATM   22  C1  UNK     1      19.835  -1.956  31.109  1.00  0.00     0.010 C 
HETATM   23  C3  UNK     1      20.652  -2.341  32.357  1.00  0.00     0.015 C 
HETATM   24  C4  UNK     1      20.553  -2.454  29.841  1.00  0.00     0.015 C 
ENDBRANCH  19  22
ENDBRANCH   3  16
TORSDOF 3
ENDMDL
MODEL 10
REMARK VINA RESULT:      -8.3      6.206     11.284
REMARK  3 active torsions:
REMARK  status: ('A' for Active; 'I' for Inactive)
REMARK    1  A    between atoms: C10_14  and  N1_4 
REMARK       I    between atoms: C12_16  and  N1_4 
REMARK    2  A    between atoms: C1_5  and  C2_6 
REMARK    3  A    between atoms: C12_16  and  C7_11 
ROOT
HETATM    1  O2  UNK     1      21.380  -2.583  35.742  1.00  0.00    -0.267 OA
HETATM    2  N1  UNK     1      19.046  -2.503  35.478  1.00  0.00    -0.323 N 
HETATM    3  C12 UNK     1      20.257  -3.033  35.939  1.00  0.00     0.256 C 
HETATM    4  H13 UNK     1      18.183  -2.958  35.758  1.00  0.00     0.169 HD
ENDROOT
BRANCH   2   5
HETATM    5  C10 UNK     1      18.849  -1.359  34.701  1.00  0.00     0.035 A 
HETATM    6  C13 UNK     1      18.683  -0.117  35.322  1.00  0.00     0.043 A 
HETATM    7  C11 UNK     1      18.487   1.029  34.547  1.00  0.00     0.000 A 
HETATM    8  C14 UNK     1      18.460   0.908  33.161  1.00  0.00     0.089 A 
HETATM    9  C17 UNK     1      18.310   2.344  35.139  1.00  0.00     0.020 A 
HETATM   10  O1  UNK     1      18.264   2.041  32.345  1.00  0.00    -0.275 OA
HETATM   11  C16 UNK     1      18.624  -0.324  32.529  1.00  0.00     0.040 A 
HETATM   12  C19 UNK     1      18.092   3.309  32.888  1.00  0.00     0.288 A 
HETATM   13  C18 UNK     1      18.124   3.412  34.360  1.00  0.00     0.083 A 
HETATM   14  O3  UNK     1      17.921   4.299  32.186  1.00  0.00    -0.260 OA
HETATM   15  C15 UNK     1      18.820  -1.462  33.309  1.00  0.00     0.032 A 
ENDBRANCH   2   5
BRANCH   3  16
HETATM   16  C7  UNK     1      20.143  -4.288  36.727  1.00  0.00     0.032 A 
HETATM   17  C8  UNK     1      19.089  -5.140  36.471  1.00  0.00     0.017 A 
HETATM   18  C5  UNK     1      18.981  -6.318  37.210  1.00  0.00     0.008 A 
HETATM   19  C2  UNK     1      19.931  -6.618  38.187  1.00  0.00    -0.055 A 
HETATM   20  C6  UNK     1      20.987  -5.740  38.426  1.00  0.00     0.008 A 
HETATM   21  C9  UNK     1      21.094  -4.561  37.688  1.00  0.00     0.017 A 
BRANCH  19  22
HETATM   22  C1  UNK     1      19.816  -7.878  38.977  1.00  0.00     0.010 C 
HETATM   23  C3  UNK     1      21.186  -8.411  39.439  1.00  0.00     0.015 C 
HETATM   24  C4  UNK     1      19.056  -8.982  38.218  1.00  0.00     0.015 C 
ENDBRANCH  19  22
ENDBRANCH   3  16
TORSDOF 3
ENDMDL
