MODEL 1
REMARK VINA RESULT:      -6.6      0.000      0.000
REMARK  0 active torsions:
REMARK  status: ('A' for Active; 'I' for Inactive)
ROOT
HETATM    1  O1  UNK     1      18.899   1.149  17.147  1.00  0.00    -0.322 OA
HETATM    2  O2  UNK     1      20.456   4.538  18.801  1.00  0.00    -0.287 OA
HETATM    3  C1  UNK     1      19.672   2.328  19.127  1.00  0.00     0.048 A 
HETATM    4  C2  UNK     1      19.140   1.201  18.498  1.00  0.00     0.089 A 
HETATM    5  C3  UNK     1      19.897   2.326  20.506  1.00  0.00     0.018 A 
HETATM    6  C4  UNK     1      19.990   3.517  18.314  1.00  0.00     0.186 A 
HETATM    7  C5  UNK     1      18.832   0.064  19.246  1.00  0.00     0.038 A 
HETATM    8  C6  UNK     1      19.587   1.188  21.251  1.00  0.00     0.001 A 
HETATM    9  C7  UNK     1      19.056   0.059  20.623  1.00  0.00     0.003 A 
HETATM   10  C8  UNK     1      19.711   3.409  16.870  1.00  0.00     0.080 A 
HETATM   11  C9  UNK     1      19.201   2.265  16.406  1.00  0.00     0.146 A 
ENDROOT
TORSDOF 0
ENDMDL
MODEL 2
REMARK VINA RESULT:      -6.4     10.024     11.671
REMARK  0 active torsions:
REMARK  status: ('A' for Active; 'I' for Inactive)
ROOT
HETATM    1  O1  UNK     1      18.908   1.319  31.932  1.00  0.00    -0.322 OA
HETATM    2  O2  UNK     1      18.023   2.425  28.105  1.00  0.00    -0.287 OA
HETATM    3  C1  UNK     1      19.021   0.839  29.551  1.00  0.00     0.048 A 
HETATM    4  C2  UNK     1      19.293   0.520  30.883  1.00  0.00     0.089 A 
HETATM    5  C3  UNK     1      19.437  -0.012  28.523  1.00  0.00     0.018 A 
HETATM    6  C4  UNK     1      18.292   2.084  29.249  1.00  0.00     0.186 A 
HETATM    7  C5  UNK     1      19.981  -0.654  31.194  1.00  0.00     0.038 A 
HETATM    8  C6  UNK     1      20.125  -1.184  28.837  1.00  0.00     0.001 A 
HETATM    9  C7  UNK     1      20.396  -1.505  30.169  1.00  0.00     0.003 A 
HETATM   10  C8  UNK     1      17.903   2.906  30.410  1.00  0.00     0.080 A 
HETATM   11  C9  UNK     1      18.229   2.475  31.631  1.00  0.00     0.146 A 
ENDROOT
TORSDOF 0
ENDMDL
MODEL 3
REMARK VINA RESULT:      -6.3      1.252      4.198
REMARK  0 active torsions:
REMARK  status: ('A' for Active; 'I' for Inactive)
ROOT
HETATM    1  O1  UNK     1      19.792   2.697  20.598  1.00  0.00    -0.322 OA
HETATM    2  O2  UNK     1      18.715  -0.906  19.015  1.00  0.00    -0.287 OA
HETATM    3  C1  UNK     1      19.259   1.366  18.634  1.00  0.00     0.048 A 
HETATM    4  C2  UNK     1      19.626   2.569  19.240  1.00  0.00     0.089 A 
HETATM    5  C3  UNK     1      19.105   1.293  17.248  1.00  0.00     0.018 A 
HETATM    6  C4  UNK     1      19.039   0.178  19.480  1.00  0.00     0.186 A 
HETATM    7  C5  UNK     1      19.841   3.706  18.461  1.00  0.00     0.038 A 
HETATM    8  C6  UNK     1      19.320   2.432  16.472  1.00  0.00     0.001 A 
HETATM    9  C7  UNK     1      19.688   3.636  17.076  1.00  0.00     0.003 A 
HETATM   10  C8  UNK     1      19.229   0.370  20.930  1.00  0.00     0.080 A 
HETATM   11  C9  UNK     1      19.582   1.580  21.370  1.00  0.00     0.146 A 
ENDROOT
TORSDOF 0
ENDMDL
MODEL 4
REMARK VINA RESULT:      -6.2      0.823      2.454
REMARK  0 active torsions:
REMARK  status: ('A' for Active; 'I' for Inactive)
ROOT
HETATM    1  O1  UNK     1      20.492   3.625  19.569  1.00  0.00    -0.322 OA
HETATM    2  O2  UNK     1      18.703   1.976  16.294  1.00  0.00    -0.287 OA
HETATM    3  C1  UNK     1      19.278   1.765  18.581  1.00  0.00     0.048 A 
HETATM    4  C2  UNK     1      19.907   2.386  19.662  1.00  0.00     0.089 A 
HETATM    5  C3  UNK     1      18.698   0.503  18.732  1.00  0.00     0.018 A 
HETATM    6  C4  UNK     1      19.236   2.462  17.282  1.00  0.00     0.186 A 
HETATM    7  C5  UNK     1      19.958   1.746  20.901  1.00  0.00     0.038 A 
HETATM    8  C6  UNK     1      18.752  -0.134  19.972  1.00  0.00     0.001 A 
HETATM    9  C7  UNK     1      19.380   0.486  21.054  1.00  0.00     0.003 A 
HETATM   10  C8  UNK     1      19.880   3.788  17.236  1.00  0.00     0.080 A 
HETATM   11  C9  UNK     1      20.444   4.259  18.351  1.00  0.00     0.146 A 
ENDROOT
TORSDOF 0
ENDMDL
MODEL 5
REMARK VINA RESULT:      -6.1     10.368     11.795
REMARK  0 active torsions:
REMARK  status: ('A' for Active; 'I' for Inactive)
ROOT
HETATM    1  O1  UNK     1      19.039   1.446  28.573  1.00  0.00    -0.322 OA
HETATM    2  O2  UNK     1      18.414   1.605  32.602  1.00  0.00    -0.287 OA
HETATM    3  C1  UNK     1      19.269   0.397  30.754  1.00  0.00     0.048 A 
HETATM    4  C2  UNK     1      19.451   0.406  29.370  1.00  0.00     0.089 A 
HETATM    5  C3  UNK     1      19.708  -0.689  31.516  1.00  0.00     0.018 A 
HETATM    6  C4  UNK     1      18.607   1.548  31.395  1.00  0.00     0.186 A 
HETATM    7  C5  UNK     1      20.075  -0.672  28.741  1.00  0.00     0.038 A 
HETATM    8  C6  UNK     1      20.331  -1.765  30.884  1.00  0.00     0.001 A 
HETATM    9  C7  UNK     1      20.515  -1.757  29.500  1.00  0.00     0.003 A 
HETATM   10  C8  UNK     1      18.184   2.637  30.494  1.00  0.00     0.080 A 
HETATM   11  C9  UNK     1      18.425   2.510  29.188  1.00  0.00     0.146 A 
ENDROOT
TORSDOF 0
ENDMDL
MODEL 6
REMARK VINA RESULT:      -6.1     10.002     11.641
REMARK  0 active torsions:
REMARK  status: ('A' for Active; 'I' for Inactive)
ROOT
HETATM    1  O1  UNK     1      20.256  -0.001  31.385  1.00  0.00    -0.322 OA
HETATM    2  O2  UNK     1      19.380  -0.899  27.502  1.00  0.00    -0.287 OA
HETATM    3  C1  UNK     1      19.131   0.602  29.316  1.00  0.00     0.048 A 
HETATM    4  C2  UNK     1      19.469   0.849  30.648  1.00  0.00     0.089 A 
HETATM    5  C3  UNK     1      18.327   1.503  28.613  1.00  0.00     0.018 A 
HETATM    6  C4  UNK     1      19.637  -0.621  28.665  1.00  0.00     0.186 A 
HETATM    7  C5  UNK     1      19.002   2.000  31.284  1.00  0.00     0.038 A 
HETATM    8  C6  UNK     1      17.861   2.652  29.252  1.00  0.00     0.001 A 
HETATM    9  C7  UNK     1      18.198   2.901  30.584  1.00  0.00     0.003 A 
HETATM   10  C8  UNK     1      20.477  -1.500  29.501  1.00  0.00     0.080 A 
HETATM   11  C9  UNK     1      20.718  -1.135  30.763  1.00  0.00     0.146 A 
ENDROOT
TORSDOF 0
ENDMDL
MODEL 7
REMARK VINA RESULT:      -5.8     10.145     11.712
REMARK  0 active torsions:
REMARK  status: ('A' for Active; 'I' for Inactive)
ROOT
HETATM    1  O1  UNK     1      19.260   0.185  28.157  1.00  0.00    -0.322 OA
HETATM    2  O2  UNK     1      20.562  -0.833  31.887  1.00  0.00    -0.287 OA
HETATM    3  C1  UNK     1      19.383   0.705  30.529  1.00  0.00     0.048 A 
HETATM    4  C2  UNK     1      18.968   0.995  29.227  1.00  0.00     0.089 A 
HETATM    5  C3  UNK     1      19.057   1.565  31.581  1.00  0.00     0.018 A 
HETATM    6  C4  UNK     1      20.167  -0.520  30.773  1.00  0.00     0.186 A 
HETATM    7  C5  UNK     1      18.225   2.148  28.972  1.00  0.00     0.038 A 
HETATM    8  C6  UNK     1      18.315   2.717  31.322  1.00  0.00     0.001 A 
HETATM    9  C7  UNK     1      17.899   3.008  30.021  1.00  0.00     0.003 A 
HETATM   10  C8  UNK     1      20.453  -1.353  29.590  1.00  0.00     0.080 A 
HETATM   11  C9  UNK     1      19.991  -0.951  28.403  1.00  0.00     0.146 A 
ENDROOT
TORSDOF 0
ENDMDL
MODEL 8
REMARK VINA RESULT:      -5.8     12.778     14.620
REMARK  0 active torsions:
REMARK  status: ('A' for Active; 'I' for Inactive)
ROOT
HETATM    1  O1  UNK     1      18.659   7.425  33.907  1.00  0.00    -0.322 OA
HETATM    2  O2  UNK     1      16.022   8.160  30.881  1.00  0.00    -0.287 OA
HETATM    3  C1  UNK     1      18.045   7.142  31.571  1.00  0.00     0.048 A 
HETATM    4  C2  UNK     1      18.905   6.928  32.650  1.00  0.00     0.089 A 
HETATM    5  C3  UNK     1      18.345   6.612  30.314  1.00  0.00     0.018 A 
HETATM    6  C4  UNK     1      16.818   7.933  31.781  1.00  0.00     0.186 A 
HETATM    7  C5  UNK     1      20.071   6.182  32.476  1.00  0.00     0.038 A 
HETATM    8  C6  UNK     1      19.512   5.867  30.143  1.00  0.00     0.001 A 
HETATM    9  C7  UNK     1      20.373   5.652  31.221  1.00  0.00     0.003 A 
HETATM   10  C8  UNK     1      16.602   8.444  33.148  1.00  0.00     0.080 A 
HETATM   11  C9  UNK     1      17.511   8.160  34.083  1.00  0.00     0.146 A 
ENDROOT
TORSDOF 0
ENDMDL
MODEL 9
REMARK VINA RESULT:      -5.7     12.754     14.718
REMARK  0 active torsions:
REMARK  status: ('A' for Active; 'I' for Inactive)
ROOT
HETATM    1  O1  UNK     1      12.503   6.674   6.320  1.00  0.00    -0.322 OA
HETATM    2  O2  UNK     1      12.112   5.938  10.314  1.00  0.00    -0.287 OA
HETATM    3  C1  UNK     1      11.055   6.181   8.209  1.00  0.00     0.048 A 
HETATM    4  C2  UNK     1      11.259   6.440   6.853  1.00  0.00     0.089 A 
HETATM    5  C3  UNK     1       9.766   5.950   8.697  1.00  0.00     0.018 A 
HETATM    6  C4  UNK     1      12.218   6.157   9.115  1.00  0.00     0.186 A 
HETATM    7  C5  UNK     1      10.173   6.467   5.976  1.00  0.00     0.038 A 
HETATM    8  C6  UNK     1       8.683   5.979   7.819  1.00  0.00     0.001 A 
HETATM    9  C7  UNK     1       8.885   6.236   6.461  1.00  0.00     0.003 A 
HETATM   10  C8  UNK     1      13.531   6.415   8.492  1.00  0.00     0.080 A 
HETATM   11  C9  UNK     1      13.575   6.647   7.178  1.00  0.00     0.146 A 
ENDROOT
TORSDOF 0
ENDMDL
MODEL 10
REMARK VINA RESULT:      -5.7     11.496     13.664
REMARK  0 active torsions:
REMARK  status: ('A' for Active; 'I' for Inactive)
ROOT
HETATM    1  O1  UNK     1      18.693   0.040  32.659  1.00  0.00    -0.322 OA
HETATM    2  O2  UNK     1      21.120  -3.233  32.444  1.00  0.00    -0.287 OA
HETATM    3  C1  UNK     1      20.202  -1.345  31.349  1.00  0.00     0.048 A 
HETATM    4  C2  UNK     1      19.357  -0.243  31.490  1.00  0.00     0.089 A 
HETATM    5  C3  UNK     1      20.854  -1.585  30.136  1.00  0.00     0.018 A 
HETATM    6  C4  UNK     1      20.395  -2.249  32.498  1.00  0.00     0.186 A 
HETATM    7  C5  UNK     1      19.160   0.627  30.417  1.00  0.00     0.038 A 
HETATM    8  C6  UNK     1      20.653  -0.713  29.066  1.00  0.00     0.001 A 
HETATM    9  C7  UNK     1      19.809   0.390  29.205  1.00  0.00     0.003 A 
HETATM   10  C8  UNK     1      19.659  -1.902  33.728  1.00  0.00     0.080 A 
HETATM   11  C9  UNK     1      18.885  -0.814  33.718  1.00  0.00     0.146 A 
ENDROOT
TORSDOF 0
ENDMDL
