MODEL 1
REMARK VINA RESULT:      -9.1      0.000      0.000
REMARK  6 active torsions:
REMARK  status: ('A' for Active; 'I' for Inactive)
REMARK    1  A    between atoms: C15_20  and  O4_4 
REMARK    2  A    between atoms: C6_11  and  N1_5 
REMARK       I    between atoms: C8_13  and  N1_5 
REMARK    3  A    between atoms: C1_6  and  C4_9 
REMARK    4  A    between atoms: C4_9  and  C8_13 
REMARK    5  A    between atoms: C6_11  and  C7_12 
REMARK    6  A    between atoms: C12_17  and  C7_12 
ROOT
HETATM    1  O1  UNK     1      15.929   8.398  31.338  1.00  0.00    -0.274 OA
HETATM    2  O3  UNK     1      17.371   7.126  30.132  1.00  0.00    -0.259 OA
HETATM    3  C1  UNK     1      17.870   7.374  32.448  1.00  0.00     0.033 A 
HETATM    4  C2  UNK     1      17.533   7.941  33.626  1.00  0.00    -0.036 A 
HETATM    5  C3  UNK     1      16.308   8.762  33.713  1.00  0.00     0.005 A 
HETATM    6  C5  UNK     1      15.549   8.963  32.564  1.00  0.00     0.092 A 
HETATM    7  C9  UNK     1      17.059   7.605  31.217  1.00  0.00     0.295 A 
HETATM    8  C10 UNK     1      18.352   7.801  34.886  1.00  0.00     0.050 C 
HETATM    9  C11 UNK     1      15.843   9.355  34.899  1.00  0.00     0.017 A 
HETATM   10  C13 UNK     1      14.378   9.726  32.560  1.00  0.00     0.074 A 
HETATM   11  C14 UNK     1      14.672  10.121  34.913  1.00  0.00     0.037 A 
HETATM   12  C15 UNK     1      13.940  10.308  33.744  1.00  0.00     0.068 A 
ENDROOT
BRANCH   3  13
HETATM   13  C4  UNK     1      19.053   6.465  32.234  1.00  0.00     0.148 C 
BRANCH  13  14
HETATM   14  C8  UNK     1      18.597   5.036  32.404  1.00  0.00     0.222 C 
HETATM   15  O2  UNK     1      18.302   4.565  33.501  1.00  0.00    -0.273 OA
HETATM   16  N1  UNK     1      18.572   4.343  31.206  1.00  0.00    -0.360 N 
HETATM   17  H10 UNK     1      18.794   4.831  30.342  1.00  0.00     0.162 HD
BRANCH  16  18
HETATM   18  C6  UNK     1      18.187   2.953  31.107  1.00  0.00     0.127 C 
BRANCH  18  19
HETATM   19  C7  UNK     1      18.338   2.402  29.691  1.00  0.00     0.058 C 
BRANCH  19  20
HETATM   20  C12 UNK     1      19.095   1.097  29.646  1.00  0.00    -0.057 A 
HETATM   21  C16 UNK     1      19.793   0.677  30.768  1.00  0.00     0.007 A 
HETATM   22  C18 UNK     1      20.492  -0.530  30.726  1.00  0.00     0.001 A 
HETATM   23  C20 UNK     1      20.486  -1.300  29.563  1.00  0.00     0.000 A 
HETATM   24  C19 UNK     1      19.780  -0.864  28.442  1.00  0.00     0.001 A 
HETATM   25  C17 UNK     1      19.080   0.341  28.484  1.00  0.00     0.007 A 
ENDBRANCH  19  20
ENDBRANCH  18  19
ENDBRANCH  16  18
ENDBRANCH  13  14
ENDBRANCH   3  13
BRANCH  12  26
HETATM   26  O4  UNK     1      12.803  11.053  33.760  1.00  0.00    -0.361 OA
HETATM   27  H19 UNK     1      12.676  11.414  34.655  1.00  0.00     0.217 HD
ENDBRANCH  12  26
TORSDOF 6
ENDMDL
MODEL 2
REMARK VINA RESULT:      -8.9      2.579      9.093
REMARK  6 active torsions:
REMARK  status: ('A' for Active; 'I' for Inactive)
REMARK    1  A    between atoms: C15_20  and  O4_4 
REMARK    2  A    between atoms: C6_11  and  N1_5 
REMARK       I    between atoms: C8_13  and  N1_5 
REMARK    3  A    between atoms: C1_6  and  C4_9 
REMARK    4  A    between atoms: C4_9  and  C8_13 
REMARK    5  A    between atoms: C6_11  and  C7_12 
REMARK    6  A    between atoms: C12_17  and  C7_12 
ROOT
HETATM    1  O1  UNK     1      18.995   0.495  32.612  1.00  0.00    -0.274 OA
HETATM    2  O3  UNK     1      18.093   2.161  33.863  1.00  0.00    -0.259 OA
HETATM    3  C1  UNK     1      18.260   2.573  31.522  1.00  0.00     0.033 A 
HETATM    4  C2  UNK     1      18.671   2.122  30.318  1.00  0.00    -0.036 A 
HETATM    5  C3  UNK     1      19.250   0.767  30.209  1.00  0.00     0.005 A 
HETATM    6  C5  UNK     1      19.393   0.001  31.362  1.00  0.00     0.092 A 
HETATM    7  C9  UNK     1      18.429   1.752  32.757  1.00  0.00     0.295 A 
HETATM    8  C10 UNK     1      18.590   2.934  29.048  1.00  0.00     0.050 C 
HETATM    9  C11 UNK     1      19.663   0.185  28.999  1.00  0.00     0.017 A 
HETATM   10  C13 UNK     1      19.932  -1.289  31.346  1.00  0.00     0.074 A 
HETATM   11  C14 UNK     1      20.203  -1.106  28.965  1.00  0.00     0.037 A 
HETATM   12  C15 UNK     1      20.340  -1.842  30.138  1.00  0.00     0.068 A 
ENDROOT
BRANCH   3  13
HETATM   13  C4  UNK     1      17.597   3.904  31.764  1.00  0.00     0.148 C 
BRANCH  13  14
HETATM   14  C8  UNK     1      18.656   4.902  32.167  1.00  0.00     0.222 C 
HETATM   15  O2  UNK     1      19.523   5.292  31.387  1.00  0.00    -0.273 OA
HETATM   16  N1  UNK     1      18.538   5.295  33.490  1.00  0.00    -0.360 N 
HETATM   17  H10 UNK     1      17.761   4.948  34.045  1.00  0.00     0.162 HD
BRANCH  16  18
HETATM   18  C6  UNK     1      19.444   6.229  34.118  1.00  0.00     0.127 C 
BRANCH  18  19
HETATM   19  C7  UNK     1      18.809   7.599  34.345  1.00  0.00     0.058 C 
BRANCH  19  20
HETATM   20  C12 UNK     1      17.412   7.701  33.781  1.00  0.00    -0.057 A 
HETATM   21  C16 UNK     1      16.331   7.359  34.580  1.00  0.00     0.007 A 
HETATM   22  C18 UNK     1      15.039   7.453  34.059  1.00  0.00     0.001 A 
HETATM   23  C20 UNK     1      14.847   7.887  32.747  1.00  0.00     0.000 A 
HETATM   24  C19 UNK     1      15.943   8.226  31.956  1.00  0.00     0.001 A 
HETATM   25  C17 UNK     1      17.234   8.133  32.477  1.00  0.00     0.007 A 
ENDBRANCH  19  20
ENDBRANCH  18  19
ENDBRANCH  16  18
ENDBRANCH  13  14
ENDBRANCH   3  13
BRANCH  12  26
HETATM   26  O4  UNK     1      20.865  -3.096  30.103  1.00  0.00    -0.361 OA
HETATM   27  H19 UNK     1      21.303  -3.229  29.244  1.00  0.00     0.217 HD
ENDBRANCH  12  26
TORSDOF 6
ENDMDL
MODEL 3
REMARK VINA RESULT:      -8.7     17.625     19.407
REMARK  6 active torsions:
REMARK  status: ('A' for Active; 'I' for Inactive)
REMARK    1  A    between atoms: C15_20  and  O4_4 
REMARK    2  A    between atoms: C6_11  and  N1_5 
REMARK       I    between atoms: C8_13  and  N1_5 
REMARK    3  A    between atoms: C1_6  and  C4_9 
REMARK    4  A    between atoms: C4_9  and  C8_13 
REMARK    5  A    between atoms: C6_11  and  C7_12 
REMARK    6  A    between atoms: C12_17  and  C7_12 
ROOT
HETATM    1  O1  UNK     1      28.557  -5.887  39.583  1.00  0.00    -0.274 OA
HETATM    2  O3  UNK     1      29.633  -3.908  39.859  1.00  0.00    -0.259 OA
HETATM    3  C1  UNK     1      29.788  -4.899  37.698  1.00  0.00     0.033 A 
HETATM    4  C2  UNK     1      29.482  -5.949  36.908  1.00  0.00    -0.036 A 
HETATM    5  C3  UNK     1      28.634  -7.036  37.440  1.00  0.00     0.005 A 
HETATM    6  C5  UNK     1      28.202  -6.967  38.761  1.00  0.00     0.092 A 
HETATM    7  C9  UNK     1      29.333  -4.838  39.118  1.00  0.00     0.295 A 
HETATM    8  C10 UNK     1      29.972  -6.099  35.488  1.00  0.00     0.050 C 
HETATM    9  C11 UNK     1      28.218  -8.147  36.688  1.00  0.00     0.017 A 
HETATM   10  C13 UNK     1      27.398  -7.952  39.342  1.00  0.00     0.074 A 
HETATM   11  C14 UNK     1      27.412  -9.142  37.253  1.00  0.00     0.037 A 
HETATM   12  C15 UNK     1      27.004  -9.046  38.581  1.00  0.00     0.068 A 
ENDROOT
BRANCH   3  13
HETATM   13  C4  UNK     1      30.588  -3.697  37.265  1.00  0.00     0.148 C 
BRANCH  13  14
HETATM   14  C8  UNK     1      32.012  -4.134  37.012  1.00  0.00     0.222 C 
HETATM   15  O2  UNK     1      32.679  -3.694  36.077  1.00  0.00    -0.273 OA
HETATM   16  N1  UNK     1      32.447  -5.077  37.928  1.00  0.00    -0.360 N 
HETATM   17  H10 UNK     1      31.834  -5.349  38.692  1.00  0.00     0.162 HD
BRANCH  16  18
HETATM   18  C6  UNK     1      33.766  -5.664  37.888  1.00  0.00     0.127 C 
BRANCH  18  19
HETATM   19  C7  UNK     1      33.895  -6.748  36.820  1.00  0.00     0.058 C 
BRANCH  19  20
HETATM   20  C12 UNK     1      32.919  -7.883  37.013  1.00  0.00    -0.057 A 
HETATM   21  C16 UNK     1      32.636  -8.724  35.948  1.00  0.00     0.007 A 
HETATM   22  C18 UNK     1      31.734  -9.775  36.127  1.00  0.00     0.001 A 
HETATM   23  C20 UNK     1      31.128  -9.969  37.368  1.00  0.00     0.000 A 
HETATM   24  C19 UNK     1      31.422  -9.114  38.430  1.00  0.00     0.001 A 
HETATM   25  C17 UNK     1      32.324  -8.065  38.252  1.00  0.00     0.007 A 
ENDBRANCH  19  20
ENDBRANCH  18  19
ENDBRANCH  16  18
ENDBRANCH  13  14
ENDBRANCH   3  13
BRANCH  12  26
HETATM   26  O4  UNK     1      26.221 -10.014  39.128  1.00  0.00    -0.361 OA
HETATM   27  H19 UNK     1      26.785 -10.760  39.397  1.00  0.00     0.217 HD
ENDBRANCH  12  26
TORSDOF 6
ENDMDL
MODEL 4
REMARK VINA RESULT:      -8.3      2.771      8.974
REMARK  6 active torsions:
REMARK  status: ('A' for Active; 'I' for Inactive)
REMARK    1  A    between atoms: C15_20  and  O4_4 
REMARK    2  A    between atoms: C6_11  and  N1_5 
REMARK       I    between atoms: C8_13  and  N1_5 
REMARK    3  A    between atoms: C1_6  and  C4_9 
REMARK    4  A    between atoms: C4_9  and  C8_13 
REMARK    5  A    between atoms: C6_11  and  C7_12 
REMARK    6  A    between atoms: C12_17  and  C7_12 
ROOT
HETATM    1  O1  UNK     1      19.218   1.046  28.990  1.00  0.00    -0.274 OA
HETATM    2  O3  UNK     1      18.367   3.094  28.509  1.00  0.00    -0.259 OA
HETATM    3  C1  UNK     1      18.373   2.469  30.808  1.00  0.00     0.033 A 
HETATM    4  C2  UNK     1      18.648   1.516  31.723  1.00  0.00    -0.036 A 
HETATM    5  C3  UNK     1      19.280   0.253  31.289  1.00  0.00     0.005 A 
HETATM    6  C5  UNK     1      19.542   0.062  29.935  1.00  0.00     0.092 A 
HETATM    7  C9  UNK     1      18.643   2.252  29.357  1.00  0.00     0.295 A 
HETATM    8  C10 UNK     1      18.332   1.651  33.193  1.00  0.00     0.050 C 
HETATM    9  C11 UNK     1      19.651  -0.781  32.165  1.00  0.00     0.017 A 
HETATM   10  C13 UNK     1      20.136  -1.103  29.441  1.00  0.00     0.074 A 
HETATM   11  C14 UNK     1      20.248  -1.953  31.687  1.00  0.00     0.037 A 
HETATM   12  C15 UNK     1      20.489  -2.116  30.326  1.00  0.00     0.068 A 
ENDROOT
BRANCH   3  13
HETATM   13  C4  UNK     1      17.789   3.823  31.121  1.00  0.00     0.148 C 
BRANCH  13  14
HETATM   14  C8  UNK     1      18.907   4.735  31.568  1.00  0.00     0.222 C 
HETATM   15  O2  UNK     1      19.855   5.020  30.839  1.00  0.00    -0.273 OA
HETATM   16  N1  UNK     1      18.740   5.179  32.869  1.00  0.00    -0.360 N 
HETATM   17  H10 UNK     1      17.899   4.921  33.380  1.00  0.00     0.162 HD
BRANCH  16  18
HETATM   18  C6  UNK     1      19.684   6.049  33.533  1.00  0.00     0.127 C 
BRANCH  18  19
HETATM   19  C7  UNK     1      19.035   7.328  34.056  1.00  0.00     0.058 C 
BRANCH  19  20
HETATM   20  C12 UNK     1      17.609   7.496  33.594  1.00  0.00    -0.057 A 
HETATM   21  C16 UNK     1      16.572   7.198  34.466  1.00  0.00     0.007 A 
HETATM   22  C18 UNK     1      15.253   7.353  34.038  1.00  0.00     0.001 A 
HETATM   23  C20 UNK     1      14.987   7.804  32.745  1.00  0.00     0.000 A 
HETATM   24  C19 UNK     1      16.040   8.099  31.880  1.00  0.00     0.001 A 
HETATM   25  C17 UNK     1      17.358   7.944  32.307  1.00  0.00     0.007 A 
ENDBRANCH  19  20
ENDBRANCH  18  19
ENDBRANCH  16  18
ENDBRANCH  13  14
ENDBRANCH   3  13
BRANCH  12  26
HETATM   26  O4  UNK     1      21.069  -3.255  29.864  1.00  0.00    -0.361 OA
HETATM   27  H19 UNK     1      21.525  -3.060  29.027  1.00  0.00     0.217 HD
ENDBRANCH  12  26
TORSDOF 6
ENDMDL
MODEL 5
REMARK VINA RESULT:      -8.2     22.416     24.436
REMARK  6 active torsions:
REMARK  status: ('A' for Active; 'I' for Inactive)
REMARK    1  A    between atoms: C15_20  and  O4_4 
REMARK    2  A    between atoms: C6_11  and  N1_5 
REMARK       I    between atoms: C8_13  and  N1_5 
REMARK    3  A    between atoms: C1_6  and  C4_9 
REMARK    4  A    between atoms: C4_9  and  C8_13 
REMARK    5  A    between atoms: C6_11  and  C7_12 
REMARK    6  A    between atoms: C12_17  and  C7_12 
ROOT
HETATM    1  O1  UNK     1      17.940   9.277   9.449  1.00  0.00    -0.274 OA
HETATM    2  O3  UNK     1      17.963   7.345  10.640  1.00  0.00    -0.259 OA
HETATM    3  C1  UNK     1      15.817   8.177  10.023  1.00  0.00     0.033 A 
HETATM    4  C2  UNK     1      15.111   9.160   9.425  1.00  0.00    -0.036 A 
HETATM    5  C3  UNK     1      15.828  10.266   8.757  1.00  0.00     0.005 A 
HETATM    6  C5  UNK     1      17.220  10.286   8.794  1.00  0.00     0.092 A 
HETATM    7  C9  UNK     1      17.308   8.212  10.070  1.00  0.00     0.295 A 
HETATM    8  C10 UNK     1      13.603   9.214   9.406  1.00  0.00     0.050 C 
HETATM    9  C11 UNK     1      15.191  11.310   8.066  1.00  0.00     0.017 A 
HETATM   10  C13 UNK     1      17.973  11.295   8.189  1.00  0.00     0.074 A 
HETATM   11  C14 UNK     1      15.931  12.328   7.454  1.00  0.00     0.037 A 
HETATM   12  C15 UNK     1      17.322  12.322   7.517  1.00  0.00     0.068 A 
ENDROOT
BRANCH   3  13
HETATM   13  C4  UNK     1      15.217   6.962  10.683  1.00  0.00     0.148 C 
BRANCH  13  14
HETATM   14  C8  UNK     1      14.840   5.970   9.609  1.00  0.00     0.222 C 
HETATM   15  O2  UNK     1      15.674   5.454   8.868  1.00  0.00    -0.273 OA
HETATM   16  N1  UNK     1      13.475   5.738   9.558  1.00  0.00    -0.360 N 
HETATM   17  H10 UNK     1      12.869   6.181  10.242  1.00  0.00     0.162 HD
BRANCH  16  18
HETATM   18  C6  UNK     1      12.864   4.841   8.604  1.00  0.00     0.127 C 
BRANCH  18  19
HETATM   19  C7  UNK     1      12.472   5.543   7.306  1.00  0.00     0.058 C 
BRANCH  19  20
HETATM   20  C12 UNK     1      11.007   5.901   7.249  1.00  0.00    -0.057 A 
HETATM   21  C16 UNK     1      10.275   5.956   8.425  1.00  0.00     0.007 A 
HETATM   22  C18 UNK     1       8.920   6.287   8.373  1.00  0.00     0.001 A 
HETATM   23  C20 UNK     1       8.316   6.557   7.145  1.00  0.00     0.000 A 
HETATM   24  C19 UNK     1       9.064   6.497   5.971  1.00  0.00     0.001 A 
HETATM   25  C17 UNK     1      10.418   6.167   6.023  1.00  0.00     0.007 A 
ENDBRANCH  19  20
ENDBRANCH  18  19
ENDBRANCH  16  18
ENDBRANCH  13  14
ENDBRANCH   3  13
BRANCH  12  26
HETATM   26  O4  UNK     1      18.038  13.312   6.921  1.00  0.00    -0.361 OA
HETATM   27  H19 UNK     1      18.931  12.979   6.722  1.00  0.00     0.217 HD
ENDBRANCH  12  26
TORSDOF 6
ENDMDL
MODEL 6
REMARK VINA RESULT:      -8.2     17.398     19.295
REMARK  6 active torsions:
REMARK  status: ('A' for Active; 'I' for Inactive)
REMARK    1  A    between atoms: C15_20  and  O4_4 
REMARK    2  A    between atoms: C6_11  and  N1_5 
REMARK       I    between atoms: C8_13  and  N1_5 
REMARK    3  A    between atoms: C1_6  and  C4_9 
REMARK    4  A    between atoms: C4_9  and  C8_13 
REMARK    5  A    between atoms: C6_11  and  C7_12 
REMARK    6  A    between atoms: C12_17  and  C7_12 
ROOT
HETATM    1  O1  UNK     1      30.896  -8.681  38.320  1.00  0.00    -0.274 OA
HETATM    2  O3  UNK     1      32.940  -7.761  37.964  1.00  0.00    -0.259 OA
HETATM    3  C1  UNK     1      31.148  -6.235  38.335  1.00  0.00     0.033 A 
HETATM    4  C2  UNK     1      29.826  -6.070  38.549  1.00  0.00    -0.036 A 
HETATM    5  C3  UNK     1      28.960  -7.258  38.698  1.00  0.00     0.005 A 
HETATM    6  C5  UNK     1      29.527  -8.523  38.577  1.00  0.00     0.092 A 
HETATM    7  C9  UNK     1      31.747  -7.595  38.193  1.00  0.00     0.295 A 
HETATM    8  C10 UNK     1      29.154  -4.721  38.631  1.00  0.00     0.050 C 
HETATM    9  C11 UNK     1      27.583  -7.196  38.970  1.00  0.00     0.017 A 
HETATM   10  C13 UNK     1      28.779  -9.697  38.705  1.00  0.00     0.074 A 
HETATM   11  C14 UNK     1      26.820  -8.362  39.102  1.00  0.00     0.037 A 
HETATM   12  C15 UNK     1      27.417  -9.612  38.968  1.00  0.00     0.068 A 
ENDROOT
BRANCH   3  13
HETATM   13  C4  UNK     1      32.152  -5.116  38.227  1.00  0.00     0.148 C 
BRANCH  13  14
HETATM   14  C8  UNK     1      32.080  -4.540  36.833  1.00  0.00     0.222 C 
HETATM   15  O2  UNK     1      31.792  -3.363  36.621  1.00  0.00    -0.273 OA
HETATM   16  N1  UNK     1      32.353  -5.482  35.856  1.00  0.00    -0.360 N 
HETATM   17  H10 UNK     1      32.622  -6.423  36.132  1.00  0.00     0.162 HD
BRANCH  16  18
HETATM   18  C6  UNK     1      32.330  -5.182  34.443  1.00  0.00     0.127 C 
BRANCH  18  19
HETATM   19  C7  UNK     1      31.834  -6.355  33.601  1.00  0.00     0.058 C 
BRANCH  19  20
HETATM   20  C12 UNK     1      30.597  -7.006  34.171  1.00  0.00    -0.057 A 
HETATM   21  C16 UNK     1      29.456  -6.242  34.366  1.00  0.00     0.007 A 
HETATM   22  C18 UNK     1      28.312  -6.844  34.892  1.00  0.00     0.001 A 
HETATM   23  C20 UNK     1      28.325  -8.200  35.217  1.00  0.00     0.000 A 
HETATM   24  C19 UNK     1      29.479  -8.955  35.017  1.00  0.00     0.001 A 
HETATM   25  C17 UNK     1      30.622  -8.354  34.490  1.00  0.00     0.007 A 
ENDBRANCH  19  20
ENDBRANCH  18  19
ENDBRANCH  16  18
ENDBRANCH  13  14
ENDBRANCH   3  13
BRANCH  12  26
HETATM   26  O4  UNK     1      26.673 -10.743  39.096  1.00  0.00    -0.361 OA
HETATM   27  H19 UNK     1      26.032 -10.783  38.365  1.00  0.00     0.217 HD
ENDBRANCH  12  26
TORSDOF 6
ENDMDL
MODEL 7
REMARK VINA RESULT:      -8.2      9.437     15.035
REMARK  6 active torsions:
REMARK  status: ('A' for Active; 'I' for Inactive)
REMARK    1  A    between atoms: C15_20  and  O4_4 
REMARK    2  A    between atoms: C6_11  and  N1_5 
REMARK       I    between atoms: C8_13  and  N1_5 
REMARK    3  A    between atoms: C1_6  and  C4_9 
REMARK    4  A    between atoms: C4_9  and  C8_13 
REMARK    5  A    between atoms: C6_11  and  C7_12 
REMARK    6  A    between atoms: C12_17  and  C7_12 
ROOT
HETATM    1  O1  UNK     1      21.108  -7.768  34.619  1.00  0.00    -0.274 OA
HETATM    2  O3  UNK     1      20.153  -5.732  34.315  1.00  0.00    -0.259 OA
HETATM    3  C1  UNK     1      19.532  -6.902  36.295  1.00  0.00     0.033 A 
HETATM    4  C2  UNK     1      19.647  -8.028  37.030  1.00  0.00    -0.036 A 
HETATM    5  C3  UNK     1      20.566  -9.096  36.583  1.00  0.00     0.005 A 
HETATM    6  C5  UNK     1      21.264  -8.929  35.391  1.00  0.00     0.092 A 
HETATM    7  C9  UNK     1      20.274  -6.735  35.011  1.00  0.00     0.295 A 
HETATM    8  C10 UNK     1      18.871  -8.282  38.299  1.00  0.00     0.050 C 
HETATM    9  C11 UNK     1      20.795 -10.284  37.297  1.00  0.00     0.017 A 
HETATM   10  C13 UNK     1      22.151  -9.889  34.897  1.00  0.00     0.074 A 
HETATM   11  C14 UNK     1      21.680 -11.256  36.818  1.00  0.00     0.037 A 
HETATM   12  C15 UNK     1      22.357 -11.060  35.618  1.00  0.00     0.068 A 
ENDROOT
BRANCH   3  13
HETATM   13  C4  UNK     1      18.684  -5.712  36.666  1.00  0.00     0.148 C 
BRANCH  13  14
HETATM   14  C8  UNK     1      19.590  -4.522  36.870  1.00  0.00     0.222 C 
HETATM   15  O2  UNK     1      20.548  -4.548  37.640  1.00  0.00    -0.273 OA
HETATM   16  N1  UNK     1      19.204  -3.427  36.115  1.00  0.00    -0.360 N 
HETATM   17  H10 UNK     1      18.420  -3.515  35.474  1.00  0.00     0.162 HD
BRANCH  16  18
HETATM   18  C6  UNK     1      19.900  -2.161  36.148  1.00  0.00     0.127 C 
BRANCH  18  19
HETATM   19  C7  UNK     1      19.337  -1.156  35.147  1.00  0.00     0.058 C 
BRANCH  19  20
HETATM   20  C12 UNK     1      18.071  -0.491  35.629  1.00  0.00    -0.057 A 
HETATM   21  C16 UNK     1      16.928  -0.558  34.847  1.00  0.00     0.007 A 
HETATM   22  C18 UNK     1      15.757   0.056  35.294  1.00  0.00     0.001 A 
HETATM   23  C20 UNK     1      15.745   0.730  36.515  1.00  0.00     0.000 A 
HETATM   24  C19 UNK     1      16.902   0.789  37.290  1.00  0.00     0.001 A 
HETATM   25  C17 UNK     1      18.072   0.175  36.845  1.00  0.00     0.007 A 
ENDBRANCH  19  20
ENDBRANCH  18  19
ENDBRANCH  16  18
ENDBRANCH  13  14
ENDBRANCH   3  13
BRANCH  12  26
HETATM   26  O4  UNK     1      23.217 -12.006  35.154  1.00  0.00    -0.361 OA
HETATM   27  H19 UNK     1      23.451 -11.795  34.234  1.00  0.00     0.217 HD
ENDBRANCH  12  26
TORSDOF 6
ENDMDL
MODEL 8
REMARK VINA RESULT:      -8.1      6.328      8.699
REMARK  6 active torsions:
REMARK  status: ('A' for Active; 'I' for Inactive)
REMARK    1  A    between atoms: C15_20  and  O4_4 
REMARK    2  A    between atoms: C6_11  and  N1_5 
REMARK       I    between atoms: C8_13  and  N1_5 
REMARK    3  A    between atoms: C1_6  and  C4_9 
REMARK    4  A    between atoms: C4_9  and  C8_13 
REMARK    5  A    between atoms: C6_11  and  C7_12 
REMARK    6  A    between atoms: C12_17  and  C7_12 
ROOT
HETATM    1  O1  UNK     1      18.444   0.800  31.952  1.00  0.00    -0.274 OA
HETATM    2  O3  UNK     1      18.272  -1.379  32.562  1.00  0.00    -0.259 OA
HETATM    3  C1  UNK     1      18.017   0.226  34.304  1.00  0.00     0.033 A 
HETATM    4  C2  UNK     1      18.031   1.529  34.656  1.00  0.00    -0.036 A 
HETATM    5  C3  UNK     1      18.224   2.561  33.616  1.00  0.00     0.005 A 
HETATM    6  C5  UNK     1      18.425   2.159  32.298  1.00  0.00     0.092 A 
HETATM    7  C9  UNK     1      18.247  -0.198  32.892  1.00  0.00     0.295 A 
HETATM    8  C10 UNK     1      17.874   2.013  36.077  1.00  0.00     0.050 C 
HETATM    9  C11 UNK     1      18.207   3.942  33.868  1.00  0.00     0.017 A 
HETATM   10  C13 UNK     1      18.616   3.069  31.255  1.00  0.00     0.074 A 
HETATM   11  C14 UNK     1      18.395   4.868  32.835  1.00  0.00     0.037 A 
HETATM   12  C15 UNK     1      18.602   4.432  31.529  1.00  0.00     0.068 A 
ENDROOT
BRANCH   3  13
HETATM   13  C4  UNK     1      17.767  -0.921  35.250  1.00  0.00     0.148 C 
BRANCH  13  14
HETATM   14  C8  UNK     1      19.097  -1.524  35.633  1.00  0.00     0.222 C 
HETATM   15  O2  UNK     1      20.152  -0.898  35.550  1.00  0.00    -0.273 OA
HETATM   16  N1  UNK     1      18.980  -2.837  36.059  1.00  0.00    -0.360 N 
HETATM   17  H10 UNK     1      18.057  -3.256  36.133  1.00  0.00     0.162 HD
BRANCH  16  18
HETATM   18  C6  UNK     1      20.112  -3.638  36.465  1.00  0.00     0.127 C 
BRANCH  18  19
HETATM   19  C7  UNK     1      19.872  -5.133  36.271  1.00  0.00     0.058 C 
BRANCH  19  20
HETATM   20  C12 UNK     1      20.332  -5.959  37.447  1.00  0.00    -0.057 A 
HETATM   21  C16 UNK     1      21.620  -5.794  37.932  1.00  0.00     0.007 A 
HETATM   22  C18 UNK     1      22.046  -6.558  39.020  1.00  0.00     0.001 A 
HETATM   23  C20 UNK     1      21.177  -7.477  39.608  1.00  0.00     0.000 A 
HETATM   24  C19 UNK     1      19.885  -7.634  39.110  1.00  0.00     0.001 A 
HETATM   25  C17 UNK     1      19.459  -6.870  38.023  1.00  0.00     0.007 A 
ENDBRANCH  19  20
ENDBRANCH  18  19
ENDBRANCH  16  18
ENDBRANCH  13  14
ENDBRANCH   3  13
BRANCH  12  26
HETATM   26  O4  UNK     1      18.785   5.333  30.528  1.00  0.00    -0.361 OA
HETATM   27  H19 UNK     1      18.118   6.037  30.612  1.00  0.00     0.217 HD
ENDBRANCH  12  26
TORSDOF 6
ENDMDL
MODEL 9
REMARK VINA RESULT:      -8.1      8.799     13.797
REMARK  6 active torsions:
REMARK  status: ('A' for Active; 'I' for Inactive)
REMARK    1  A    between atoms: C15_20  and  O4_4 
REMARK    2  A    between atoms: C6_11  and  N1_5 
REMARK       I    between atoms: C8_13  and  N1_5 
REMARK    3  A    between atoms: C1_6  and  C4_9 
REMARK    4  A    between atoms: C4_9  and  C8_13 
REMARK    5  A    between atoms: C6_11  and  C7_12 
REMARK    6  A    between atoms: C12_17  and  C7_12 
ROOT
HETATM    1  O1  UNK     1      17.960  -7.482  37.202  1.00  0.00    -0.274 OA
HETATM    2  O3  UNK     1      17.184  -5.487  36.447  1.00  0.00    -0.259 OA
HETATM    3  C1  UNK     1      19.430  -5.512  37.239  1.00  0.00     0.033 A 
HETATM    4  C2  UNK     1      20.427  -6.228  37.800  1.00  0.00    -0.036 A 
HETATM    5  C3  UNK     1      20.229  -7.669  38.060  1.00  0.00     0.005 A 
HETATM    6  C5  UNK     1      19.000  -8.246  37.752  1.00  0.00     0.092 A 
HETATM    7  C9  UNK     1      18.111  -6.133  36.924  1.00  0.00     0.295 A 
HETATM    8  C10 UNK     1      21.757  -5.639  38.204  1.00  0.00     0.050 C 
HETATM    9  C11 UNK     1      21.216  -8.514  38.594  1.00  0.00     0.017 A 
HETATM   10  C13 UNK     1      18.730  -9.600  37.966  1.00  0.00     0.074 A 
HETATM   11  C14 UNK     1      20.963  -9.873  38.814  1.00  0.00     0.037 A 
HETATM   12  C15 UNK     1      19.719 -10.416  38.502  1.00  0.00     0.068 A 
ENDROOT
BRANCH   3  13
HETATM   13  C4  UNK     1      19.521  -4.054  36.864  1.00  0.00     0.148 C 
BRANCH  13  14
HETATM   14  C8  UNK     1      19.960  -3.957  35.422  1.00  0.00     0.222 C 
HETATM   15  O2  UNK     1      20.359  -4.932  34.788  1.00  0.00    -0.273 OA
HETATM   16  N1  UNK     1      19.875  -2.665  34.929  1.00  0.00    -0.360 N 
HETATM   17  H10 UNK     1      19.493  -1.931  35.519  1.00  0.00     0.162 HD
BRANCH  16  18
HETATM   18  C6  UNK     1      20.255  -2.309  33.581  1.00  0.00     0.127 C 
BRANCH  18  19
HETATM   19  C7  UNK     1      19.202  -1.453  32.882  1.00  0.00     0.058 C 
BRANCH  19  20
HETATM   20  C12 UNK     1      19.595  -1.071  31.476  1.00  0.00    -0.057 A 
HETATM   21  C16 UNK     1      19.425   0.240  31.055  1.00  0.00     0.007 A 
HETATM   22  C18 UNK     1      19.789   0.593  29.755  1.00  0.00     0.001 A 
HETATM   23  C20 UNK     1      20.316  -0.368  28.893  1.00  0.00     0.000 A 
HETATM   24  C19 UNK     1      20.480  -1.682  29.329  1.00  0.00     0.001 A 
HETATM   25  C17 UNK     1      20.118  -2.035  30.629  1.00  0.00     0.007 A 
ENDBRANCH  19  20
ENDBRANCH  18  19
ENDBRANCH  16  18
ENDBRANCH  13  14
ENDBRANCH   3  13
BRANCH  12  26
HETATM   26  O4  UNK     1      19.476 -11.736  38.717  1.00  0.00    -0.361 OA
HETATM   27  H19 UNK     1      19.647 -12.225  37.893  1.00  0.00     0.217 HD
ENDBRANCH  12  26
TORSDOF 6
ENDMDL
MODEL 10
REMARK VINA RESULT:      -8.1     21.967     23.690
REMARK  6 active torsions:
REMARK  status: ('A' for Active; 'I' for Inactive)
REMARK    1  A    between atoms: C15_20  and  O4_4 
REMARK    2  A    between atoms: C6_11  and  N1_5 
REMARK       I    between atoms: C8_13  and  N1_5 
REMARK    3  A    between atoms: C1_6  and  C4_9 
REMARK    4  A    between atoms: C4_9  and  C8_13 
REMARK    5  A    between atoms: C6_11  and  C7_12 
REMARK    6  A    between atoms: C12_17  and  C7_12 
ROOT
HETATM    1  O1  UNK     1      14.019   9.559  10.695  1.00  0.00    -0.274 OA
HETATM    2  O3  UNK     1      12.852   7.622  10.888  1.00  0.00    -0.259 OA
HETATM    3  C1  UNK     1      15.184   7.408  10.447  1.00  0.00     0.033 A 
HETATM    4  C2  UNK     1      16.353   8.035  10.200  1.00  0.00    -0.036 A 
HETATM    5  C3  UNK     1      16.406   9.511  10.229  1.00  0.00     0.005 A 
HETATM    6  C5  UNK     1      15.235  10.223  10.475  1.00  0.00     0.092 A 
HETATM    7  C9  UNK     1      13.929   8.177  10.697  1.00  0.00     0.295 A 
HETATM    8  C10 UNK     1      17.637   7.312   9.873  1.00  0.00     0.050 C 
HETATM    9  C11 UNK     1      17.580  10.258  10.034  1.00  0.00     0.017 A 
HETATM   10  C13 UNK     1      15.199  11.619  10.519  1.00  0.00     0.074 A 
HETATM   11  C14 UNK     1      17.561  11.657  10.075  1.00  0.00     0.037 A 
HETATM   12  C15 UNK     1      16.371  12.338  10.316  1.00  0.00     0.068 A 
ENDROOT
BRANCH   3  13
HETATM   13  C4  UNK     1      15.003   5.913  10.512  1.00  0.00     0.148 C 
BRANCH  13  14
HETATM   14  C8  UNK     1      14.445   5.440   9.190  1.00  0.00     0.222 C 
HETATM   15  O2  UNK     1      15.117   5.425   8.160  1.00  0.00    -0.273 OA
HETATM   16  N1  UNK     1      13.118   5.056   9.282  1.00  0.00    -0.360 N 
HETATM   17  H10 UNK     1      12.658   5.065  10.189  1.00  0.00     0.162 HD
BRANCH  16  18
HETATM   18  C6  UNK     1      12.354   4.582   8.151  1.00  0.00     0.127 C 
BRANCH  18  19
HETATM   19  C7  UNK     1      11.951   5.708   7.202  1.00  0.00     0.058 C 
BRANCH  19  20
HETATM   20  C12 UNK     1      10.546   6.205   7.442  1.00  0.00    -0.057 A 
HETATM   21  C16 UNK     1       9.604   6.092   6.431  1.00  0.00     0.007 A 
HETATM   22  C18 UNK     1       8.304   6.551   6.653  1.00  0.00     0.001 A 
HETATM   23  C20 UNK     1       7.966   7.118   7.881  1.00  0.00     0.000 A 
HETATM   24  C19 UNK     1       8.924   7.225   8.888  1.00  0.00     0.001 A 
HETATM   25  C17 UNK     1      10.222   6.765   8.667  1.00  0.00     0.007 A 
ENDBRANCH  19  20
ENDBRANCH  18  19
ENDBRANCH  16  18
ENDBRANCH  13  14
ENDBRANCH   3  13
BRANCH  12  26
HETATM   26  O4  UNK     1      16.355  13.697  10.356  1.00  0.00    -0.361 OA
HETATM   27  H19 UNK     1      15.488  14.011  10.044  1.00  0.00     0.217 HD
ENDBRANCH  12  26
TORSDOF 6
ENDMDL
