MODEL 1
REMARK VINA RESULT:     -10.5      0.000      0.000
REMARK  4 active torsions:
REMARK  status: ('A' for Active; 'I' for Inactive)
REMARK    1  A    between atoms: C1_12  and  N1_11 
REMARK       I    between atoms: C11_22  and  N1_11 
REMARK    2  A    between atoms: C12_23  and  C2_13 
REMARK    3  A    between atoms: C13_24  and  C3_14 
REMARK    4  A    between atoms: C11_22  and  C8_19 
ROOT
HETATM    1  O2  UNK     1      17.588   2.867  33.151  1.00  0.00    -0.267 OA
HETATM    2  N1  UNK     1      18.406   4.486  31.649  1.00  0.00    -0.323 N 
HETATM    3  C11 UNK     1      18.163   3.202  32.117  1.00  0.00     0.262 C 
HETATM    4  H4  UNK     1      18.918   4.594  30.777  1.00  0.00     0.169 HD
ENDROOT
BRANCH   2   5
HETATM    5  C1  UNK     1      18.047   5.711  32.262  1.00  0.00     0.036 A 
HETATM    6  C4  UNK     1      16.739   6.156  32.171  1.00  0.00     0.045 A 
HETATM    7  C3  UNK     1      16.385   7.363  32.775  1.00  0.00     0.050 A 
HETATM    8  C6  UNK     1      17.345   8.106  33.461  1.00  0.00     0.032 A 
HETATM    9  C2  UNK     1      18.658   7.644  33.543  1.00  0.00     0.050 A 
HETATM   10  C5  UNK     1      19.012   6.438  32.938  1.00  0.00     0.045 A 
BRANCH   7  11
HETATM   11  C13 UNK     1      14.981   7.856  32.688  1.00  0.00     0.417 C 
HETATM   12  F4  UNK     1      14.243   7.240  31.716  1.00  0.00    -0.166 F 
HETATM   13  F5  UNK     1      14.268   7.683  33.839  1.00  0.00    -0.166 F 
HETATM   14  F6  UNK     1      14.909   9.191  32.410  1.00  0.00    -0.166 F 
ENDBRANCH   7  11
BRANCH   9  15
HETATM   15  C12 UNK     1      19.684   8.439  34.276  1.00  0.00     0.417 C 
HETATM   16  F1  UNK     1      20.942   8.326  33.754  1.00  0.00    -0.166 F 
HETATM   17  F2  UNK     1      19.426   9.780  34.294  1.00  0.00    -0.166 F 
HETATM   18  F3  UNK     1      19.798   8.070  35.586  1.00  0.00    -0.166 F 
ENDBRANCH   9  15
ENDBRANCH   2   5
BRANCH   3  19
HETATM   19  C8  UNK     1      18.683   2.173  31.207  1.00  0.00     0.108 A 
HETATM   20  C14 UNK     1      18.733   2.374  29.741  1.00  0.00     0.304 A 
HETATM   21  O1  UNK     1      19.248   1.325  28.985  1.00  0.00    -0.274 OA
HETATM   22  O3  UNK     1      18.340   3.410  29.215  1.00  0.00    -0.259 OA
HETATM   23  C10 UNK     1      19.702   0.132  29.580  1.00  0.00     0.089 A 
HETATM   24  C7  UNK     1      19.647  -0.035  30.959  1.00  0.00     0.001 A 
HETATM   25  C16 UNK     1      20.202  -0.862  28.739  1.00  0.00     0.040 A 
HETATM   26  C15 UNK     1      20.106  -1.233  31.513  1.00  0.00     0.038 A 
HETATM   27  C9  UNK     1      19.113   1.042  31.778  1.00  0.00     0.037 A 
HETATM   28  C17 UNK     1      20.610  -2.238  30.682  1.00  0.00     0.035 A 
HETATM   29 Cl1  UNK     1      21.175  -3.714  31.368  1.00  0.00    -0.084 Cl
HETATM   30  C18 UNK     1      20.658  -2.053  29.299  1.00  0.00     0.026 A 
ENDBRANCH   3  19
TORSDOF 4
ENDMDL
MODEL 2
REMARK VINA RESULT:     -10.5      0.014      3.243
REMARK  4 active torsions:
REMARK  status: ('A' for Active; 'I' for Inactive)
REMARK    1  A    between atoms: C1_12  and  N1_11 
REMARK       I    between atoms: C11_22  and  N1_11 
REMARK    2  A    between atoms: C12_23  and  C2_13 
REMARK    3  A    between atoms: C13_24  and  C3_14 
REMARK    4  A    between atoms: C11_22  and  C8_19 
ROOT
HETATM    1  O2  UNK     1      17.589   2.868  33.148  1.00  0.00    -0.267 OA
HETATM    2  N1  UNK     1      18.405   4.489  31.645  1.00  0.00    -0.323 N 
HETATM    3  C11 UNK     1      18.163   3.204  32.113  1.00  0.00     0.262 C 
HETATM    4  H4  UNK     1      18.916   4.596  30.772  1.00  0.00     0.169 HD
ENDROOT
BRANCH   2   5
HETATM    5  C1  UNK     1      18.047   5.713  32.260  1.00  0.00     0.036 A 
HETATM    6  C4  UNK     1      19.014   6.440  32.934  1.00  0.00     0.045 A 
HETATM    7  C3  UNK     1      18.661   7.646  33.540  1.00  0.00     0.050 A 
HETATM    8  C6  UNK     1      17.346   8.106  33.462  1.00  0.00     0.032 A 
HETATM    9  C2  UNK     1      16.385   7.361  32.780  1.00  0.00     0.050 A 
HETATM   10  C5  UNK     1      16.737   6.155  32.175  1.00  0.00     0.045 A 
BRANCH   7  11
HETATM   11  C13 UNK     1      19.689   8.443  34.269  1.00  0.00     0.417 C 
HETATM   12  F4  UNK     1      19.831   8.085  35.579  1.00  0.00    -0.166 F 
HETATM   13  F5  UNK     1      20.941   8.340  33.733  1.00  0.00    -0.166 F 
HETATM   14  F6  UNK     1      19.406   9.778  34.284  1.00  0.00    -0.166 F 
ENDBRANCH   7  11
BRANCH   9  15
HETATM   15  C12 UNK     1      14.980   7.853  32.698  1.00  0.00     0.417 C 
HETATM   16  F1  UNK     1      14.268   7.675  33.851  1.00  0.00    -0.166 F 
HETATM   17  F2  UNK     1      14.883   9.188  32.424  1.00  0.00    -0.166 F 
HETATM   18  F3  UNK     1      14.259   7.226  31.724  1.00  0.00    -0.166 F 
ENDBRANCH   9  15
ENDBRANCH   2   5
BRANCH   3  19
HETATM   19  C8  UNK     1      18.681   2.176  31.202  1.00  0.00     0.108 A 
HETATM   20  C14 UNK     1      18.728   2.377  29.736  1.00  0.00     0.304 A 
HETATM   21  O1  UNK     1      19.242   1.329  28.978  1.00  0.00    -0.274 OA
HETATM   22  O3  UNK     1      18.335   3.413  29.211  1.00  0.00    -0.259 OA
HETATM   23  C10 UNK     1      19.696   0.135  29.572  1.00  0.00     0.089 A 
HETATM   24  C7  UNK     1      19.644  -0.033  30.951  1.00  0.00     0.001 A 
HETATM   25  C16 UNK     1      20.195  -0.858  28.729  1.00  0.00     0.040 A 
HETATM   26  C15 UNK     1      20.104  -1.231  31.503  1.00  0.00     0.038 A 
HETATM   27  C9  UNK     1      19.112   1.044  31.771  1.00  0.00     0.037 A 
HETATM   28  C17 UNK     1      20.606  -2.236  30.671  1.00  0.00     0.035 A 
HETATM   29 Cl1  UNK     1      21.172  -3.712  31.354  1.00  0.00    -0.084 Cl
HETATM   30  C18 UNK     1      20.652  -2.050  29.288  1.00  0.00     0.026 A 
ENDBRANCH   3  19
TORSDOF 4
ENDMDL
MODEL 3
REMARK VINA RESULT:      -9.8     14.947     16.535
REMARK  4 active torsions:
REMARK  status: ('A' for Active; 'I' for Inactive)
REMARK    1  A    between atoms: C1_12  and  N1_11 
REMARK       I    between atoms: C11_22  and  N1_11 
REMARK    2  A    between atoms: C12_23  and  C2_13 
REMARK    3  A    between atoms: C13_24  and  C3_14 
REMARK    4  A    between atoms: C11_22  and  C8_19 
ROOT
HETATM    1  O2  UNK     1      25.864  -9.072  39.435  1.00  0.00    -0.267 OA
HETATM    2  N1  UNK     1      24.732  -7.655  37.932  1.00  0.00    -0.323 N 
HETATM    3  C11 UNK     1      25.787  -8.062  38.737  1.00  0.00     0.262 C 
HETATM    4  H4  UNK     1      24.819  -6.775  37.430  1.00  0.00     0.169 HD
ENDROOT
BRANCH   2   5
HETATM    5  C1  UNK     1      23.494  -8.314  37.733  1.00  0.00     0.036 A 
HETATM    6  C4  UNK     1      22.431  -8.023  38.570  1.00  0.00     0.045 A 
HETATM    7  C3  UNK     1      21.211  -8.672  38.374  1.00  0.00     0.050 A 
HETATM    8  C6  UNK     1      21.075  -9.602  37.343  1.00  0.00     0.032 A 
HETATM    9  C2  UNK     1      22.157  -9.883  36.509  1.00  0.00     0.050 A 
HETATM   10  C5  UNK     1      23.376  -9.235  36.706  1.00  0.00     0.045 A 
BRANCH   7  11
HETATM   11  C13 UNK     1      20.054  -8.371  39.265  1.00  0.00     0.417 C 
HETATM   12  F4  UNK     1      20.201  -7.216  39.980  1.00  0.00    -0.166 F 
HETATM   13  F5  UNK     1      18.872  -8.228  38.597  1.00  0.00    -0.166 F 
HETATM   14  F6  UNK     1      19.835  -9.349  40.192  1.00  0.00    -0.166 F 
ENDBRANCH   7  11
BRANCH   9  15
HETATM   15  C12 UNK     1      22.010 -10.877  35.408  1.00  0.00     0.417 C 
HETATM   16  F1  UNK     1      21.905 -10.311  34.169  1.00  0.00    -0.166 F 
HETATM   17  F2  UNK     1      23.058 -11.748  35.314  1.00  0.00    -0.166 F 
HETATM   18  F3  UNK     1      20.898 -11.657  35.549  1.00  0.00    -0.166 F 
ENDBRANCH   9  15
ENDBRANCH   2   5
BRANCH   3  19
HETATM   19  C8  UNK     1      26.913  -7.121  38.692  1.00  0.00     0.108 A 
HETATM   20  C14 UNK     1      26.720  -5.659  38.822  1.00  0.00     0.304 A 
HETATM   21  O1  UNK     1      27.865  -4.870  38.764  1.00  0.00    -0.274 OA
HETATM   22  O3  UNK     1      25.609  -5.163  38.973  1.00  0.00    -0.259 OA
HETATM   23  C10 UNK     1      29.146  -5.431  38.591  1.00  0.00     0.089 A 
HETATM   24  C7  UNK     1      29.305  -6.807  38.472  1.00  0.00     0.001 A 
HETATM   25  C16 UNK     1      30.234  -4.559  38.545  1.00  0.00     0.040 A 
HETATM   26  C15 UNK     1      30.591  -7.325  38.301  1.00  0.00     0.038 A 
HETATM   27  C9  UNK     1      28.128  -7.658  38.527  1.00  0.00     0.037 A 
HETATM   28  C17 UNK     1      31.691  -6.464  38.253  1.00  0.00     0.035 A 
HETATM   29 Cl1  UNK     1      33.275  -7.106  38.043  1.00  0.00    -0.084 Cl
HETATM   30  C18 UNK     1      31.513  -5.084  38.375  1.00  0.00     0.026 A 
ENDBRANCH   3  19
TORSDOF 4
ENDMDL
MODEL 4
REMARK VINA RESULT:      -9.8     14.950     16.553
REMARK  4 active torsions:
REMARK  status: ('A' for Active; 'I' for Inactive)
REMARK    1  A    between atoms: C1_12  and  N1_11 
REMARK       I    between atoms: C11_22  and  N1_11 
REMARK    2  A    between atoms: C12_23  and  C2_13 
REMARK    3  A    between atoms: C13_24  and  C3_14 
REMARK    4  A    between atoms: C11_22  and  C8_19 
ROOT
HETATM    1  O2  UNK     1      25.876  -9.072  39.430  1.00  0.00    -0.267 OA
HETATM    2  N1  UNK     1      24.740  -7.655  37.930  1.00  0.00    -0.323 N 
HETATM    3  C11 UNK     1      25.797  -8.062  38.733  1.00  0.00     0.262 C 
HETATM    4  H4  UNK     1      24.826  -6.773  37.429  1.00  0.00     0.169 HD
ENDROOT
BRANCH   2   5
HETATM    5  C1  UNK     1      23.503  -8.314  37.731  1.00  0.00     0.036 A 
HETATM    6  C4  UNK     1      23.384  -9.234  36.704  1.00  0.00     0.045 A 
HETATM    7  C3  UNK     1      22.165  -9.884  36.507  1.00  0.00     0.050 A 
HETATM    8  C6  UNK     1      21.083  -9.603  37.342  1.00  0.00     0.032 A 
HETATM    9  C2  UNK     1      21.220  -8.673  38.373  1.00  0.00     0.050 A 
HETATM   10  C5  UNK     1      22.439  -8.023  38.568  1.00  0.00     0.045 A 
BRANCH   7  11
HETATM   11  C13 UNK     1      22.019 -10.878  35.406  1.00  0.00     0.417 C 
HETATM   12  F4  UNK     1      21.915 -10.311  34.167  1.00  0.00    -0.166 F 
HETATM   13  F5  UNK     1      23.067 -11.748  35.312  1.00  0.00    -0.166 F 
HETATM   14  F6  UNK     1      20.907 -11.658  35.545  1.00  0.00    -0.166 F 
ENDBRANCH   7  11
BRANCH   9  15
HETATM   15  C12 UNK     1      20.064  -8.374  39.265  1.00  0.00     0.417 C 
HETATM   16  F1  UNK     1      18.883  -8.215  38.597  1.00  0.00    -0.166 F 
HETATM   17  F2  UNK     1      19.821  -9.348  40.191  1.00  0.00    -0.166 F 
HETATM   18  F3  UNK     1      20.237  -7.224  39.980  1.00  0.00    -0.166 F 
ENDBRANCH   9  15
ENDBRANCH   2   5
BRANCH   3  19
HETATM   19  C8  UNK     1      26.921  -7.119  38.689  1.00  0.00     0.108 A 
HETATM   20  C14 UNK     1      26.727  -5.657  38.820  1.00  0.00     0.304 A 
HETATM   21  O1  UNK     1      27.871  -4.867  38.762  1.00  0.00    -0.274 OA
HETATM   22  O3  UNK     1      25.614  -5.163  38.971  1.00  0.00    -0.259 OA
HETATM   23  C10 UNK     1      29.152  -5.426  38.588  1.00  0.00     0.089 A 
HETATM   24  C7  UNK     1      29.313  -6.801  38.468  1.00  0.00     0.001 A 
HETATM   25  C16 UNK     1      30.238  -4.552  38.543  1.00  0.00     0.040 A 
HETATM   26  C15 UNK     1      30.600  -7.318  38.297  1.00  0.00     0.038 A 
HETATM   27  C9  UNK     1      28.137  -7.655  38.524  1.00  0.00     0.037 A 
HETATM   28  C17 UNK     1      31.698  -6.455  38.249  1.00  0.00     0.035 A 
HETATM   29 Cl1  UNK     1      33.283  -7.096  38.038  1.00  0.00    -0.084 Cl
HETATM   30  C18 UNK     1      31.518  -5.076  38.372  1.00  0.00     0.026 A 
ENDBRANCH   3  19
TORSDOF 4
ENDMDL
MODEL 5
REMARK VINA RESULT:      -9.7      5.814      9.032
REMARK  4 active torsions:
REMARK  status: ('A' for Active; 'I' for Inactive)
REMARK    1  A    between atoms: C1_12  and  N1_11 
REMARK       I    between atoms: C11_22  and  N1_11 
REMARK    2  A    between atoms: C12_23  and  C2_13 
REMARK    3  A    between atoms: C13_24  and  C3_14 
REMARK    4  A    between atoms: C11_22  and  C8_19 
ROOT
HETATM    1  O2  UNK     1      17.622   4.061  32.321  1.00  0.00    -0.267 OA
HETATM    2  N1  UNK     1      18.378   3.825  34.540  1.00  0.00    -0.323 N 
HETATM    3  C11 UNK     1      18.041   4.517  33.384  1.00  0.00     0.262 C 
HETATM    4  H4  UNK     1      18.732   4.353  35.333  1.00  0.00     0.169 HD
ENDROOT
BRANCH   2   5
HETATM    5  C1  UNK     1      18.318   2.426  34.757  1.00  0.00     0.036 A 
HETATM    6  C4  UNK     1      18.538   1.566  33.696  1.00  0.00     0.045 A 
HETATM    7  C3  UNK     1      18.478   0.189  33.910  1.00  0.00     0.050 A 
HETATM    8  C6  UNK     1      18.199  -0.306  35.184  1.00  0.00     0.032 A 
HETATM    9  C2  UNK     1      17.979   0.575  36.242  1.00  0.00     0.050 A 
HETATM   10  C5  UNK     1      18.038   1.952  36.028  1.00  0.00     0.045 A 
BRANCH   7  11
HETATM   11  C13 UNK     1      18.714  -0.753  32.778  1.00  0.00     0.417 C 
HETATM   12  F4  UNK     1      19.768  -1.598  32.979  1.00  0.00    -0.166 F 
HETATM   13  F5  UNK     1      17.650  -1.568  32.514  1.00  0.00    -0.166 F 
HETATM   14  F6  UNK     1      18.981  -0.108  31.605  1.00  0.00    -0.166 F 
ENDBRANCH   7  11
BRANCH   9  15
HETATM   15  C12 UNK     1      17.681   0.044  37.603  1.00  0.00     0.417 C 
HETATM   16  F1  UNK     1      18.398  -1.074  37.925  1.00  0.00    -0.166 F 
HETATM   17  F2  UNK     1      17.941   0.935  38.606  1.00  0.00    -0.166 F 
HETATM   18  F3  UNK     1      16.371  -0.306  37.755  1.00  0.00    -0.166 F 
ENDBRANCH   9  15
ENDBRANCH   2   5
BRANCH   3  19
HETATM   19  C8  UNK     1      18.232   5.965  33.530  1.00  0.00     0.108 A 
HETATM   20  C14 UNK     1      19.571   6.592  33.458  1.00  0.00     0.304 A 
HETATM   21  O1  UNK     1      19.623   7.974  33.612  1.00  0.00    -0.274 OA
HETATM   22  O3  UNK     1      20.587   5.930  33.274  1.00  0.00    -0.259 OA
HETATM   23  C10 UNK     1      18.461   8.743  33.824  1.00  0.00     0.089 A 
HETATM   24  C7  UNK     1      17.213   8.134  33.888  1.00  0.00     0.001 A 
HETATM   25  C16 UNK     1      18.614  10.121  33.966  1.00  0.00     0.040 A 
HETATM   26  C15 UNK     1      16.084   8.930  34.100  1.00  0.00     0.038 A 
HETATM   27  C9  UNK     1      17.125   6.691  33.732  1.00  0.00     0.037 A 
HETATM   28  C17 UNK     1      16.222  10.313  34.244  1.00  0.00     0.035 A 
HETATM   29 Cl1  UNK     1      14.828  11.291  34.506  1.00  0.00    -0.084 Cl
HETATM   30  C18 UNK     1      17.484  10.908  34.177  1.00  0.00     0.026 A 
ENDBRANCH   3  19
TORSDOF 4
ENDMDL
MODEL 6
REMARK VINA RESULT:      -9.6      5.808      9.116
REMARK  4 active torsions:
REMARK  status: ('A' for Active; 'I' for Inactive)
REMARK    1  A    between atoms: C1_12  and  N1_11 
REMARK       I    between atoms: C11_22  and  N1_11 
REMARK    2  A    between atoms: C12_23  and  C2_13 
REMARK    3  A    between atoms: C13_24  and  C3_14 
REMARK    4  A    between atoms: C11_22  and  C8_19 
ROOT
HETATM    1  O2  UNK     1      17.609   4.082  32.318  1.00  0.00    -0.267 OA
HETATM    2  N1  UNK     1      18.387   3.836  34.527  1.00  0.00    -0.323 N 
HETATM    3  C11 UNK     1      18.041   4.533  33.377  1.00  0.00     0.262 C 
HETATM    4  H4  UNK     1      18.753   4.361  35.319  1.00  0.00     0.169 HD
ENDROOT
BRANCH   2   5
HETATM    5  C1  UNK     1      18.323   2.437  34.742  1.00  0.00     0.036 A 
HETATM    6  C4  UNK     1      18.042   1.960  36.010  1.00  0.00     0.045 A 
HETATM    7  C3  UNK     1      17.979   0.582  36.222  1.00  0.00     0.050 A 
HETATM    8  C6  UNK     1      18.199  -0.296  35.161  1.00  0.00     0.032 A 
HETATM    9  C2  UNK     1      18.482   0.202  33.890  1.00  0.00     0.050 A 
HETATM   10  C5  UNK     1      18.546   1.579  33.679  1.00  0.00     0.045 A 
BRANCH   7  11
HETATM   11  C13 UNK     1      17.676   0.050  37.582  1.00  0.00     0.417 C 
HETATM   12  F4  UNK     1      18.396  -1.066  37.906  1.00  0.00    -0.166 F 
HETATM   13  F5  UNK     1      17.929   0.940  38.586  1.00  0.00    -0.166 F 
HETATM   14  F6  UNK     1      16.366  -0.305  37.728  1.00  0.00    -0.166 F 
ENDBRANCH   7  11
BRANCH   9  15
HETATM   15  C12 UNK     1      18.717  -0.738  32.757  1.00  0.00     0.417 C 
HETATM   16  F1  UNK     1      19.770  -1.586  32.957  1.00  0.00    -0.166 F 
HETATM   17  F2  UNK     1      17.652  -1.549  32.489  1.00  0.00    -0.166 F 
HETATM   18  F3  UNK     1      18.988  -0.091  31.585  1.00  0.00    -0.166 F 
ENDBRANCH   9  15
ENDBRANCH   2   5
BRANCH   3  19
HETATM   19  C8  UNK     1      18.240   5.980  33.525  1.00  0.00     0.108 A 
HETATM   20  C14 UNK     1      19.587   6.595  33.488  1.00  0.00     0.304 A 
HETATM   21  O1  UNK     1      19.646   7.977  33.640  1.00  0.00    -0.274 OA
HETATM   22  O3  UNK     1      20.601   5.924  33.333  1.00  0.00    -0.259 OA
HETATM   23  C10 UNK     1      18.485   8.756  33.818  1.00  0.00     0.089 A 
HETATM   24  C7  UNK     1      17.231   8.158  33.849  1.00  0.00     0.001 A 
HETATM   25  C16 UNK     1      18.646  10.134  33.961  1.00  0.00     0.040 A 
HETATM   26  C15 UNK     1      16.103   8.963  34.028  1.00  0.00     0.038 A 
HETATM   27  C9  UNK     1      17.135   6.715  33.695  1.00  0.00     0.037 A 
HETATM   28  C17 UNK     1      16.249  10.346  34.173  1.00  0.00     0.035 A 
HETATM   29 Cl1  UNK     1      14.857  11.336  34.393  1.00  0.00    -0.084 Cl
HETATM   30  C18 UNK     1      17.517  10.930  34.139  1.00  0.00     0.026 A 
ENDBRANCH   3  19
TORSDOF 4
ENDMDL
MODEL 7
REMARK VINA RESULT:      -9.3     10.562     13.628
REMARK  4 active torsions:
REMARK  status: ('A' for Active; 'I' for Inactive)
REMARK    1  A    between atoms: C1_12  and  N1_11 
REMARK       I    between atoms: C11_22  and  N1_11 
REMARK    2  A    between atoms: C12_23  and  C2_13 
REMARK    3  A    between atoms: C13_24  and  C3_14 
REMARK    4  A    between atoms: C11_22  and  C8_19 
ROOT
HETATM    1  O2  UNK     1      21.533  -4.234  37.286  1.00  0.00    -0.267 OA
HETATM    2  N1  UNK     1      20.003  -5.558  36.080  1.00  0.00    -0.323 N 
HETATM    3  C11 UNK     1      20.596  -4.376  36.502  1.00  0.00     0.262 C 
HETATM    4  H4  UNK     1      19.216  -5.501  35.438  1.00  0.00     0.169 HD
ENDROOT
BRANCH   2   5
HETATM    5  C1  UNK     1      20.342  -6.879  36.463  1.00  0.00     0.036 A 
HETATM    6  C4  UNK     1      20.144  -7.276  37.774  1.00  0.00     0.045 A 
HETATM    7  C3  UNK     1      20.478  -8.577  38.150  1.00  0.00     0.050 A 
HETATM    8  C6  UNK     1      21.007  -9.461  37.209  1.00  0.00     0.032 A 
HETATM    9  C2  UNK     1      21.200  -9.044  35.892  1.00  0.00     0.050 A 
HETATM   10  C5  UNK     1      20.866  -7.743  35.516  1.00  0.00     0.045 A 
BRANCH   7  11
HETATM   11  C13 UNK     1      20.271  -9.023  39.558  1.00  0.00     0.417 C 
HETATM   12  F4  UNK     1      19.539 -10.172  39.666  1.00  0.00    -0.166 F 
HETATM   13  F5  UNK     1      21.433  -9.277  40.228  1.00  0.00    -0.166 F 
HETATM   14  F6  UNK     1      19.609  -8.096  40.311  1.00  0.00    -0.166 F 
ENDBRANCH   7  11
BRANCH   9  15
HETATM   15  C12 UNK     1      21.765  -9.989  34.887  1.00  0.00     0.417 C 
HETATM   16  F1  UNK     1      23.036 -10.401  35.175  1.00  0.00    -0.166 F 
HETATM   17  F2  UNK     1      21.041 -11.139  34.750  1.00  0.00    -0.166 F 
HETATM   18  F3  UNK     1      21.832  -9.447  33.636  1.00  0.00    -0.166 F 
ENDBRANCH   9  15
ENDBRANCH   2   5
BRANCH   3  19
HETATM   19  C8  UNK     1      19.975  -3.195  35.889  1.00  0.00     0.108 A 
HETATM   20  C14 UNK     1      20.155  -2.868  34.456  1.00  0.00     0.304 A 
HETATM   21  O1  UNK     1      19.516  -1.722  33.992  1.00  0.00    -0.274 OA
HETATM   22  O3  UNK     1      20.833  -3.568  33.712  1.00  0.00    -0.259 OA
HETATM   23  C10 UNK     1      18.735  -0.912  34.839  1.00  0.00     0.089 A 
HETATM   24  C7  UNK     1      18.579  -1.238  36.182  1.00  0.00     0.001 A 
HETATM   25  C16 UNK     1      18.133   0.216  34.282  1.00  0.00     0.040 A 
HETATM   26  C15 UNK     1      17.797  -0.409  36.991  1.00  0.00     0.038 A 
HETATM   27  C9  UNK     1      19.235  -2.428  36.698  1.00  0.00     0.037 A 
HETATM   28  C17 UNK     1      17.187   0.725  36.446  1.00  0.00     0.035 A 
HETATM   29 Cl1  UNK     1      16.224   1.744  37.446  1.00  0.00    -0.084 Cl
HETATM   30  C18 UNK     1      17.355   1.037  35.096  1.00  0.00     0.026 A 
ENDBRANCH   3  19
TORSDOF 4
ENDMDL
MODEL 8
REMARK VINA RESULT:      -9.3     10.582     13.641
REMARK  4 active torsions:
REMARK  status: ('A' for Active; 'I' for Inactive)
REMARK    1  A    between atoms: C1_12  and  N1_11 
REMARK       I    between atoms: C11_22  and  N1_11 
REMARK    2  A    between atoms: C12_23  and  C2_13 
REMARK    3  A    between atoms: C13_24  and  C3_14 
REMARK    4  A    between atoms: C11_22  and  C8_19 
ROOT
HETATM    1  O2  UNK     1      21.443  -4.243  37.433  1.00  0.00    -0.267 OA
HETATM    2  N1  UNK     1      20.015  -5.563  36.104  1.00  0.00    -0.323 N 
HETATM    3  C11 UNK     1      20.560  -4.381  36.588  1.00  0.00     0.262 C 
HETATM    4  H4  UNK     1      19.269  -5.504  35.415  1.00  0.00     0.169 HD
ENDROOT
BRANCH   2   5
HETATM    5  C1  UNK     1      20.353  -6.887  36.478  1.00  0.00     0.036 A 
HETATM    6  C4  UNK     1      20.880  -7.744  35.528  1.00  0.00     0.045 A 
HETATM    7  C3  UNK     1      21.212  -9.049  35.896  1.00  0.00     0.050 A 
HETATM    8  C6  UNK     1      21.012  -9.474  37.210  1.00  0.00     0.032 A 
HETATM    9  C2  UNK     1      20.480  -8.597  38.154  1.00  0.00     0.050 A 
HETATM   10  C5  UNK     1      20.147  -7.293  37.786  1.00  0.00     0.045 A 
BRANCH   7  11
HETATM   11  C13 UNK     1      21.781  -9.986  34.886  1.00  0.00     0.417 C 
HETATM   12  F4  UNK     1      21.052 -11.131  34.730  1.00  0.00    -0.166 F 
HETATM   13  F5  UNK     1      21.874  -9.450  33.634  1.00  0.00    -0.166 F 
HETATM   14  F6  UNK     1      23.043 -10.398  35.203  1.00  0.00    -0.166 F 
ENDBRANCH   7  11
BRANCH   9  15
HETATM   15  C12 UNK     1      20.266  -9.052  39.557  1.00  0.00     0.417 C 
HETATM   16  F1  UNK     1      19.543 -10.208  39.655  1.00  0.00    -0.166 F 
HETATM   17  F2  UNK     1      21.426  -9.301  40.234  1.00  0.00    -0.166 F 
HETATM   18  F3  UNK     1      19.592  -8.135  40.311  1.00  0.00    -0.166 F 
ENDBRANCH   9  15
ENDBRANCH   2   5
BRANCH   3  19
HETATM   19  C8  UNK     1      19.959  -3.197  35.963  1.00  0.00     0.108 A 
HETATM   20  C14 UNK     1      20.153  -2.881  34.530  1.00  0.00     0.304 A 
HETATM   21  O1  UNK     1      19.532  -1.730  34.054  1.00  0.00    -0.274 OA
HETATM   22  O3  UNK     1      20.828  -3.594  33.795  1.00  0.00    -0.259 OA
HETATM   23  C10 UNK     1      18.755  -0.905  34.890  1.00  0.00     0.089 A 
HETATM   24  C7  UNK     1      18.584  -1.220  36.233  1.00  0.00     0.001 A 
HETATM   25  C16 UNK     1      18.171   0.227  34.321  1.00  0.00     0.040 A 
HETATM   26  C15 UNK     1      17.806  -0.378  37.031  1.00  0.00     0.038 A 
HETATM   27  C9  UNK     1      19.222  -2.416  36.762  1.00  0.00     0.037 A 
HETATM   28  C17 UNK     1      17.215   0.761  36.475  1.00  0.00     0.035 A 
HETATM   29 Cl1  UNK     1      16.257   1.798  37.462  1.00  0.00    -0.084 Cl
HETATM   30  C18 UNK     1      17.397   1.062  35.124  1.00  0.00     0.026 A 
ENDBRANCH   3  19
TORSDOF 4
ENDMDL
MODEL 9
REMARK VINA RESULT:      -9.3      9.536     12.637
REMARK  4 active torsions:
REMARK  status: ('A' for Active; 'I' for Inactive)
REMARK    1  A    between atoms: C1_12  and  N1_11 
REMARK       I    between atoms: C11_22  and  N1_11 
REMARK    2  A    between atoms: C12_23  and  C2_13 
REMARK    3  A    between atoms: C13_24  and  C3_14 
REMARK    4  A    between atoms: C11_22  and  C8_19 
ROOT
HETATM    1  O2  UNK     1      20.211  -2.874  37.595  1.00  0.00    -0.267 OA
HETATM    2  N1  UNK     1      20.045  -4.610  36.011  1.00  0.00    -0.323 N 
HETATM    3  C11 UNK     1      19.993  -3.297  36.461  1.00  0.00     0.262 C 
HETATM    4  H4  UNK     1      19.814  -4.796  35.038  1.00  0.00     0.169 HD
ENDROOT
BRANCH   2   5
HETATM    5  C1  UNK     1      20.360  -5.768  36.763  1.00  0.00     0.036 A 
HETATM    6  C4  UNK     1      21.449  -5.746  37.616  1.00  0.00     0.045 A 
HETATM    7  C3  UNK     1      21.760  -6.888  38.355  1.00  0.00     0.050 A 
HETATM    8  C6  UNK     1      20.975  -8.034  38.230  1.00  0.00     0.032 A 
HETATM    9  C2  UNK     1      19.881  -8.039  37.365  1.00  0.00     0.050 A 
HETATM   10  C5  UNK     1      19.571  -6.898  36.625  1.00  0.00     0.045 A 
BRANCH   7  11
HETATM   11  C13 UNK     1      22.930  -6.882  39.280  1.00  0.00     0.417 C 
HETATM   12  F4  UNK     1      23.910  -7.766  38.929  1.00  0.00    -0.166 F 
HETATM   13  F5  UNK     1      23.556  -5.671  39.361  1.00  0.00    -0.166 F 
HETATM   14  F6  UNK     1      22.588  -7.204  40.562  1.00  0.00    -0.166 F 
ENDBRANCH   7  11
BRANCH   9  15
HETATM   15  C12 UNK     1      19.042  -9.265  37.231  1.00  0.00     0.417 C 
HETATM   16  F1  UNK     1      18.002  -9.124  36.356  1.00  0.00    -0.166 F 
HETATM   17  F2  UNK     1      19.735 -10.355  36.789  1.00  0.00    -0.166 F 
HETATM   18  F3  UNK     1      18.476  -9.645  38.414  1.00  0.00    -0.166 F 
ENDBRANCH   9  15
ENDBRANCH   2   5
BRANCH   3  19
HETATM   19  C8  UNK     1      19.631  -2.359  35.392  1.00  0.00     0.108 A 
HETATM   20  C14 UNK     1      18.689  -1.239  35.615  1.00  0.00     0.304 A 
HETATM   21  O1  UNK     1      18.425  -0.418  34.522  1.00  0.00    -0.274 OA
HETATM   22  O3  UNK     1      18.163  -1.042  36.705  1.00  0.00    -0.259 OA
HETATM   23  C10 UNK     1      19.024  -0.636  33.266  1.00  0.00     0.089 A 
HETATM   24  C7  UNK     1      19.907  -1.694  33.079  1.00  0.00     0.001 A 
HETATM   25  C16 UNK     1      18.698   0.241  32.232  1.00  0.00     0.040 A 
HETATM   26  C15 UNK     1      20.481  -1.878  31.818  1.00  0.00     0.038 A 
HETATM   27  C9  UNK     1      20.203  -2.571  34.200  1.00  0.00     0.037 A 
HETATM   28  C17 UNK     1      20.164  -1.007  30.772  1.00  0.00     0.035 A 
HETATM   29 Cl1  UNK     1      20.873  -1.237  29.219  1.00  0.00    -0.084 Cl
HETATM   30  C18 UNK     1      19.275   0.050  30.978  1.00  0.00     0.026 A 
ENDBRANCH   3  19
TORSDOF 4
ENDMDL
MODEL 10
REMARK VINA RESULT:      -9.3      9.578     12.321
REMARK  4 active torsions:
REMARK  status: ('A' for Active; 'I' for Inactive)
REMARK    1  A    between atoms: C1_12  and  N1_11 
REMARK       I    between atoms: C11_22  and  N1_11 
REMARK    2  A    between atoms: C12_23  and  C2_13 
REMARK    3  A    between atoms: C13_24  and  C3_14 
REMARK    4  A    between atoms: C11_22  and  C8_19 
ROOT
HETATM    1  O2  UNK     1      20.220  -2.928  37.642  1.00  0.00    -0.267 OA
HETATM    2  N1  UNK     1      20.095  -4.654  36.045  1.00  0.00    -0.323 N 
HETATM    3  C11 UNK     1      20.023  -3.345  36.502  1.00  0.00     0.262 C 
HETATM    4  H4  UNK     1      19.880  -4.836  35.067  1.00  0.00     0.169 HD
ENDROOT
BRANCH   2   5
HETATM    5  C1  UNK     1      20.412  -5.814  36.793  1.00  0.00     0.036 A 
HETATM    6  C4  UNK     1      19.624  -6.944  36.656  1.00  0.00     0.045 A 
HETATM    7  C3  UNK     1      19.936  -8.086  37.393  1.00  0.00     0.050 A 
HETATM    8  C6  UNK     1      21.032  -8.081  38.255  1.00  0.00     0.032 A 
HETATM    9  C2  UNK     1      21.815  -6.934  38.382  1.00  0.00     0.050 A 
HETATM   10  C5  UNK     1      21.502  -5.791  37.645  1.00  0.00     0.045 A 
BRANCH   7  11
HETATM   11  C13 UNK     1      19.098  -9.313  37.257  1.00  0.00     0.417 C 
HETATM   12  F4  UNK     1      18.550  -9.734  38.436  1.00  0.00    -0.166 F 
HETATM   13  F5  UNK     1      18.040  -9.161  36.407  1.00  0.00    -0.166 F 
HETATM   14  F6  UNK     1      19.802 -10.380  36.779  1.00  0.00    -0.166 F 
ENDBRANCH   7  11
BRANCH   9  15
HETATM   15  C12 UNK     1      22.986  -6.929  39.304  1.00  0.00     0.417 C 
HETATM   16  F1  UNK     1      23.954  -7.833  38.966  1.00  0.00    -0.166 F 
HETATM   17  F2  UNK     1      23.629  -5.726  39.366  1.00  0.00    -0.166 F 
HETATM   18  F3  UNK     1      22.642  -7.228  40.591  1.00  0.00    -0.166 F 
ENDBRANCH   9  15
ENDBRANCH   2   5
BRANCH   3  19
HETATM   19  C8  UNK     1      19.666  -2.404  35.434  1.00  0.00     0.108 A 
HETATM   20  C14 UNK     1      18.735  -1.275  35.661  1.00  0.00     0.304 A 
HETATM   21  O1  UNK     1      18.474  -0.451  34.569  1.00  0.00    -0.274 OA
HETATM   22  O3  UNK     1      18.216  -1.072  36.753  1.00  0.00    -0.259 OA
HETATM   23  C10 UNK     1      19.066  -0.676  33.310  1.00  0.00     0.089 A 
HETATM   24  C7  UNK     1      19.938  -1.742  33.120  1.00  0.00     0.001 A 
HETATM   25  C16 UNK     1      18.744   0.204  32.278  1.00  0.00     0.040 A 
HETATM   26  C15 UNK     1      20.505  -1.932  31.857  1.00  0.00     0.038 A 
HETATM   27  C9  UNK     1      20.230  -2.622  34.240  1.00  0.00     0.037 A 
HETATM   28  C17 UNK     1      20.191  -1.059  30.812  1.00  0.00     0.035 A 
HETATM   29 Cl1  UNK     1      20.891  -1.297  29.256  1.00  0.00    -0.084 Cl
HETATM   30  C18 UNK     1      19.314   0.007  31.021  1.00  0.00     0.026 A 
ENDBRANCH   3  19
TORSDOF 4
ENDMDL
