MODEL 1
REMARK VINA RESULT:      -8.7      0.000      0.000
REMARK  6 active torsions:
REMARK  status: ('A' for Active; 'I' for Inactive)
REMARK    1  A    between atoms: C2_6  and  O1_2 
REMARK    2  A    between atoms: C3_7  and  O1_2 
REMARK    3  A    between atoms: C5_9  and  O2_3 
REMARK    4  A    between atoms: C1_5  and  C2_6 
REMARK    5  A    between atoms: C14_18  and  C4_8 
REMARK    6  A    between atoms: C15_19  and  C16_20 
ROOT
HETATM    1  N1  UNK     1      15.320   6.924  32.230  1.00  0.00    -0.191 NA
HETATM    2  C14 UNK     1      18.753   6.479  32.781  1.00  0.00     0.036 C 
HETATM    3  C15 UNK     1      17.771   7.387  32.897  1.00  0.00     0.055 C 
HETATM    4  C24 UNK     1      16.421   7.136  32.529  1.00  0.00     0.100 C 
ENDROOT
BRANCH   3   5
HETATM    5  C16 UNK     1      18.106   8.680  33.476  1.00  0.00    -0.015 A 
HETATM    6  C18 UNK     1      17.124   9.661  33.603  1.00  0.00     0.013 A 
HETATM    7  C20 UNK     1      17.444  10.900  34.159  1.00  0.00     0.001 A 
HETATM    8  C23 UNK     1      18.747  11.157  34.586  1.00  0.00     0.000 A 
HETATM    9  C21 UNK     1      19.729  10.174  34.458  1.00  0.00     0.001 A 
HETATM   10  C19 UNK     1      19.408   8.936  33.903  1.00  0.00     0.013 A 
ENDBRANCH   3   5
BRANCH   2  11
HETATM   11  C4  UNK     1      18.643   5.146  32.250  1.00  0.00    -0.015 A 
HETATM   12  C10 UNK     1      19.027   4.807  30.941  1.00  0.00     0.024 A 
HETATM   13 Br1  UNK     1      19.734   6.106  29.746  1.00  0.00    -0.050 Br
HETATM   14  C7  UNK     1      18.898   3.498  30.479  1.00  0.00     0.059 A 
HETATM   15  C3  UNK     1      18.386   2.509  31.319  1.00  0.00     0.103 A 
HETATM   16  C5  UNK     1      18.000   2.831  32.620  1.00  0.00     0.102 A 
HETATM   17  C6  UNK     1      18.129   4.140  33.082  1.00  0.00     0.052 A 
BRANCH  15  18
HETATM   18  O1  UNK     1      18.264   1.234  30.856  1.00  0.00    -0.344 OA
BRANCH  18  19
HETATM   19  C2  UNK     1      19.245   0.788  29.920  1.00  0.00     0.214 C 
BRANCH  19  20
HETATM   20  C1  UNK     1      19.814  -0.517  30.391  1.00  0.00    -0.034 A 
HETATM   21  C8  UNK     1      19.797  -0.826  31.747  1.00  0.00     0.010 A 
HETATM   22  C12 UNK     1      20.326  -2.041  32.185  1.00  0.00     0.007 A 
HETATM   23  C11 UNK     1      20.869  -2.938  31.265  1.00  0.00    -0.062 A 
HETATM   24  C13 UNK     1      20.882  -2.620  29.906  1.00  0.00     0.007 A 
HETATM   25  C17 UNK     1      21.435  -4.235  31.733  1.00  0.00     0.048 C 
HETATM   26  C9  UNK     1      20.353  -1.406  29.468  1.00  0.00     0.010 A 
ENDBRANCH  19  20
ENDBRANCH  18  19
ENDBRANCH  15  18
BRANCH  16  27
HETATM   27  O2  UNK     1      17.497   1.873  33.449  1.00  0.00    -0.353 OA
HETATM   28  C22 UNK     1      18.344   1.417  34.502  1.00  0.00     0.210 C 
ENDBRANCH  16  27
ENDBRANCH   2  11
TORSDOF 6
ENDMDL
MODEL 2
REMARK VINA RESULT:      -8.5      2.716      9.991
REMARK  6 active torsions:
REMARK  status: ('A' for Active; 'I' for Inactive)
REMARK    1  A    between atoms: C2_6  and  O1_2 
REMARK    2  A    between atoms: C3_7  and  O1_2 
REMARK    3  A    between atoms: C5_9  and  O2_3 
REMARK    4  A    between atoms: C1_5  and  C2_6 
REMARK    5  A    between atoms: C14_18  and  C4_8 
REMARK    6  A    between atoms: C15_19  and  C16_20 
ROOT
HETATM    1  N1  UNK     1      17.929   2.225  33.795  1.00  0.00    -0.191 NA
HETATM    2  C14 UNK     1      18.595   4.298  31.049  1.00  0.00     0.036 C 
HETATM    3  C15 UNK     1      18.511   3.006  31.404  1.00  0.00     0.055 C 
HETATM    4  C24 UNK     1      18.192   2.573  32.720  1.00  0.00     0.100 C 
ENDROOT
BRANCH   3   5
HETATM    5  C16 UNK     1      18.712   2.002  30.370  1.00  0.00    -0.015 A 
HETATM    6  C18 UNK     1      17.953   2.047  29.200  1.00  0.00     0.013 A 
HETATM    7  C20 UNK     1      18.145   1.086  28.208  1.00  0.00     0.001 A 
HETATM    8  C23 UNK     1      19.096   0.080  28.386  1.00  0.00     0.000 A 
HETATM    9  C21 UNK     1      19.855   0.037  29.555  1.00  0.00     0.001 A 
HETATM   10  C19 UNK     1      19.663   0.998  30.547  1.00  0.00     0.013 A 
ENDBRANCH   3   5
BRANCH   2  11
HETATM   11  C4  UNK     1      18.424   5.445  31.902  1.00  0.00    -0.015 A 
HETATM   12  C10 UNK     1      19.491   6.263  32.310  1.00  0.00     0.024 A 
HETATM   13 Br1  UNK     1      21.277   5.913  31.762  1.00  0.00    -0.050 Br
HETATM   14  C7  UNK     1      19.267   7.363  33.137  1.00  0.00     0.059 A 
HETATM   15  C3  UNK     1      17.974   7.661  33.566  1.00  0.00     0.103 A 
HETATM   16  C5  UNK     1      16.905   6.858  33.168  1.00  0.00     0.102 A 
HETATM   17  C6  UNK     1      17.129   5.758  32.341  1.00  0.00     0.052 A 
BRANCH  15  18
HETATM   18  O1  UNK     1      17.767   8.738  34.374  1.00  0.00    -0.344 OA
BRANCH  18  19
HETATM   19  C2  UNK     1      18.147  10.014  33.862  1.00  0.00     0.214 C 
BRANCH  19  20
HETATM   20  C1  UNK     1      17.103  11.023  34.240  1.00  0.00    -0.034 A 
HETATM   21  C8  UNK     1      17.473  12.345  34.465  1.00  0.00     0.010 A 
HETATM   22  C12 UNK     1      16.502  13.283  34.816  1.00  0.00     0.007 A 
HETATM   23  C11 UNK     1      15.168  12.895  34.939  1.00  0.00    -0.062 A 
HETATM   24  C13 UNK     1      14.805  11.567  34.711  1.00  0.00     0.007 A 
HETATM   25  C17 UNK     1      14.131  13.898  35.314  1.00  0.00     0.048 C 
HETATM   26  C9  UNK     1      15.775  10.628  34.359  1.00  0.00     0.010 A 
ENDBRANCH  19  20
ENDBRANCH  18  19
ENDBRANCH  15  18
BRANCH  16  27
HETATM   27  O2  UNK     1      15.637   7.139  33.581  1.00  0.00    -0.353 OA
HETATM   28  C22 UNK     1      14.678   7.443  32.571  1.00  0.00     0.210 C 
ENDBRANCH  16  27
ENDBRANCH   2  11
TORSDOF 6
ENDMDL
MODEL 3
REMARK VINA RESULT:      -8.4      5.405     10.904
REMARK  6 active torsions:
REMARK  status: ('A' for Active; 'I' for Inactive)
REMARK    1  A    between atoms: C2_6  and  O1_2 
REMARK    2  A    between atoms: C3_7  and  O1_2 
REMARK    3  A    between atoms: C5_9  and  O2_3 
REMARK    4  A    between atoms: C1_5  and  C2_6 
REMARK    5  A    between atoms: C14_18  and  C4_8 
REMARK    6  A    between atoms: C15_19  and  C16_20 
ROOT
HETATM    1  N1  UNK     1      17.516  -5.619  36.434  1.00  0.00    -0.191 NA
HETATM    2  C14 UNK     1      20.400  -3.657  36.771  1.00  0.00     0.036 C 
HETATM    3  C15 UNK     1      19.859  -4.821  37.166  1.00  0.00     0.055 C 
HETATM    4  C24 UNK     1      18.568  -5.262  36.765  1.00  0.00     0.100 C 
ENDROOT
BRANCH   3   5
HETATM    5  C16 UNK     1      20.663  -5.691  38.009  1.00  0.00    -0.015 A 
HETATM    6  C18 UNK     1      22.020  -5.424  38.194  1.00  0.00     0.013 A 
HETATM    7  C20 UNK     1      22.791  -6.258  39.003  1.00  0.00     0.001 A 
HETATM    8  C23 UNK     1      22.205  -7.359  39.628  1.00  0.00     0.000 A 
HETATM    9  C21 UNK     1      20.849  -7.626  39.443  1.00  0.00     0.001 A 
HETATM   10  C19 UNK     1      20.078  -6.792  38.634  1.00  0.00     0.013 A 
ENDBRANCH   3   5
BRANCH   2  11
HETATM   11  C4  UNK     1      19.791  -2.657  35.933  1.00  0.00    -0.015 A 
HETATM   12  C10 UNK     1      18.870  -1.711  36.415  1.00  0.00     0.024 A 
HETATM   13 Br1  UNK     1      18.345  -1.676  38.241  1.00  0.00    -0.050 Br
HETATM   14  C7  UNK     1      18.310  -0.764  35.558  1.00  0.00     0.059 A 
HETATM   15  C3  UNK     1      18.664  -0.748  34.209  1.00  0.00     0.103 A 
HETATM   16  C5  UNK     1      19.577  -1.682  33.717  1.00  0.00     0.102 A 
HETATM   17  C6  UNK     1      20.137  -2.629  34.574  1.00  0.00     0.052 A 
BRANCH  15  18
HETATM   18  O1  UNK     1      18.111   0.181  33.381  1.00  0.00    -0.344 OA
BRANCH  18  19
HETATM   19  C2  UNK     1      17.851   1.470  33.936  1.00  0.00     0.214 C 
BRANCH  19  20
HETATM   20  C1  UNK     1      18.176   2.518  32.913  1.00  0.00    -0.034 A 
HETATM   21  C8  UNK     1      18.444   2.140  31.602  1.00  0.00     0.010 A 
HETATM   22  C12 UNK     1      18.746   3.115  30.651  1.00  0.00     0.007 A 
HETATM   23  C11 UNK     1      18.777   4.461  31.016  1.00  0.00    -0.062 A 
HETATM   24  C13 UNK     1      18.507   4.832  32.334  1.00  0.00     0.007 A 
HETATM   25  C17 UNK     1      19.100   5.502  30.000  1.00  0.00     0.048 C 
HETATM   26  C9  UNK     1      18.204   3.857  33.286  1.00  0.00     0.010 A 
ENDBRANCH  19  20
ENDBRANCH  18  19
ENDBRANCH  15  18
BRANCH  16  27
HETATM   27  O2  UNK     1      19.930  -1.677  32.401  1.00  0.00    -0.353 OA
HETATM   28  C22 UNK     1      20.964  -2.575  32.003  1.00  0.00     0.210 C 
ENDBRANCH  16  27
ENDBRANCH   2  11
TORSDOF 6
ENDMDL
MODEL 4
REMARK VINA RESULT:      -8.0     16.181     18.437
REMARK  6 active torsions:
REMARK  status: ('A' for Active; 'I' for Inactive)
REMARK    1  A    between atoms: C2_6  and  O1_2 
REMARK    2  A    between atoms: C3_7  and  O1_2 
REMARK    3  A    between atoms: C5_9  and  O2_3 
REMARK    4  A    between atoms: C1_5  and  C2_6 
REMARK    5  A    between atoms: C14_18  and  C4_8 
REMARK    6  A    between atoms: C15_19  and  C16_20 
ROOT
HETATM    1  N1  UNK     1      27.172 -10.334  40.021  1.00  0.00    -0.191 NA
HETATM    2  C14 UNK     1      27.490  -8.919  36.831  1.00  0.00     0.036 C 
HETATM    3  C15 UNK     1      26.711  -9.741  37.551  1.00  0.00     0.055 C 
HETATM    4  C24 UNK     1      26.963 -10.071  38.911  1.00  0.00     0.100 C 
ENDROOT
BRANCH   3   5
HETATM    5  C16 UNK     1      25.520 -10.280  36.913  1.00  0.00    -0.015 A 
HETATM    6  C18 UNK     1      25.534 -11.574  36.393  1.00  0.00     0.013 A 
HETATM    7  C20 UNK     1      24.392 -12.092  35.782  1.00  0.00     0.001 A 
HETATM    8  C23 UNK     1      23.236 -11.316  35.691  1.00  0.00     0.000 A 
HETATM    9  C21 UNK     1      23.223 -10.022  36.211  1.00  0.00     0.001 A 
HETATM   10  C19 UNK     1      24.365  -9.504  36.822  1.00  0.00     0.013 A 
ENDBRANCH   3   5
BRANCH   2  11
HETATM   11  C4  UNK     1      28.701  -8.271  37.263  1.00  0.00    -0.015 A 
HETATM   12  C10 UNK     1      28.709  -7.085  38.018  1.00  0.00     0.024 A 
HETATM   13 Br1  UNK     1      27.094  -6.227  38.535  1.00  0.00    -0.050 Br
HETATM   14  C7  UNK     1      29.912  -6.501  38.410  1.00  0.00     0.059 A 
HETATM   15  C3  UNK     1      31.124  -7.094  38.055  1.00  0.00     0.103 A 
HETATM   16  C5  UNK     1      31.132  -8.271  37.306  1.00  0.00     0.102 A 
HETATM   17  C6  UNK     1      29.928  -8.855  36.914  1.00  0.00     0.052 A 
BRANCH  15  18
HETATM   18  O1  UNK     1      32.293  -6.513  38.444  1.00  0.00    -0.344 OA
BRANCH  18  19
HETATM   19  C2  UNK     1      32.664  -5.302  37.788  1.00  0.00     0.214 C 
BRANCH  19  20
HETATM   20  C1  UNK     1      33.484  -5.632  36.576  1.00  0.00    -0.034 A 
HETATM   21  C8  UNK     1      32.934  -5.472  35.308  1.00  0.00     0.010 A 
HETATM   22  C12 UNK     1      33.697  -5.778  34.182  1.00  0.00     0.007 A 
HETATM   23  C11 UNK     1      35.004  -6.243  34.328  1.00  0.00    -0.062 A 
HETATM   24  C13 UNK     1      35.549  -6.401  35.603  1.00  0.00     0.007 A 
HETATM   25  C17 UNK     1      35.819  -6.572  33.124  1.00  0.00     0.048 C 
HETATM   26  C9  UNK     1      34.786  -6.094  36.731  1.00  0.00     0.010 A 
ENDBRANCH  19  20
ENDBRANCH  18  19
ENDBRANCH  15  18
BRANCH  16  27
HETATM   27  O2  UNK     1      32.309  -8.858  36.953  1.00  0.00    -0.353 OA
HETATM   28  C22 UNK     1      32.471  -9.214  35.581  1.00  0.00     0.210 C 
ENDBRANCH  16  27
ENDBRANCH   2  11
TORSDOF 6
ENDMDL
MODEL 5
REMARK VINA RESULT:      -7.8     14.955     16.858
REMARK  6 active torsions:
REMARK  status: ('A' for Active; 'I' for Inactive)
REMARK    1  A    between atoms: C2_6  and  O1_2 
REMARK    2  A    between atoms: C3_7  and  O1_2 
REMARK    3  A    between atoms: C5_9  and  O2_3 
REMARK    4  A    between atoms: C1_5  and  C2_6 
REMARK    5  A    between atoms: C14_18  and  C4_8 
REMARK    6  A    between atoms: C15_19  and  C16_20 
ROOT
HETATM    1  N1  UNK     1      29.430  -6.172  34.361  1.00  0.00    -0.191 NA
HETATM    2  C14 UNK     1      30.658  -6.855  37.572  1.00  0.00     0.036 C 
HETATM    3  C15 UNK     1      31.055  -6.488  36.343  1.00  0.00     0.055 C 
HETATM    4  C24 UNK     1      30.162  -6.315  35.249  1.00  0.00     0.100 C 
ENDROOT
BRANCH   3   5
HETATM    5  C16 UNK     1      32.468  -6.209  36.140  1.00  0.00    -0.015 A 
HETATM    6  C18 UNK     1      33.431  -7.031  36.725  1.00  0.00     0.013 A 
HETATM    7  C20 UNK     1      34.786  -6.764  36.531  1.00  0.00     0.001 A 
HETATM    8  C23 UNK     1      35.178  -5.675  35.751  1.00  0.00     0.000 A 
HETATM    9  C21 UNK     1      34.214  -4.855  35.165  1.00  0.00     0.001 A 
HETATM   10  C19 UNK     1      32.859  -5.122  35.360  1.00  0.00     0.013 A 
ENDBRANCH   3   5
BRANCH   2  11
HETATM   11  C4  UNK     1      29.318  -7.168  37.994  1.00  0.00    -0.015 A 
HETATM   12  C10 UNK     1      28.463  -6.226  38.593  1.00  0.00     0.024 A 
HETATM   13 Br1  UNK     1      29.019  -4.435  38.901  1.00  0.00    -0.050 Br
HETATM   14  C7  UNK     1      27.173  -6.585  38.982  1.00  0.00     0.059 A 
HETATM   15  C3  UNK     1      26.719  -7.887  38.777  1.00  0.00     0.103 A 
HETATM   16  C5  UNK     1      27.556  -8.832  38.183  1.00  0.00     0.102 A 
HETATM   17  C6  UNK     1      28.846  -8.474  37.794  1.00  0.00     0.052 A 
BRANCH  15  18
HETATM   18  O1  UNK     1      25.457  -8.226  39.162  1.00  0.00    -0.344 OA
BRANCH  18  19
HETATM   19  C2  UNK     1      24.407  -7.328  38.802  1.00  0.00     0.214 C 
BRANCH  19  20
HETATM   20  C1  UNK     1      23.146  -8.111  38.586  1.00  0.00    -0.034 A 
HETATM   21  C8  UNK     1      22.894  -8.682  37.343  1.00  0.00     0.010 A 
HETATM   22  C12 UNK     1      21.722  -9.411  37.143  1.00  0.00     0.007 A 
HETATM   23  C11 UNK     1      20.809  -9.564  38.186  1.00  0.00    -0.062 A 
HETATM   24  C13 UNK     1      21.068  -8.988  39.430  1.00  0.00     0.007 A 
HETATM   25  C17 UNK     1      19.555 -10.342  37.972  1.00  0.00     0.048 C 
HETATM   26  C9  UNK     1      22.241  -8.260  39.631  1.00  0.00     0.010 A 
ENDBRANCH  19  20
ENDBRANCH  18  19
ENDBRANCH  15  18
BRANCH  16  27
HETATM   27  O2  UNK     1      27.123 -10.108  37.978  1.00  0.00    -0.353 OA
HETATM   28  C22 UNK     1      26.417 -10.366  36.766  1.00  0.00     0.210 C 
ENDBRANCH  16  27
ENDBRANCH   2  11
TORSDOF 6
ENDMDL
MODEL 6
REMARK VINA RESULT:      -7.8     23.604     25.032
REMARK  6 active torsions:
REMARK  status: ('A' for Active; 'I' for Inactive)
REMARK    1  A    between atoms: C2_6  and  O1_2 
REMARK    2  A    between atoms: C3_7  and  O1_2 
REMARK    3  A    between atoms: C5_9  and  O2_3 
REMARK    4  A    between atoms: C1_5  and  C2_6 
REMARK    5  A    between atoms: C14_18  and  C4_8 
REMARK    6  A    between atoms: C15_19  and  C16_20 
ROOT
HETATM    1  N1  UNK     1      13.343   5.722  10.193  1.00  0.00    -0.191 NA
HETATM    2  C14 UNK     1      12.404   8.880   8.998  1.00  0.00     0.036 C 
HETATM    3  C15 UNK     1      13.474   8.174   9.395  1.00  0.00     0.055 C 
HETATM    4  C24 UNK     1      13.405   6.824   9.836  1.00  0.00     0.100 C 
ENDROOT
BRANCH   3   5
HETATM    5  C16 UNK     1      14.777   8.818   9.323  1.00  0.00    -0.015 A 
HETATM    6  C18 UNK     1      14.918  10.030   8.647  1.00  0.00     0.013 A 
HETATM    7  C20 UNK     1      16.166  10.648   8.578  1.00  0.00     0.001 A 
HETATM    8  C23 UNK     1      17.274  10.053   9.184  1.00  0.00     0.000 A 
HETATM    9  C21 UNK     1      17.131   8.842   9.859  1.00  0.00     0.001 A 
HETATM   10  C19 UNK     1      15.883   8.224   9.929  1.00  0.00     0.013 A 
ENDBRANCH   3   5
BRANCH   2  11
HETATM   11  C4  UNK     1      11.033   8.440   8.977  1.00  0.00    -0.015 A 
HETATM   12  C10 UNK     1      10.031   9.014   9.778  1.00  0.00     0.024 A 
HETATM   13 Br1  UNK     1      10.411  10.441  10.973  1.00  0.00    -0.050 Br
HETATM   14  C7  UNK     1       8.718   8.547   9.716  1.00  0.00     0.059 A 
HETATM   15  C3  UNK     1       8.389   7.501   8.854  1.00  0.00     0.103 A 
HETATM   16  C5  UNK     1       9.374   6.922   8.053  1.00  0.00     0.102 A 
HETATM   17  C6  UNK     1      10.686   7.389   8.114  1.00  0.00     0.052 A 
BRANCH  15  18
HETATM   18  O1  UNK     1       7.104   7.054   8.803  1.00  0.00    -0.344 OA
BRANCH  18  19
HETATM   19  C2  UNK     1       6.273   7.341   9.927  1.00  0.00     0.214 C 
BRANCH  19  20
HETATM   20  C1  UNK     1       5.998   6.069  10.671  1.00  0.00    -0.034 A 
HETATM   21  C8  UNK     1       5.300   6.111  11.873  1.00  0.00     0.010 A 
HETATM   22  C12 UNK     1       5.044   4.927  12.565  1.00  0.00     0.007 A 
HETATM   23  C11 UNK     1       5.488   3.709  12.052  1.00  0.00    -0.062 A 
HETATM   24  C13 UNK     1       6.189   3.674  10.846  1.00  0.00     0.007 A 
HETATM   25  C17 UNK     1       5.216   2.443  12.792  1.00  0.00     0.048 C 
HETATM   26  C9  UNK     1       6.444   4.858  10.153  1.00  0.00     0.010 A 
ENDBRANCH  19  20
ENDBRANCH  18  19
ENDBRANCH  15  18
BRANCH  16  27
HETATM   27  O2  UNK     1       9.064   5.900   7.208  1.00  0.00    -0.353 OA
HETATM   28  C22 UNK     1       9.643   5.938   5.904  1.00  0.00     0.210 C 
ENDBRANCH  16  27
ENDBRANCH   2  11
TORSDOF 6
ENDMDL
MODEL 7
REMARK VINA RESULT:      -7.8      3.276     10.550
REMARK  6 active torsions:
REMARK  status: ('A' for Active; 'I' for Inactive)
REMARK    1  A    between atoms: C2_6  and  O1_2 
REMARK    2  A    between atoms: C3_7  and  O1_2 
REMARK    3  A    between atoms: C5_9  and  O2_3 
REMARK    4  A    between atoms: C1_5  and  C2_6 
REMARK    5  A    between atoms: C14_18  and  C4_8 
REMARK    6  A    between atoms: C15_19  and  C16_20 
ROOT
HETATM    1  N1  UNK     1      20.330   6.206  29.676  1.00  0.00    -0.191 NA
HETATM    2  C14 UNK     1      17.917   4.925  31.872  1.00  0.00     0.036 C 
HETATM    3  C15 UNK     1      18.702   4.575  30.841  1.00  0.00     0.055 C 
HETATM    4  C24 UNK     1      19.598   5.471  30.196  1.00  0.00     0.100 C 
ENDROOT
BRANCH   3   5
HETATM    5  C16 UNK     1      18.662   3.190  30.397  1.00  0.00    -0.015 A 
HETATM    6  C18 UNK     1      18.209   2.883  29.114  1.00  0.00     0.013 A 
HETATM    7  C20 UNK     1      18.171   1.556  28.687  1.00  0.00     0.001 A 
HETATM    8  C23 UNK     1      18.586   0.536  29.543  1.00  0.00     0.000 A 
HETATM    9  C21 UNK     1      19.039   0.844  30.826  1.00  0.00     0.001 A 
HETATM   10  C19 UNK     1      19.077   2.171  31.252  1.00  0.00     0.013 A 
ENDBRANCH   3   5
BRANCH   2  11
HETATM   11  C4  UNK     1      17.807   6.228  32.475  1.00  0.00    -0.015 A 
HETATM   12  C10 UNK     1      18.699   6.699  33.453  1.00  0.00     0.024 A 
HETATM   13 Br1  UNK     1      20.147   5.634  34.071  1.00  0.00    -0.050 Br
HETATM   14  C7  UNK     1      18.544   7.971  34.003  1.00  0.00     0.059 A 
HETATM   15  C3  UNK     1      17.497   8.790  33.582  1.00  0.00     0.103 A 
HETATM   16  C5  UNK     1      16.604   8.336  32.611  1.00  0.00     0.102 A 
HETATM   17  C6  UNK     1      16.759   7.064  32.061  1.00  0.00     0.052 A 
BRANCH  15  18
HETATM   18  O1  UNK     1      17.356  10.030  34.126  1.00  0.00    -0.344 OA
BRANCH  18  19
HETATM   19  C2  UNK     1      18.450  10.934  33.974  1.00  0.00     0.214 C 
BRANCH  19  20
HETATM   20  C1  UNK     1      17.958  12.337  34.168  1.00  0.00    -0.034 A 
HETATM   21  C8  UNK     1      18.485  13.365  33.394  1.00  0.00     0.010 A 
HETATM   22  C12 UNK     1      18.026  14.670  33.574  1.00  0.00     0.007 A 
HETATM   23  C11 UNK     1      17.044  14.939  34.527  1.00  0.00    -0.062 A 
HETATM   24  C13 UNK     1      16.520  13.903  35.300  1.00  0.00     0.007 A 
HETATM   25  C17 UNK     1      16.555  16.334  34.720  1.00  0.00     0.048 C 
HETATM   26  C9  UNK     1      16.978  12.597  35.120  1.00  0.00     0.010 A 
ENDBRANCH  19  20
ENDBRANCH  18  19
ENDBRANCH  15  18
BRANCH  16  27
HETATM   27  O2  UNK     1      15.577   9.128  32.192  1.00  0.00    -0.353 OA
HETATM   28  C22 UNK     1      14.353   9.040  32.920  1.00  0.00     0.210 C 
ENDBRANCH  16  27
ENDBRANCH   2  11
TORSDOF 6
ENDMDL
MODEL 8
REMARK VINA RESULT:      -7.7     22.895     24.523
REMARK  6 active torsions:
REMARK  status: ('A' for Active; 'I' for Inactive)
REMARK    1  A    between atoms: C2_6  and  O1_2 
REMARK    2  A    between atoms: C3_7  and  O1_2 
REMARK    3  A    between atoms: C5_9  and  O2_3 
REMARK    4  A    between atoms: C1_5  and  C2_6 
REMARK    5  A    between atoms: C14_18  and  C4_8 
REMARK    6  A    between atoms: C15_19  and  C16_20 
ROOT
HETATM    1  N1  UNK     1      15.619  11.423   7.293  1.00  0.00    -0.191 NA
HETATM    2  C14 UNK     1      17.223   9.815   9.962  1.00  0.00     0.036 C 
HETATM    3  C15 UNK     1      17.405  10.773   9.040  1.00  0.00     0.055 C 
HETATM    4  C24 UNK     1      16.424  11.132   8.075  1.00  0.00     0.100 C 
ENDROOT
BRANCH   3   5
HETATM    5  C16 UNK     1      18.659  11.511   9.066  1.00  0.00    -0.015 A 
HETATM    6  C18 UNK     1      19.192  12.020   7.882  1.00  0.00     0.013 A 
HETATM    7  C20 UNK     1      20.394  12.728   7.906  1.00  0.00     0.001 A 
HETATM    8  C23 UNK     1      21.062  12.926   9.115  1.00  0.00     0.000 A 
HETATM    9  C21 UNK     1      20.527  12.417  10.298  1.00  0.00     0.001 A 
HETATM   10  C19 UNK     1      19.326  11.709  10.274  1.00  0.00     0.013 A 
ENDBRANCH   3   5
BRANCH   2  11
HETATM   11  C4  UNK     1      16.064   8.976  10.123  1.00  0.00    -0.015 A 
HETATM   12  C10 UNK     1      16.094   7.582   9.941  1.00  0.00     0.024 A 
HETATM   13 Br1  UNK     1      17.695   6.679   9.457  1.00  0.00    -0.050 Br
HETATM   14  C7  UNK     1      14.940   6.818  10.111  1.00  0.00     0.059 A 
HETATM   15  C3  UNK     1      13.741   7.435  10.467  1.00  0.00     0.103 A 
HETATM   16  C5  UNK     1      13.696   8.818  10.651  1.00  0.00     0.102 A 
HETATM   17  C6  UNK     1      14.850   9.582  10.481  1.00  0.00     0.052 A 
BRANCH  15  18
HETATM   18  O1  UNK     1      12.621   6.679  10.629  1.00  0.00    -0.344 OA
BRANCH  18  19
HETATM   19  C2  UNK     1      12.522   5.490   9.846  1.00  0.00     0.214 C 
BRANCH  19  20
HETATM   20  C1  UNK     1      11.664   5.765   8.646  1.00  0.00    -0.034 A 
HETATM   21  C8  UNK     1      12.249   5.856   7.388  1.00  0.00     0.010 A 
HETATM   22  C12 UNK     1      11.451   6.110   6.272  1.00  0.00     0.007 A 
HETATM   23  C11 UNK     1      10.074   6.273   6.421  1.00  0.00    -0.062 A 
HETATM   24  C13 UNK     1       9.494   6.181   7.687  1.00  0.00     0.007 A 
HETATM   25  C17 UNK     1       9.222   6.546   5.229  1.00  0.00     0.048 C 
HETATM   26  C9  UNK     1      10.292   5.925   8.803  1.00  0.00     0.010 A 
ENDBRANCH  19  20
ENDBRANCH  18  19
ENDBRANCH  15  18
BRANCH  16  27
HETATM   27  O2  UNK     1      12.530   9.431  10.997  1.00  0.00    -0.353 OA
HETATM   28  C22 UNK     1      12.390   9.836  12.358  1.00  0.00     0.210 C 
ENDBRANCH  16  27
ENDBRANCH   2  11
TORSDOF 6
ENDMDL
MODEL 9
REMARK VINA RESULT:      -7.7     15.284     18.086
REMARK  6 active torsions:
REMARK  status: ('A' for Active; 'I' for Inactive)
REMARK    1  A    between atoms: C2_6  and  O1_2 
REMARK    2  A    between atoms: C3_7  and  O1_2 
REMARK    3  A    between atoms: C5_9  and  O2_3 
REMARK    4  A    between atoms: C1_5  and  C2_6 
REMARK    5  A    between atoms: C14_18  and  C4_8 
REMARK    6  A    between atoms: C15_19  and  C16_20 
ROOT
HETATM    1  N1  UNK     1      27.478 -10.699  39.598  1.00  0.00    -0.191 NA
HETATM    2  C14 UNK     1      27.194  -8.717  36.721  1.00  0.00     0.036 C 
HETATM    3  C15 UNK     1      26.612  -9.744  37.360  1.00  0.00     0.055 C 
HETATM    4  C24 UNK     1      27.087 -10.273  38.592  1.00  0.00     0.100 C 
ENDROOT
BRANCH   3   5
HETATM    5  C16 UNK     1      25.404 -10.309  36.780  1.00  0.00    -0.015 A 
HETATM    6  C18 UNK     1      25.411 -11.615  36.292  1.00  0.00     0.013 A 
HETATM    7  C20 UNK     1      24.252 -12.157  35.736  1.00  0.00     0.001 A 
HETATM    8  C23 UNK     1      23.087 -11.393  35.668  1.00  0.00     0.000 A 
HETATM    9  C21 UNK     1      23.081 -10.087  36.157  1.00  0.00     0.001 A 
HETATM   10  C19 UNK     1      24.240  -9.545  36.713  1.00  0.00     0.013 A 
ENDBRANCH   3   5
BRANCH   2  11
HETATM   11  C4  UNK     1      28.382  -8.008  37.120  1.00  0.00    -0.015 A 
HETATM   12  C10 UNK     1      29.655  -8.286  36.593  1.00  0.00     0.024 A 
HETATM   13 Br1  UNK     1      29.915  -9.647  35.292  1.00  0.00    -0.050 Br
HETATM   14  C7  UNK     1      30.772  -7.566  37.016  1.00  0.00     0.059 A 
HETATM   15  C3  UNK     1      30.631  -6.558  37.969  1.00  0.00     0.103 A 
HETATM   16  C5  UNK     1      29.374  -6.270  38.500  1.00  0.00     0.102 A 
HETATM   17  C6  UNK     1      28.257  -6.990  38.078  1.00  0.00     0.052 A 
BRANCH  15  18
HETATM   18  O1  UNK     1      31.729  -5.862  38.375  1.00  0.00    -0.344 OA
BRANCH  18  19
HETATM   19  C2  UNK     1      32.149  -4.776  37.550  1.00  0.00     0.214 C 
BRANCH  19  20
HETATM   20  C1  UNK     1      33.193  -5.265  36.590  1.00  0.00    -0.034 A 
HETATM   21  C8  UNK     1      34.293  -5.967  37.069  1.00  0.00     0.010 A 
HETATM   22  C12 UNK     1      35.263  -6.422  36.176  1.00  0.00     0.007 A 
HETATM   23  C11 UNK     1      35.128  -6.172  34.810  1.00  0.00    -0.062 A 
HETATM   24  C13 UNK     1      34.021  -5.466  34.338  1.00  0.00     0.007 A 
HETATM   25  C17 UNK     1      36.165  -6.658  33.856  1.00  0.00     0.048 C 
HETATM   26  C9  UNK     1      33.050  -5.011  35.230  1.00  0.00     0.010 A 
ENDBRANCH  19  20
ENDBRANCH  18  19
ENDBRANCH  15  18
BRANCH  16  27
HETATM   27  O2  UNK     1      29.225  -5.288  39.433  1.00  0.00    -0.353 OA
HETATM   28  C22 UNK     1      28.853  -3.995  38.959  1.00  0.00     0.210 C 
ENDBRANCH  16  27
ENDBRANCH   2  11
TORSDOF 6
ENDMDL
MODEL 10
REMARK VINA RESULT:      -7.7      5.062      7.247
REMARK  6 active torsions:
REMARK  status: ('A' for Active; 'I' for Inactive)
REMARK    1  A    between atoms: C2_6  and  O1_2 
REMARK    2  A    between atoms: C3_7  and  O1_2 
REMARK    3  A    between atoms: C5_9  and  O2_3 
REMARK    4  A    between atoms: C1_5  and  C2_6 
REMARK    5  A    between atoms: C14_18  and  C4_8 
REMARK    6  A    between atoms: C15_19  and  C16_20 
ROOT
HETATM    1  N1  UNK     1      20.209   2.836  36.589  1.00  0.00    -0.191 NA
HETATM    2  C14 UNK     1      18.165   1.248  34.225  1.00  0.00     0.036 C 
HETATM    3  C15 UNK     1      18.638   2.455  34.575  1.00  0.00     0.055 C 
HETATM    4  C24 UNK     1      19.502   2.668  35.684  1.00  0.00     0.100 C 
ENDROOT
BRANCH   3   5
HETATM    5  C16 UNK     1      18.281   3.592  33.741  1.00  0.00    -0.015 A 
HETATM    6  C18 UNK     1      18.165   3.434  32.360  1.00  0.00     0.013 A 
HETATM    7  C20 UNK     1      17.823   4.524  31.560  1.00  0.00     0.001 A 
HETATM    8  C23 UNK     1      17.596   5.772  32.142  1.00  0.00     0.000 A 
HETATM    9  C21 UNK     1      17.711   5.929  33.523  1.00  0.00     0.001 A 
HETATM   10  C19 UNK     1      18.054   4.839  34.322  1.00  0.00     0.013 A 
ENDBRANCH   3   5
BRANCH   2  11
HETATM   11  C4  UNK     1      18.398  -0.004  34.897  1.00  0.00    -0.015 A 
HETATM   12  C10 UNK     1      17.744  -0.370  36.085  1.00  0.00     0.024 A 
HETATM   13 Br1  UNK     1      16.477   0.778  36.916  1.00  0.00    -0.050 Br
HETATM   14  C7  UNK     1      18.009  -1.597  36.693  1.00  0.00     0.059 A 
HETATM   15  C3  UNK     1      18.930  -2.474  36.121  1.00  0.00     0.103 A 
HETATM   16  C5  UNK     1      19.588  -2.123  34.941  1.00  0.00     0.102 A 
HETATM   17  C6  UNK     1      19.322  -0.896  34.334  1.00  0.00     0.052 A 
BRANCH  15  18
HETATM   18  O1  UNK     1      19.181  -3.669  36.724  1.00  0.00    -0.344 OA
BRANCH  18  19
HETATM   19  C2  UNK     1      20.455  -3.825  37.348  1.00  0.00     0.214 C 
BRANCH  19  20
HETATM   20  C1  UNK     1      20.581  -5.229  37.859  1.00  0.00    -0.034 A 
HETATM   21  C8  UNK     1      21.785  -5.657  38.408  1.00  0.00     0.010 A 
HETATM   22  C12 UNK     1      21.902  -6.963  38.884  1.00  0.00     0.007 A 
HETATM   23  C11 UNK     1      20.815  -7.833  38.808  1.00  0.00    -0.062 A 
HETATM   24  C13 UNK     1      19.610  -7.397  38.256  1.00  0.00     0.007 A 
HETATM   25  C17 UNK     1      20.941  -9.229  39.316  1.00  0.00     0.048 C 
HETATM   26  C9  UNK     1      19.492  -6.091  37.780  1.00  0.00     0.010 A 
ENDBRANCH  19  20
ENDBRANCH  18  19
ENDBRANCH  15  18
BRANCH  16  27
HETATM   27  O2  UNK     1      20.490  -2.971  34.374  1.00  0.00    -0.353 OA
HETATM   28  C22 UNK     1      20.844  -2.727  33.014  1.00  0.00     0.210 C 
ENDBRANCH  16  27
ENDBRANCH   2  11
TORSDOF 6
ENDMDL
