MODEL 1
REMARK VINA RESULT:      -9.4      0.000      0.000
REMARK  7 active torsions:
REMARK  status: ('A' for Active; 'I' for Inactive)
REMARK    1  A    between atoms: C12_17  and  O3_3 
REMARK    2  A    between atoms: C19_24  and  O3_3 
REMARK    3  A    between atoms: C11_16  and  O4_4 
REMARK    4  A    between atoms: C12_17  and  C3_8 
REMARK    5  A    between atoms: C15_20  and  C5_10 
REMARK    6  A    between atoms: C17_22  and  C8_13 
REMARK    7  A    between atoms: C15_20  and  C18_23 
ROOT
HETATM    1  C3  UNK     1      19.258  -1.791  35.046  1.00  0.00     0.000 A 
HETATM    2  C8  UNK     1      17.869  -0.555  36.588  1.00  0.00    -0.035 A 
HETATM    3  C9  UNK     1      18.362  -0.752  35.299  1.00  0.00     0.023 A 
HETATM    4  C11 UNK     1      19.659  -2.633  36.083  1.00  0.00     0.076 A 
HETATM    5  C14 UNK     1      18.270  -1.397  37.626  1.00  0.00     0.014 A 
HETATM    6  C16 UNK     1      19.166  -2.436  37.373  1.00  0.00     0.038 A 
ENDROOT
BRANCH   2   7
HETATM    7  C17 UNK     1      16.923   0.543  36.856  1.00  0.00     0.015 C 
HETATM    8  C18 UNK     1      17.153   1.833  36.569  1.00  0.00     0.056 C 
BRANCH   8   9
HETATM    9  C15 UNK     1      18.446   2.255  35.929  1.00  0.00     0.182 C 
HETATM   10  O5  UNK     1      19.530   2.013  36.480  1.00  0.00    -0.288 OA
BRANCH   9  11
HETATM   11  C5  UNK     1      18.397   2.926  34.639  1.00  0.00     0.017 A 
HETATM   12  C13 UNK     1      18.130   2.191  33.483  1.00  0.00     0.018 A 
HETATM   13  C10 UNK     1      18.090   2.829  32.242  1.00  0.00     0.040 A 
HETATM   14  C2  UNK     1      18.321   4.203  32.161  1.00  0.00     0.102 A 
HETATM   15  C1  UNK     1      18.561   4.941  33.322  1.00  0.00     0.103 A 
HETATM   16  O2  UNK     1      18.289   4.768  30.914  1.00  0.00    -0.346 OA
HETATM   17  O1  UNK     1      18.763   6.297  33.311  1.00  0.00    -0.346 OA
HETATM   18  C7  UNK     1      18.614   4.301  34.560  1.00  0.00     0.055 A 
HETATM   19  C4  UNK     1      18.349   6.888  32.075  1.00  0.00     0.202 C 
HETATM   20  C6  UNK     1      18.869   6.075  30.905  1.00  0.00     0.202 C 
ENDBRANCH   9  11
ENDBRANCH   8   9
ENDBRANCH   2   7
BRANCH   1  21
HETATM   21  C12 UNK     1      19.776  -1.987  33.660  1.00  0.00     0.217 C 
BRANCH  21  22
HETATM   22  O3  UNK     1      19.397  -0.880  32.854  1.00  0.00    -0.347 OA
BRANCH  22  23
HETATM   23  C19 UNK     1      19.788  -0.908  31.541  1.00  0.00     0.069 A 
HETATM   24  C20 UNK     1      19.798   0.268  30.791  1.00  0.00     0.037 A 
HETATM   25  C23 UNK     1      20.195   0.241  29.455  1.00  0.00     0.003 A 
HETATM   26  C25 UNK     1      20.584  -0.963  28.867  1.00  0.00     0.000 A 
HETATM   27  C24 UNK     1      20.574  -2.140  29.617  1.00  0.00     0.003 A 
HETATM   28  C21 UNK     1      20.175  -2.112  30.953  1.00  0.00     0.037 A 
ENDBRANCH  22  23
ENDBRANCH  21  22
ENDBRANCH   1  21
BRANCH   4  29
HETATM   29  O4  UNK     1      20.533  -3.653  35.853  1.00  0.00    -0.355 OA
HETATM   30  C22 UNK     1      20.082  -4.972  36.155  1.00  0.00     0.210 C 
ENDBRANCH   4  29
TORSDOF 7
ENDMDL
MODEL 2
REMARK VINA RESULT:      -9.4      2.106      6.042
REMARK  7 active torsions:
REMARK  status: ('A' for Active; 'I' for Inactive)
REMARK    1  A    between atoms: C12_17  and  O3_3 
REMARK    2  A    between atoms: C19_24  and  O3_3 
REMARK    3  A    between atoms: C11_16  and  O4_4 
REMARK    4  A    between atoms: C12_17  and  C3_8 
REMARK    5  A    between atoms: C15_20  and  C5_10 
REMARK    6  A    between atoms: C17_22  and  C8_13 
REMARK    7  A    between atoms: C15_20  and  C18_23 
ROOT
HETATM    1  C3  UNK     1      18.480   2.125  32.355  1.00  0.00     0.000 A 
HETATM    2  C8  UNK     1      18.638   3.143  30.170  1.00  0.00    -0.035 A 
HETATM    3  C9  UNK     1      18.293   3.226  31.518  1.00  0.00     0.023 A 
HETATM    4  C11 UNK     1      19.013   0.942  31.843  1.00  0.00     0.076 A 
HETATM    5  C14 UNK     1      19.171   1.959  29.657  1.00  0.00     0.014 A 
HETATM    6  C16 UNK     1      19.358   0.859  30.494  1.00  0.00     0.038 A 
ENDROOT
BRANCH   2   7
HETATM    7  C17 UNK     1      18.440   4.304  29.285  1.00  0.00     0.015 C 
HETATM    8  C18 UNK     1      18.938   5.528  29.514  1.00  0.00     0.056 C 
BRANCH   8   9
HETATM    9  C15 UNK     1      19.764   5.802  30.739  1.00  0.00     0.182 C 
HETATM   10  O5  UNK     1      20.961   5.477  30.778  1.00  0.00    -0.288 OA
BRANCH   9  11
HETATM   11  C5  UNK     1      19.139   6.481  31.863  1.00  0.00     0.017 A 
HETATM   12  C13 UNK     1      19.652   6.314  33.150  1.00  0.00     0.018 A 
HETATM   13  C10 UNK     1      19.050   6.958  34.232  1.00  0.00     0.040 A 
HETATM   14  C2  UNK     1      17.932   7.767  34.023  1.00  0.00     0.102 A 
HETATM   15  C1  UNK     1      17.436   7.955  32.732  1.00  0.00     0.103 A 
HETATM   16  O2  UNK     1      17.373   8.356  35.127  1.00  0.00    -0.346 OA
HETATM   17  O1  UNK     1      16.363   8.763  32.459  1.00  0.00    -0.346 OA
HETATM   18  C7  UNK     1      18.030   7.301  31.652  1.00  0.00     0.055 A 
HETATM   19  C4  UNK     1      16.060   9.635  33.551  1.00  0.00     0.202 C 
HETATM   20  C6  UNK     1      16.064   8.863  34.856  1.00  0.00     0.202 C 
ENDBRANCH   9  11
ENDBRANCH   8   9
ENDBRANCH   2   7
BRANCH   1  21
HETATM   21  C12 UNK     1      18.105   2.231  33.796  1.00  0.00     0.217 C 
BRANCH  21  22
HETATM   22  O3  UNK     1      17.119   1.254  34.101  1.00  0.00    -0.347 OA
BRANCH  22  23
HETATM   23  C19 UNK     1      17.268   0.571  35.279  1.00  0.00     0.069 A 
HETATM   24  C20 UNK     1      17.402   1.271  36.478  1.00  0.00     0.037 A 
HETATM   25  C23 UNK     1      17.554   0.578  37.678  1.00  0.00     0.003 A 
HETATM   26  C25 UNK     1      17.572  -0.817  37.680  1.00  0.00     0.000 A 
HETATM   27  C24 UNK     1      17.438  -1.517  36.481  1.00  0.00     0.003 A 
HETATM   28  C21 UNK     1      17.286  -0.823  35.281  1.00  0.00     0.037 A 
ENDBRANCH  22  23
ENDBRANCH  21  22
ENDBRANCH   1  21
BRANCH   4  29
HETATM   29  O4  UNK     1      19.203  -0.142  32.647  1.00  0.00    -0.355 OA
HETATM   30  C22 UNK     1      19.352  -1.406  32.004  1.00  0.00     0.210 C 
ENDBRANCH   4  29
TORSDOF 7
ENDMDL
MODEL 3
REMARK VINA RESULT:      -9.0      1.961      7.660
REMARK  7 active torsions:
REMARK  status: ('A' for Active; 'I' for Inactive)
REMARK    1  A    between atoms: C12_17  and  O3_3 
REMARK    2  A    between atoms: C19_24  and  O3_3 
REMARK    3  A    between atoms: C11_16  and  O4_4 
REMARK    4  A    between atoms: C12_17  and  C3_8 
REMARK    5  A    between atoms: C15_20  and  C5_10 
REMARK    6  A    between atoms: C17_22  and  C8_13 
REMARK    7  A    between atoms: C15_20  and  C18_23 
ROOT
HETATM    1  C3  UNK     1      18.289   4.768  33.427  1.00  0.00     0.000 A 
HETATM    2  C8  UNK     1      18.502   5.249  31.069  1.00  0.00    -0.035 A 
HETATM    3  C9  UNK     1      18.733   4.405  32.155  1.00  0.00     0.023 A 
HETATM    4  C11 UNK     1      17.613   5.974  33.612  1.00  0.00     0.076 A 
HETATM    5  C14 UNK     1      17.825   6.456  31.254  1.00  0.00     0.014 A 
HETATM    6  C16 UNK     1      17.381   6.818  32.525  1.00  0.00     0.038 A 
ENDROOT
BRANCH   2   7
HETATM    7  C17 UNK     1      18.971   4.867  29.726  1.00  0.00     0.015 C 
HETATM    8  C18 UNK     1      18.872   3.634  29.207  1.00  0.00     0.056 C 
BRANCH   8   9
HETATM    9  C15 UNK     1      18.250   2.519  29.999  1.00  0.00     0.182 C 
HETATM   10  O5  UNK     1      17.152   2.677  30.554  1.00  0.00    -0.288 OA
BRANCH   9  11
HETATM   11  C5  UNK     1      18.947   1.245  30.073  1.00  0.00     0.017 A 
HETATM   12  C13 UNK     1      19.448   0.657  28.911  1.00  0.00     0.018 A 
HETATM   13  C10 UNK     1      20.112  -0.569  28.977  1.00  0.00     0.040 A 
HETATM   14  C2  UNK     1      20.270  -1.207  30.208  1.00  0.00     0.102 A 
HETATM   15  C1  UNK     1      19.792  -0.605  31.374  1.00  0.00     0.103 A 
HETATM   16  O2  UNK     1      20.911  -2.418  30.206  1.00  0.00    -0.346 OA
HETATM   17  O1  UNK     1      19.946  -1.164  32.616  1.00  0.00    -0.346 OA
HETATM   18  C7  UNK     1      19.118   0.615  31.306  1.00  0.00     0.055 A 
HETATM   19  C4  UNK     1      20.929  -2.204  32.614  1.00  0.00     0.202 C 
HETATM   20  C6  UNK     1      20.714  -3.128  31.431  1.00  0.00     0.202 C 
ENDBRANCH   9  11
ENDBRANCH   8   9
ENDBRANCH   2   7
BRANCH   1  21
HETATM   21  C12 UNK     1      18.545   3.854  34.578  1.00  0.00     0.217 C 
BRANCH  21  22
HETATM   22  O3  UNK     1      18.303   2.511  34.177  1.00  0.00    -0.347 OA
BRANCH  22  23
HETATM   23  C19 UNK     1      17.878   1.643  35.146  1.00  0.00     0.069 A 
HETATM   24  C20 UNK     1      18.155   1.905  36.489  1.00  0.00     0.037 A 
HETATM   25  C23 UNK     1      17.723   1.021  37.476  1.00  0.00     0.003 A 
HETATM   26  C25 UNK     1      17.012  -0.126  37.123  1.00  0.00     0.000 A 
HETATM   27  C24 UNK     1      16.734  -0.389  35.781  1.00  0.00     0.003 A 
HETATM   28  C21 UNK     1      17.168   0.495  34.794  1.00  0.00     0.037 A 
ENDBRANCH  22  23
ENDBRANCH  21  22
ENDBRANCH   1  21
BRANCH   4  29
HETATM   29  O4  UNK     1      17.171   6.343  34.847  1.00  0.00    -0.355 OA
HETATM   30  C22 UNK     1      16.955   7.735  35.069  1.00  0.00     0.210 C 
ENDBRANCH   4  29
TORSDOF 7
ENDMDL
MODEL 4
REMARK VINA RESULT:      -8.7     24.529     26.781
REMARK  7 active torsions:
REMARK  status: ('A' for Active; 'I' for Inactive)
REMARK    1  A    between atoms: C12_17  and  O3_3 
REMARK    2  A    between atoms: C19_24  and  O3_3 
REMARK    3  A    between atoms: C11_16  and  O4_4 
REMARK    4  A    between atoms: C12_17  and  C3_8 
REMARK    5  A    between atoms: C15_20  and  C5_10 
REMARK    6  A    between atoms: C17_22  and  C8_13 
REMARK    7  A    between atoms: C15_20  and  C18_23 
ROOT
HETATM    1  C3  UNK     1      11.426   5.090   9.037  1.00  0.00     0.000 A 
HETATM    2  C8  UNK     1      13.805   5.509   9.059  1.00  0.00    -0.035 A 
HETATM    3  C9  UNK     1      12.659   5.024   9.687  1.00  0.00     0.023 A 
HETATM    4  C11 UNK     1      11.341   5.639   7.758  1.00  0.00     0.076 A 
HETATM    5  C14 UNK     1      13.720   6.059   7.779  1.00  0.00     0.014 A 
HETATM    6  C16 UNK     1      12.488   6.124   7.129  1.00  0.00     0.038 A 
ENDROOT
BRANCH   2   7
HETATM    7  C17 UNK     1      15.107   5.441   9.745  1.00  0.00     0.015 C 
HETATM    8  C18 UNK     1      15.673   6.462  10.405  1.00  0.00     0.056 C 
BRANCH   8   9
HETATM    9  C15 UNK     1      14.986   7.795  10.488  1.00  0.00     0.182 C 
HETATM   10  O5  UNK     1      13.992   7.948  11.216  1.00  0.00    -0.288 OA
BRANCH   9  11
HETATM   11  C5  UNK     1      15.527   8.907   9.723  1.00  0.00     0.017 A 
HETATM   12  C13 UNK     1      14.721   9.575   8.800  1.00  0.00     0.018 A 
HETATM   13  C10 UNK     1      15.239  10.637   8.058  1.00  0.00     0.040 A 
HETATM   14  C2  UNK     1      16.566  11.027   8.239  1.00  0.00     0.102 A 
HETATM   15  C1  UNK     1      17.364  10.376   9.182  1.00  0.00     0.103 A 
HETATM   16  O2  UNK     1      17.023  12.063   7.467  1.00  0.00    -0.346 OA
HETATM   17  O1  UNK     1      18.664  10.735   9.430  1.00  0.00    -0.346 OA
HETATM   18  C7  UNK     1      16.850   9.306   9.915  1.00  0.00     0.055 A 
HETATM   19  C4  UNK     1      18.971  12.027   8.898  1.00  0.00     0.202 C 
HETATM   20  C6  UNK     1      18.451  12.148   7.479  1.00  0.00     0.202 C 
ENDBRANCH   9  11
ENDBRANCH   8   9
ENDBRANCH   2   7
BRANCH   1  21
HETATM   21  C12 UNK     1      10.209   4.566   9.724  1.00  0.00     0.217 C 
BRANCH  21  22
HETATM   22  O3  UNK     1       9.320   5.642   9.994  1.00  0.00    -0.347 OA
BRANCH  22  23
HETATM   23  C19 UNK     1       8.017   5.315  10.262  1.00  0.00     0.069 A 
HETATM   24  C20 UNK     1       7.134   6.292  10.723  1.00  0.00     0.037 A 
HETATM   25  C23 UNK     1       5.807   5.960  10.997  1.00  0.00     0.003 A 
HETATM   26  C25 UNK     1       5.362   4.652  10.808  1.00  0.00     0.000 A 
HETATM   27  C24 UNK     1       6.245   3.675  10.347  1.00  0.00     0.003 A 
HETATM   28  C21 UNK     1       7.572   4.007  10.074  1.00  0.00     0.037 A 
ENDBRANCH  22  23
ENDBRANCH  21  22
ENDBRANCH   1  21
BRANCH   4  29
HETATM   29  O4  UNK     1      10.145   5.710   7.108  1.00  0.00    -0.355 OA
HETATM   30  C22 UNK     1      10.134   6.367   5.843  1.00  0.00     0.210 C 
ENDBRANCH   4  29
TORSDOF 7
ENDMDL
MODEL 5
REMARK VINA RESULT:      -8.7     24.540     27.116
REMARK  7 active torsions:
REMARK  status: ('A' for Active; 'I' for Inactive)
REMARK    1  A    between atoms: C12_17  and  O3_3 
REMARK    2  A    between atoms: C19_24  and  O3_3 
REMARK    3  A    between atoms: C11_16  and  O4_4 
REMARK    4  A    between atoms: C12_17  and  C3_8 
REMARK    5  A    between atoms: C15_20  and  C5_10 
REMARK    6  A    between atoms: C17_22  and  C8_13 
REMARK    7  A    between atoms: C15_20  and  C18_23 
ROOT
HETATM    1  C3  UNK     1      14.573   7.048   9.127  1.00  0.00     0.000 A 
HETATM    2  C8  UNK     1      15.260   9.105  10.192  1.00  0.00    -0.035 A 
HETATM    3  C9  UNK     1      14.324   8.381   9.454  1.00  0.00     0.023 A 
HETATM    4  C11 UNK     1      15.758   6.439   9.539  1.00  0.00     0.076 A 
HETATM    5  C14 UNK     1      16.447   8.496  10.603  1.00  0.00     0.014 A 
HETATM    6  C16 UNK     1      16.695   7.163  10.277  1.00  0.00     0.038 A 
ENDROOT
BRANCH   2   7
HETATM    7  C17 UNK     1      14.998  10.514  10.536  1.00  0.00     0.015 C 
HETATM    8  C18 UNK     1      15.274  11.556   9.739  1.00  0.00     0.056 C 
BRANCH   8   9
HETATM    9  C15 UNK     1      15.893  11.342   8.387  1.00  0.00     0.182 C 
HETATM   10  O5  UNK     1      15.214  10.910   7.443  1.00  0.00    -0.288 OA
BRANCH   9  11
HETATM   11  C5  UNK     1      17.296  11.682   8.202  1.00  0.00     0.017 A 
HETATM   12  C13 UNK     1      17.719  12.262   7.006  1.00  0.00     0.018 A 
HETATM   13  C10 UNK     1      19.065  12.583   6.822  1.00  0.00     0.040 A 
HETATM   14  C2  UNK     1      19.986  12.318   7.836  1.00  0.00     0.102 A 
HETATM   15  C1  UNK     1      19.556  11.763   9.044  1.00  0.00     0.103 A 
HETATM   16  O2  UNK     1      21.296  12.636   7.589  1.00  0.00    -0.346 OA
HETATM   17  O1  UNK     1      20.406  11.511  10.089  1.00  0.00    -0.346 OA
HETATM   18  C7  UNK     1      18.213  11.431   9.222  1.00  0.00     0.055 A 
HETATM   19  C4  UNK     1      21.654  12.193   9.938  1.00  0.00     0.202 C 
HETATM   20  C6  UNK     1      22.181  12.019   8.527  1.00  0.00     0.202 C 
ENDBRANCH   9  11
ENDBRANCH   8   9
ENDBRANCH   2   7
BRANCH   1  21
HETATM   21  C12 UNK     1      13.560   6.288   8.338  1.00  0.00     0.217 C 
BRANCH  21  22
HETATM   22  O3  UNK     1      12.866   7.182   7.477  1.00  0.00    -0.347 OA
BRANCH  22  23
HETATM   23  C19 UNK     1      11.539   6.922   7.255  1.00  0.00     0.069 A 
HETATM   24  C20 UNK     1      10.605   7.157   8.265  1.00  0.00     0.037 A 
HETATM   25  C23 UNK     1       9.254   6.892   8.040  1.00  0.00     0.003 A 
HETATM   26  C25 UNK     1       8.837   6.394   6.807  1.00  0.00     0.000 A 
HETATM   27  C24 UNK     1       9.771   6.159   5.797  1.00  0.00     0.003 A 
HETATM   28  C21 UNK     1      11.121   6.423   6.022  1.00  0.00     0.037 A 
ENDBRANCH  22  23
ENDBRANCH  21  22
ENDBRANCH   1  21
BRANCH   4  29
HETATM   29  O4  UNK     1      16.017   5.137   9.230  1.00  0.00    -0.355 OA
HETATM   30  C22 UNK     1      15.442   4.144  10.076  1.00  0.00     0.210 C 
ENDBRANCH   4  29
TORSDOF 7
ENDMDL
MODEL 6
REMARK VINA RESULT:      -8.7      1.916      8.096
REMARK  7 active torsions:
REMARK  status: ('A' for Active; 'I' for Inactive)
REMARK    1  A    between atoms: C12_17  and  O3_3 
REMARK    2  A    between atoms: C19_24  and  O3_3 
REMARK    3  A    between atoms: C11_16  and  O4_4 
REMARK    4  A    between atoms: C12_17  and  C3_8 
REMARK    5  A    between atoms: C15_20  and  C5_10 
REMARK    6  A    between atoms: C17_22  and  C8_13 
REMARK    7  A    between atoms: C15_20  and  C18_23 
ROOT
HETATM    1  C3  UNK     1      19.085   0.665  31.609  1.00  0.00     0.000 A 
HETATM    2  C8  UNK     1      18.481  -0.759  33.464  1.00  0.00    -0.035 A 
HETATM    3  C9  UNK     1      18.369   0.455  32.788  1.00  0.00     0.023 A 
HETATM    4  C11 UNK     1      19.912  -0.340  31.106  1.00  0.00     0.076 A 
HETATM    5  C14 UNK     1      19.308  -1.765  32.962  1.00  0.00     0.014 A 
HETATM    6  C16 UNK     1      20.023  -1.555  31.783  1.00  0.00     0.038 A 
ENDROOT
BRANCH   2   7
HETATM    7  C17 UNK     1      17.726  -0.982  34.710  1.00  0.00     0.015 C 
HETATM    8  C18 UNK     1      18.252  -1.476  35.840  1.00  0.00     0.056 C 
BRANCH   8   9
HETATM    9  C15 UNK     1      19.706  -1.850  35.908  1.00  0.00     0.182 C 
HETATM   10  O5  UNK     1      20.585  -1.004  35.688  1.00  0.00    -0.288 OA
BRANCH   9  11
HETATM   11  C5  UNK     1      20.057  -3.216  36.267  1.00  0.00     0.017 A 
HETATM   12  C13 UNK     1      20.614  -3.485  37.518  1.00  0.00     0.018 A 
HETATM   13  C10 UNK     1      20.959  -4.792  37.863  1.00  0.00     0.040 A 
HETATM   14  C2  UNK     1      20.749  -5.828  36.952  1.00  0.00     0.102 A 
HETATM   15  C1  UNK     1      20.167  -5.562  35.711  1.00  0.00     0.103 A 
HETATM   16  O2  UNK     1      21.127  -7.087  37.341  1.00  0.00    -0.346 OA
HETATM   17  O1  UNK     1      19.905  -6.540  34.789  1.00  0.00    -0.346 OA
HETATM   18  C7  UNK     1      19.834  -4.253  35.362  1.00  0.00     0.055 A 
HETATM   19  C4  UNK     1      19.956  -7.847  35.368  1.00  0.00     0.202 C 
HETATM   20  C6  UNK     1      21.192  -7.990  36.234  1.00  0.00     0.202 C 
ENDBRANCH   9  11
ENDBRANCH   8   9
ENDBRANCH   2   7
BRANCH   1  21
HETATM   21  C12 UNK     1      18.954   1.971  30.897  1.00  0.00     0.217 C 
BRANCH  21  22
HETATM   22  O3  UNK     1      18.004   2.783  31.574  1.00  0.00    -0.347 OA
BRANCH  22  23
HETATM   23  C19 UNK     1      18.391   4.060  31.885  1.00  0.00     0.069 A 
HETATM   24  C20 UNK     1      18.998   4.860  30.916  1.00  0.00     0.037 A 
HETATM   25  C23 UNK     1      19.393   6.159  31.231  1.00  0.00     0.003 A 
HETATM   26  C25 UNK     1      19.181   6.661  32.515  1.00  0.00     0.000 A 
HETATM   27  C24 UNK     1      18.574   5.861  33.484  1.00  0.00     0.003 A 
HETATM   28  C21 UNK     1      18.180   4.561  33.169  1.00  0.00     0.037 A 
ENDBRANCH  22  23
ENDBRANCH  21  22
ENDBRANCH   1  21
BRANCH   4  29
HETATM   29  O4  UNK     1      20.617  -0.152  29.955  1.00  0.00    -0.355 OA
HETATM   30  C22 UNK     1      20.185  -0.877  28.805  1.00  0.00     0.210 C 
ENDBRANCH   4  29
TORSDOF 7
ENDMDL
MODEL 7
REMARK VINA RESULT:      -8.7      3.683      7.358
REMARK  7 active torsions:
REMARK  status: ('A' for Active; 'I' for Inactive)
REMARK    1  A    between atoms: C12_17  and  O3_3 
REMARK    2  A    between atoms: C19_24  and  O3_3 
REMARK    3  A    between atoms: C11_16  and  O4_4 
REMARK    4  A    between atoms: C12_17  and  C3_8 
REMARK    5  A    between atoms: C15_20  and  C5_10 
REMARK    6  A    between atoms: C17_22  and  C8_13 
REMARK    7  A    between atoms: C15_20  and  C18_23 
ROOT
HETATM    1  C3  UNK     1      18.288   3.742  33.089  1.00  0.00     0.000 A 
HETATM    2  C8  UNK     1      18.892   6.077  33.217  1.00  0.00    -0.035 A 
HETATM    3  C9  UNK     1      18.718   4.839  33.835  1.00  0.00     0.023 A 
HETATM    4  C11 UNK     1      18.035   3.882  31.724  1.00  0.00     0.076 A 
HETATM    5  C14 UNK     1      18.639   6.218  31.852  1.00  0.00     0.014 A 
HETATM    6  C16 UNK     1      18.210   5.121  31.106  1.00  0.00     0.038 A 
ENDROOT
BRANCH   2   7
HETATM    7  C17 UNK     1      19.345   7.237  34.005  1.00  0.00     0.015 C 
HETATM    8  C18 UNK     1      18.535   8.037  34.715  1.00  0.00     0.056 C 
BRANCH   8   9
HETATM    9  C15 UNK     1      17.054   7.789  34.752  1.00  0.00     0.182 C 
HETATM   10  O5  UNK     1      16.603   6.737  35.230  1.00  0.00    -0.288 OA
BRANCH   9  11
HETATM   11  C5  UNK     1      16.162   8.819  34.243  1.00  0.00     0.017 A 
HETATM   12  C13 UNK     1      15.015   8.459  33.536  1.00  0.00     0.018 A 
HETATM   13  C10 UNK     1      14.161   9.445  33.039  1.00  0.00     0.040 A 
HETATM   14  C2  UNK     1      14.460  10.792  33.249  1.00  0.00     0.102 A 
HETATM   15  C1  UNK     1      15.594  11.150  33.981  1.00  0.00     0.103 A 
HETATM   16  O2  UNK     1      13.595  11.713  32.720  1.00  0.00    -0.346 OA
HETATM   17  O1  UNK     1      15.923  12.453  34.249  1.00  0.00    -0.346 OA
HETATM   18  C7  UNK     1      16.454  10.164  34.466  1.00  0.00     0.055 A 
HETATM   19  C4  UNK     1      14.824  13.339  34.020  1.00  0.00     0.202 C 
HETATM   20  C6  UNK     1      14.164  13.025  32.691  1.00  0.00     0.202 C 
ENDBRANCH   9  11
ENDBRANCH   8   9
ENDBRANCH   2   7
BRANCH   1  21
HETATM   21  C12 UNK     1      18.106   2.424  33.766  1.00  0.00     0.217 C 
BRANCH  21  22
HETATM   22  O3  UNK     1      18.733   2.459  35.041  1.00  0.00    -0.347 OA
BRANCH  22  23
HETATM   23  C19 UNK     1      18.434   1.439  35.906  1.00  0.00     0.069 A 
HETATM   24  C20 UNK     1      17.870   1.722  37.150  1.00  0.00     0.037 A 
HETATM   25  C23 UNK     1      17.566   0.684  38.030  1.00  0.00     0.003 A 
HETATM   26  C25 UNK     1      17.826  -0.637  37.667  1.00  0.00     0.000 A 
HETATM   27  C24 UNK     1      18.390  -0.920  36.423  1.00  0.00     0.003 A 
HETATM   28  C21 UNK     1      18.695   0.118  35.543  1.00  0.00     0.037 A 
ENDBRANCH  22  23
ENDBRANCH  21  22
ENDBRANCH   1  21
BRANCH   4  29
HETATM   29  O4  UNK     1      17.617   2.820  30.980  1.00  0.00    -0.355 OA
HETATM   30  C22 UNK     1      18.413   2.467  29.851  1.00  0.00     0.210 C 
ENDBRANCH   4  29
TORSDOF 7
ENDMDL
MODEL 8
REMARK VINA RESULT:      -8.6     11.863     14.695
REMARK  7 active torsions:
REMARK  status: ('A' for Active; 'I' for Inactive)
REMARK    1  A    between atoms: C12_17  and  O3_3 
REMARK    2  A    between atoms: C19_24  and  O3_3 
REMARK    3  A    between atoms: C11_16  and  O4_4 
REMARK    4  A    between atoms: C12_17  and  C3_8 
REMARK    5  A    between atoms: C15_20  and  C5_10 
REMARK    6  A    between atoms: C17_22  and  C8_13 
REMARK    7  A    between atoms: C15_20  and  C18_23 
ROOT
HETATM    1  C3  UNK     1      32.630  -6.159  33.772  1.00  0.00     0.000 A 
HETATM    2  C8  UNK     1      32.650  -4.483  35.512  1.00  0.00    -0.035 A 
HETATM    3  C9  UNK     1      31.944  -5.284  34.616  1.00  0.00     0.023 A 
HETATM    4  C11 UNK     1      34.022  -6.232  33.827  1.00  0.00     0.076 A 
HETATM    5  C14 UNK     1      34.043  -4.556  35.567  1.00  0.00     0.014 A 
HETATM    6  C16 UNK     1      34.728  -5.431  34.725  1.00  0.00     0.038 A 
ENDROOT
BRANCH   2   7
HETATM    7  C17 UNK     1      31.926  -3.558  36.402  1.00  0.00     0.015 C 
HETATM    8  C18 UNK     1      31.258  -3.929  37.504  1.00  0.00     0.056 C 
BRANCH   8   9
HETATM    9  C15 UNK     1      31.204  -5.373  37.916  1.00  0.00     0.182 C 
HETATM   10  O5  UNK     1      32.198  -5.925  38.412  1.00  0.00    -0.288 OA
BRANCH   9  11
HETATM   11  C5  UNK     1      29.954  -6.099  37.748  1.00  0.00     0.017 A 
HETATM   12  C13 UNK     1      29.352  -6.166  36.491  1.00  0.00     0.018 A 
HETATM   13  C10 UNK     1      28.149  -6.854  36.327  1.00  0.00     0.040 A 
HETATM   14  C2  UNK     1      27.549  -7.473  37.425  1.00  0.00     0.102 A 
HETATM   15  C1  UNK     1      28.166  -7.428  38.676  1.00  0.00     0.103 A 
HETATM   16  O2  UNK     1      26.359  -8.116  37.205  1.00  0.00    -0.346 OA
HETATM   17  O1  UNK     1      27.644  -8.043  39.784  1.00  0.00    -0.346 OA
HETATM   18  C7  UNK     1      29.362  -6.729  38.842  1.00  0.00     0.055 A 
HETATM   19  C4  UNK     1      26.636  -8.998  39.439  1.00  0.00     0.202 C 
HETATM   20  C6  UNK     1      25.675  -8.404  38.427  1.00  0.00     0.202 C 
ENDBRANCH   9  11
ENDBRANCH   8   9
ENDBRANCH   2   7
BRANCH   1  21
HETATM   21  C12 UNK     1      31.859  -7.009  32.819  1.00  0.00     0.217 C 
BRANCH  21  22
HETATM   22  O3  UNK     1      31.246  -6.182  31.839  1.00  0.00    -0.347 OA
BRANCH  22  23
HETATM   23  C19 UNK     1      29.895  -6.328  31.663  1.00  0.00     0.069 A 
HETATM   24  C20 UNK     1      29.025  -6.111  32.732  1.00  0.00     0.037 A 
HETATM   25  C23 UNK     1      27.650  -6.260  32.554  1.00  0.00     0.003 A 
HETATM   26  C25 UNK     1      27.144  -6.626  31.307  1.00  0.00     0.000 A 
HETATM   27  C24 UNK     1      28.014  -6.843  30.238  1.00  0.00     0.003 A 
HETATM   28  C21 UNK     1      29.388  -6.695  30.416  1.00  0.00     0.037 A 
ENDBRANCH  22  23
ENDBRANCH  21  22
ENDBRANCH   1  21
BRANCH   4  29
HETATM   29  O4  UNK     1      34.707  -7.082  33.012  1.00  0.00    -0.355 OA
HETATM   30  C22 UNK     1      35.815  -6.540  32.295  1.00  0.00     0.210 C 
ENDBRANCH   4  29
TORSDOF 7
ENDMDL
MODEL 9
REMARK VINA RESULT:      -8.6     11.734     14.669
REMARK  7 active torsions:
REMARK  status: ('A' for Active; 'I' for Inactive)
REMARK    1  A    between atoms: C12_17  and  O3_3 
REMARK    2  A    between atoms: C19_24  and  O3_3 
REMARK    3  A    between atoms: C11_16  and  O4_4 
REMARK    4  A    between atoms: C12_17  and  C3_8 
REMARK    5  A    between atoms: C15_20  and  C5_10 
REMARK    6  A    between atoms: C17_22  and  C8_13 
REMARK    7  A    between atoms: C15_20  and  C18_23 
ROOT
HETATM    1  C3  UNK     1      31.638  -5.875  33.784  1.00  0.00     0.000 A 
HETATM    2  C8  UNK     1      32.766  -5.568  35.898  1.00  0.00    -0.035 A 
HETATM    3  C9  UNK     1      31.731  -5.241  35.023  1.00  0.00     0.023 A 
HETATM    4  C11 UNK     1      32.580  -6.838  33.421  1.00  0.00     0.076 A 
HETATM    5  C14 UNK     1      33.709  -6.531  35.536  1.00  0.00     0.014 A 
HETATM    6  C16 UNK     1      33.615  -7.166  34.297  1.00  0.00     0.038 A 
ENDROOT
BRANCH   2   7
HETATM    7  C17 UNK     1      32.865  -4.898  37.207  1.00  0.00     0.015 C 
HETATM    8  C18 UNK     1      32.403  -5.406  38.359  1.00  0.00     0.056 C 
BRANCH   8   9
HETATM    9  C15 UNK     1      31.727  -6.748  38.387  1.00  0.00     0.182 C 
HETATM   10  O5  UNK     1      32.398  -7.790  38.433  1.00  0.00    -0.288 OA
BRANCH   9  11
HETATM   11  C5  UNK     1      30.273  -6.795  38.389  1.00  0.00     0.017 A 
HETATM   12  C13 UNK     1      29.541  -5.652  38.711  1.00  0.00     0.018 A 
HETATM   13  C10 UNK     1      28.146  -5.695  38.721  1.00  0.00     0.040 A 
HETATM   14  C2  UNK     1      27.486  -6.885  38.412  1.00  0.00     0.102 A 
HETATM   15  C1  UNK     1      28.220  -8.021  38.064  1.00  0.00     0.103 A 
HETATM   16  O2  UNK     1      26.117  -6.870  38.460  1.00  0.00    -0.346 OA
HETATM   17  O1  UNK     1      27.630  -9.209  37.719  1.00  0.00    -0.346 OA
HETATM   18  C7  UNK     1      29.615  -7.981  38.066  1.00  0.00     0.055 A 
HETATM   19  C4  UNK     1      26.242  -9.046  37.414  1.00  0.00     0.202 C 
HETATM   20  C6  UNK     1      25.569  -8.191  38.470  1.00  0.00     0.202 C 
ENDBRANCH   9  11
ENDBRANCH   8   9
ENDBRANCH   2   7
BRANCH   1  21
HETATM   21  C12 UNK     1      30.524  -5.513  32.859  1.00  0.00     0.217 C 
BRANCH  21  22
HETATM   22  O3  UNK     1      29.337  -6.179  33.268  1.00  0.00    -0.347 OA
BRANCH  22  23
HETATM   23  C19 UNK     1      28.680  -6.912  32.314  1.00  0.00     0.069 A 
HETATM   24  C20 UNK     1      27.594  -6.359  31.635  1.00  0.00     0.037 A 
HETATM   25  C23 UNK     1      26.925  -7.104  30.665  1.00  0.00     0.003 A 
HETATM   26  C25 UNK     1      27.340  -8.403  30.373  1.00  0.00     0.000 A 
HETATM   27  C24 UNK     1      28.426  -8.957  31.053  1.00  0.00     0.003 A 
HETATM   28  C21 UNK     1      29.095  -8.212  32.023  1.00  0.00     0.037 A 
ENDBRANCH  22  23
ENDBRANCH  21  22
ENDBRANCH   1  21
BRANCH   4  29
HETATM   29  O4  UNK     1      32.504  -7.469  32.216  1.00  0.00    -0.355 OA
HETATM   30  C22 UNK     1      33.699  -7.531  31.441  1.00  0.00     0.210 C 
ENDBRANCH   4  29
TORSDOF 7
ENDMDL
MODEL 10
REMARK VINA RESULT:      -8.6     12.085     14.876
REMARK  7 active torsions:
REMARK  status: ('A' for Active; 'I' for Inactive)
REMARK    1  A    between atoms: C12_17  and  O3_3 
REMARK    2  A    between atoms: C19_24  and  O3_3 
REMARK    3  A    between atoms: C11_16  and  O4_4 
REMARK    4  A    between atoms: C12_17  and  C3_8 
REMARK    5  A    between atoms: C15_20  and  C5_10 
REMARK    6  A    between atoms: C17_22  and  C8_13 
REMARK    7  A    between atoms: C15_20  and  C18_23 
ROOT
HETATM    1  C3  UNK     1      31.543  -7.931  34.422  1.00  0.00     0.000 A 
HETATM    2  C8  UNK     1      32.430  -5.848  35.266  1.00  0.00    -0.035 A 
HETATM    3  C9  UNK     1      31.369  -6.583  34.737  1.00  0.00     0.023 A 
HETATM    4  C11 UNK     1      32.777  -8.544  34.638  1.00  0.00     0.076 A 
HETATM    5  C14 UNK     1      33.665  -6.461  35.482  1.00  0.00     0.014 A 
HETATM    6  C16 UNK     1      33.838  -7.809  35.168  1.00  0.00     0.038 A 
ENDROOT
BRANCH   2   7
HETATM    7  C17 UNK     1      32.247  -4.424  35.598  1.00  0.00     0.015 C 
HETATM    8  C18 UNK     1      31.968  -3.959  36.824  1.00  0.00     0.056 C 
BRANCH   8   9
HETATM    9  C15 UNK     1      31.818  -4.901  37.985  1.00  0.00     0.182 C 
HETATM   10  O5  UNK     1      32.771  -5.114  38.751  1.00  0.00    -0.288 OA
BRANCH   9  11
HETATM   11  C5  UNK     1      30.527  -5.533  38.207  1.00  0.00     0.017 A 
HETATM   12  C13 UNK     1      29.383  -4.747  38.351  1.00  0.00     0.018 A 
HETATM   13  C10 UNK     1      28.144  -5.349  38.571  1.00  0.00     0.040 A 
HETATM   14  C2  UNK     1      28.052  -6.739  38.649  1.00  0.00     0.102 A 
HETATM   15  C1  UNK     1      29.193  -7.526  38.478  1.00  0.00     0.103 A 
HETATM   16  O2  UNK     1      26.812  -7.271  38.888  1.00  0.00    -0.346 OA
HETATM   17  O1  UNK     1      29.162  -8.896  38.511  1.00  0.00    -0.346 OA
HETATM   18  C7  UNK     1      30.434  -6.923  38.271  1.00  0.00     0.055 A 
HETATM   19  C4  UNK     1      27.831  -9.403  38.378  1.00  0.00     0.202 C 
HETATM   20  C6  UNK     1      26.886  -8.642  39.288  1.00  0.00     0.202 C 
ENDBRANCH   9  11
ENDBRANCH   8   9
ENDBRANCH   2   7
BRANCH   1  21
HETATM   21  C12 UNK     1      30.398  -8.702  33.856  1.00  0.00     0.217 C 
BRANCH  21  22
HETATM   22  O3  UNK     1      30.424  -8.614  32.437  1.00  0.00    -0.347 OA
BRANCH  22  23
HETATM   23  C19 UNK     1      29.265  -8.223  31.820  1.00  0.00     0.069 A 
HETATM   24  C20 UNK     1      28.620  -7.054  32.224  1.00  0.00     0.037 A 
HETATM   25  C23 UNK     1      27.440  -6.656  31.596  1.00  0.00     0.003 A 
HETATM   26  C25 UNK     1      26.905  -7.426  30.564  1.00  0.00     0.000 A 
HETATM   27  C24 UNK     1      27.550  -8.596  30.160  1.00  0.00     0.003 A 
HETATM   28  C21 UNK     1      28.729  -8.994  30.788  1.00  0.00     0.037 A 
ENDBRANCH  22  23
ENDBRANCH  21  22
ENDBRANCH   1  21
BRANCH   4  29
HETATM   29  O4  UNK     1      32.964  -9.860  34.337  1.00  0.00    -0.355 OA
HETATM   30  C22 UNK     1      33.855 -10.159  33.265  1.00  0.00     0.210 C 
ENDBRANCH   4  29
TORSDOF 7
ENDMDL
