MODEL 1
REMARK VINA RESULT:     -10.1      0.000      0.000
REMARK  10 active torsions:
REMARK  status: ('A' for Active; 'I' for Inactive)
REMARK    1  A    between atoms: C16_24  and  O1_2 
REMARK    2  A    between atoms: C20_28  and  O1_2 
REMARK    3  A    between atoms: C25_33  and  O5_6 
REMARK    4  A    between atoms: C30_38  and  O5_6 
REMARK    5  A    between atoms: C14_22  and  N1_8 
REMARK       I    between atoms: C17_25  and  N1_8 
REMARK    6  A    between atoms: C1_9  and  C2_10 
REMARK    7  A    between atoms: C8_16  and  C9_17 
REMARK    8  A    between atoms: C12_20  and  C16_24 
REMARK    9  A    between atoms: C17_25  and  C18_26 
REMARK   10  A    between atoms: C20_28  and  C23_31 
ROOT
HETATM    1  S1  UNK     1      17.597  -1.377  37.656  1.00  0.00    -0.075 SA
HETATM    2  C9  UNK     1      18.208   0.150  35.683  1.00  0.00     0.006 A 
HETATM    3  C12 UNK     1      18.779  -1.121  35.389  1.00  0.00     0.085 A 
HETATM    4  C13 UNK     1      17.537   0.151  36.885  1.00  0.00    -0.007 A 
HETATM    5  C14 UNK     1      18.523  -2.044  36.379  1.00  0.00     0.094 A 
HETATM    6  C15 UNK     1      16.809   1.254  37.558  1.00  0.00     0.057 C 
ENDROOT
BRANCH   5   7
HETATM    7  N1  UNK     1      18.883  -3.389  36.503  1.00  0.00    -0.316 N 
HETATM    8  C17 UNK     1      20.004  -3.879  37.161  1.00  0.00     0.262 C 
HETATM    9  O4  UNK     1      20.883  -3.252  37.749  1.00  0.00    -0.267 OA
HETATM   10  H17 UNK     1      18.249  -4.048  36.059  1.00  0.00     0.169 HD
BRANCH   8  11
HETATM   11  C18 UNK     1      20.078  -5.344  37.099  1.00  0.00     0.108 A 
HETATM   12  C21 UNK     1      19.990  -5.990  38.268  1.00  0.00     0.037 A 
HETATM   13  C19 UNK     1      20.053  -7.442  38.310  1.00  0.00     0.002 A 
HETATM   14  C26 UNK     1      19.963  -8.158  39.507  1.00  0.00     0.014 A 
HETATM   15  C22 UNK     1      20.205  -8.143  37.118  1.00  0.00     0.123 A 
HETATM   16  C28 UNK     1      20.029  -9.553  39.493  1.00  0.00     0.004 A 
HETATM   17  C27 UNK     1      20.183 -10.240  38.287  1.00  0.00     0.040 A 
HETATM   18  C25 UNK     1      20.271  -9.535  37.090  1.00  0.00     0.103 A 
HETATM   19  O3  UNK     1      20.298  -7.458  35.891  1.00  0.00    -0.271 OA
HETATM   20  C24 UNK     1      20.239  -6.069  35.820  1.00  0.00     0.304 A 
HETATM   21  O6  UNK     1      20.320  -5.481  34.747  1.00  0.00    -0.259 OA
BRANCH  18  22
HETATM   22  O5  UNK     1      20.422 -10.209  35.917  1.00  0.00    -0.349 OA
BRANCH  22  23
HETATM   23  C30 UNK     1      21.515 -11.121  35.827  1.00  0.00     0.171 C 
HETATM   24  C31 UNK     1      22.812 -10.338  35.828  1.00  0.00     0.034 C 
ENDBRANCH  22  23
ENDBRANCH  18  22
ENDBRANCH   8  11
ENDBRANCH   5   7
BRANCH   3  25
HETATM   25  C16 UNK     1      19.542  -1.448  34.209  1.00  0.00     0.297 C 
HETATM   26  O2  UNK     1      20.713  -1.854  34.235  1.00  0.00    -0.259 OA
BRANCH  25  27
HETATM   27  O1  UNK     1      18.853  -1.268  33.030  1.00  0.00    -0.317 OA
BRANCH  27  28
HETATM   28  C20 UNK     1      19.560  -1.550  31.818  1.00  0.00     0.178 C 
BRANCH  28  29
HETATM   29  C23 UNK     1      19.933  -0.237  31.148  1.00  0.00     0.022 C 
HETATM   30  C29 UNK     1      20.602  -0.457  29.804  1.00  0.00     0.007 C 
ENDBRANCH  28  29
ENDBRANCH  27  28
ENDBRANCH  25  27
ENDBRANCH   3  25
BRANCH   2  31
HETATM   31  C8  UNK     1      18.279   1.342  34.873  1.00  0.00    -0.024 A 
HETATM   32  C10 UNK     1      18.835   2.510  35.396  1.00  0.00     0.013 A 
HETATM   33  C6  UNK     1      18.904   3.661  34.612  1.00  0.00     0.009 A 
HETATM   34  C2  UNK     1      18.418   3.645  33.305  1.00  0.00    -0.051 A 
HETATM   35  C7  UNK     1      17.863   2.477  32.782  1.00  0.00     0.009 A 
HETATM   36  C11 UNK     1      17.793   1.326  33.566  1.00  0.00     0.013 A 
BRANCH  34  37
HETATM   37  C1  UNK     1      18.492   4.876  32.467  1.00  0.00    -0.024 C 
HETATM   38  C3  UNK     1      18.769   4.527  30.971  1.00  0.00     0.019 C 
HETATM   39  C4  UNK     1      19.636   5.821  32.949  1.00  0.00     0.019 C 
HETATM   40  C5  UNK     1      17.200   5.758  32.455  1.00  0.00     0.019 C 
ENDBRANCH  34  37
ENDBRANCH   2  31
TORSDOF 10
ENDMDL
MODEL 2
REMARK VINA RESULT:      -8.9      8.617     13.055
REMARK  10 active torsions:
REMARK  status: ('A' for Active; 'I' for Inactive)
REMARK    1  A    between atoms: C16_24  and  O1_2 
REMARK    2  A    between atoms: C20_28  and  O1_2 
REMARK    3  A    between atoms: C25_33  and  O5_6 
REMARK    4  A    between atoms: C30_38  and  O5_6 
REMARK    5  A    between atoms: C14_22  and  N1_8 
REMARK       I    between atoms: C17_25  and  N1_8 
REMARK    6  A    between atoms: C1_9  and  C2_10 
REMARK    7  A    between atoms: C8_16  and  C9_17 
REMARK    8  A    between atoms: C12_20  and  C16_24 
REMARK    9  A    between atoms: C17_25  and  C18_26 
REMARK   10  A    between atoms: C20_28  and  C23_31 
ROOT
HETATM    1  S1  UNK     1      29.482  -6.638  38.247  1.00  0.00    -0.075 SA
HETATM    2  C9  UNK     1      31.087  -7.162  36.311  1.00  0.00     0.006 A 
HETATM    3  C12 UNK     1      29.816  -7.672  35.919  1.00  0.00     0.085 A 
HETATM    4  C13 UNK     1      31.047  -6.574  37.555  1.00  0.00    -0.007 A 
HETATM    5  C14 UNK     1      28.853  -7.454  36.879  1.00  0.00     0.094 A 
HETATM    6  C15 UNK     1      32.136  -5.928  38.327  1.00  0.00     0.057 C 
ENDROOT
BRANCH   5   7
HETATM    7  N1  UNK     1      27.494  -7.780  36.915  1.00  0.00    -0.316 N 
HETATM    8  C17 UNK     1      26.934  -8.889  37.536  1.00  0.00     0.262 C 
HETATM    9  O4  UNK     1      27.499  -9.784  38.161  1.00  0.00    -0.267 OA
HETATM   10  H17 UNK     1      26.881  -7.128  36.431  1.00  0.00     0.169 HD
BRANCH   8  11
HETATM   11  C18 UNK     1      25.475  -8.924  37.380  1.00  0.00     0.108 A 
HETATM   12  C21 UNK     1      24.983  -9.928  36.643  1.00  0.00     0.037 A 
HETATM   13  C19 UNK     1      23.550 -10.048  36.430  1.00  0.00     0.002 A 
HETATM   14  C26 UNK     1      22.993 -11.081  35.671  1.00  0.00     0.014 A 
HETATM   15  C22 UNK     1      22.703  -9.105  37.004  1.00  0.00     0.123 A 
HETATM   16  C28 UNK     1      21.609 -11.152  35.497  1.00  0.00     0.004 A 
HETATM   17  C27 UNK     1      20.774 -10.195  36.079  1.00  0.00     0.040 A 
HETATM   18  C25 UNK     1      21.321  -9.164  36.838  1.00  0.00     0.103 A 
HETATM   19  O3  UNK     1      23.226  -8.050  37.777  1.00  0.00    -0.271 OA
HETATM   20  C24 UNK     1      24.593  -7.910  37.999  1.00  0.00     0.304 A 
HETATM   21  O6  UNK     1      25.039  -6.989  38.674  1.00  0.00    -0.259 OA
BRANCH  18  22
HETATM   22  O5  UNK     1      20.504  -8.234  37.404  1.00  0.00    -0.349 OA
BRANCH  22  23
HETATM   23  C30 UNK     1      19.904  -8.570  38.654  1.00  0.00     0.171 C 
HETATM   24  C31 UNK     1      20.082  -7.413  39.614  1.00  0.00     0.034 C 
ENDBRANCH  22  23
ENDBRANCH  18  22
ENDBRANCH   8  11
ENDBRANCH   5   7
BRANCH   3  25
HETATM   25  C16 UNK     1      29.526  -8.343  34.674  1.00  0.00     0.297 C 
HETATM   26  O2  UNK     1      29.100  -9.505  34.600  1.00  0.00    -0.259 OA
BRANCH  25  27
HETATM   27  O1  UNK     1      29.766  -7.576  33.556  1.00  0.00    -0.317 OA
BRANCH  27  28
HETATM   28  C20 UNK     1      30.465  -8.205  32.477  1.00  0.00     0.178 C 
BRANCH  28  29
HETATM   29  C23 UNK     1      31.343  -7.172  31.789  1.00  0.00     0.022 C 
HETATM   30  C29 UNK     1      32.560  -7.804  31.141  1.00  0.00     0.007 C 
ENDBRANCH  28  29
ENDBRANCH  27  28
ENDBRANCH  25  27
ENDBRANCH   3  25
BRANCH   2  31
HETATM   31  C8  UNK     1      32.314  -7.215  35.555  1.00  0.00    -0.024 A 
HETATM   32  C10 UNK     1      33.005  -8.421  35.429  1.00  0.00     0.013 A 
HETATM   33  C6  UNK     1      34.191  -8.472  34.697  1.00  0.00     0.009 A 
HETATM   34  C2  UNK     1      34.686  -7.318  34.089  1.00  0.00    -0.051 A 
HETATM   35  C7  UNK     1      33.994  -6.113  34.214  1.00  0.00     0.009 A 
HETATM   36  C11 UNK     1      32.809  -6.062  34.947  1.00  0.00     0.013 A 
BRANCH  34  37
HETATM   37  C1  UNK     1      35.954  -7.372  33.307  1.00  0.00    -0.024 C 
HETATM   38  C3  UNK     1      37.200  -7.238  34.239  1.00  0.00     0.019 C 
HETATM   39  C4  UNK     1      36.023  -6.218  32.260  1.00  0.00     0.019 C 
HETATM   40  C5  UNK     1      36.185  -8.688  32.493  1.00  0.00     0.019 C 
ENDBRANCH  34  37
ENDBRANCH   2  31
TORSDOF 10
ENDMDL
MODEL 3
REMARK VINA RESULT:      -8.9      8.438     12.731
REMARK  10 active torsions:
REMARK  status: ('A' for Active; 'I' for Inactive)
REMARK    1  A    between atoms: C16_24  and  O1_2 
REMARK    2  A    between atoms: C20_28  and  O1_2 
REMARK    3  A    between atoms: C25_33  and  O5_6 
REMARK    4  A    between atoms: C30_38  and  O5_6 
REMARK    5  A    between atoms: C14_22  and  N1_8 
REMARK       I    between atoms: C17_25  and  N1_8 
REMARK    6  A    between atoms: C1_9  and  C2_10 
REMARK    7  A    between atoms: C8_16  and  C9_17 
REMARK    8  A    between atoms: C12_20  and  C16_24 
REMARK    9  A    between atoms: C17_25  and  C18_26 
REMARK   10  A    between atoms: C20_28  and  C23_31 
ROOT
HETATM    1  S1  UNK     1      29.290  -6.106  38.579  1.00  0.00    -0.075 SA
HETATM    2  C9  UNK     1      30.860  -6.822  36.676  1.00  0.00     0.006 A 
HETATM    3  C12 UNK     1      29.581  -7.360  36.355  1.00  0.00     0.085 A 
HETATM    4  C13 UNK     1      30.844  -6.117  37.859  1.00  0.00    -0.007 A 
HETATM    5  C14 UNK     1      28.635  -7.047  37.306  1.00  0.00     0.094 A 
HETATM    6  C15 UNK     1      31.947  -5.406  38.548  1.00  0.00     0.057 C 
ENDROOT
BRANCH   5   7
HETATM    7  N1  UNK     1      27.276  -7.361  37.395  1.00  0.00    -0.316 N 
HETATM    8  C17 UNK     1      26.679  -8.146  38.373  1.00  0.00     0.262 C 
HETATM    9  O4  UNK     1      27.206  -8.708  39.331  1.00  0.00    -0.267 OA
HETATM   10  H17 UNK     1      26.693  -6.967  36.660  1.00  0.00     0.169 HD
BRANCH   8  11
HETATM   11  C18 UNK     1      25.232  -8.271  38.166  1.00  0.00     0.108 A 
HETATM   12  C21 UNK     1      24.455  -7.494  38.930  1.00  0.00     0.037 A 
HETATM   13  C19 UNK     1      23.008  -7.547  38.798  1.00  0.00     0.002 A 
HETATM   14  C26 UNK     1      22.159  -6.753  39.573  1.00  0.00     0.014 A 
HETATM   15  C22 UNK     1      22.449  -8.417  37.867  1.00  0.00     0.123 A 
HETATM   16  C28 UNK     1      20.774  -6.842  39.408  1.00  0.00     0.004 A 
HETATM   17  C27 UNK     1      20.231  -7.721  38.469  1.00  0.00     0.040 A 
HETATM   18  C25 UNK     1      21.070  -8.515  37.691  1.00  0.00     0.103 A 
HETATM   19  O3  UNK     1      23.271  -9.233  37.066  1.00  0.00    -0.271 OA
HETATM   20  C24 UNK     1      24.659  -9.203  37.169  1.00  0.00     0.304 A 
HETATM   21  O6  UNK     1      25.367  -9.917  36.467  1.00  0.00    -0.259 OA
BRANCH  18  22
HETATM   22  O5  UNK     1      20.536  -9.371  36.777  1.00  0.00    -0.349 OA
BRANCH  22  23
HETATM   23  C30 UNK     1      19.329 -10.040  37.140  1.00  0.00     0.171 C 
HETATM   24  C31 UNK     1      19.666 -11.219  38.029  1.00  0.00     0.034 C 
ENDBRANCH  22  23
ENDBRANCH  18  22
ENDBRANCH   8  11
ENDBRANCH   5   7
BRANCH   3  25
HETATM   25  C16 UNK     1      29.269  -8.146  35.186  1.00  0.00     0.297 C 
HETATM   26  O2  UNK     1      28.818  -9.300  35.230  1.00  0.00    -0.259 OA
BRANCH  25  27
HETATM   27  O1  UNK     1      29.517  -7.499  33.996  1.00  0.00    -0.317 OA
BRANCH  27  28
HETATM   28  C20 UNK     1      29.720  -8.323  32.842  1.00  0.00     0.178 C 
BRANCH  28  29
HETATM   29  C23 UNK     1      31.206  -8.606  32.694  1.00  0.00     0.022 C 
HETATM   30  C29 UNK     1      31.858  -7.692  31.672  1.00  0.00     0.007 C 
ENDBRANCH  28  29
ENDBRANCH  27  28
ENDBRANCH  25  27
ENDBRANCH   3  25
BRANCH   2  31
HETATM   31  C8  UNK     1      32.075  -6.953  35.909  1.00  0.00    -0.024 A 
HETATM   32  C10 UNK     1      32.482  -5.921  35.063  1.00  0.00     0.013 A 
HETATM   33  C6  UNK     1      33.657  -6.049  34.323  1.00  0.00     0.009 A 
HETATM   34  C2  UNK     1      34.426  -7.207  34.429  1.00  0.00    -0.051 A 
HETATM   35  C7  UNK     1      34.020  -8.238  35.276  1.00  0.00     0.009 A 
HETATM   36  C11 UNK     1      32.845  -8.111  36.016  1.00  0.00     0.013 A 
BRANCH  34  37
HETATM   37  C1  UNK     1      35.682  -7.343  33.637  1.00  0.00    -0.024 C 
HETATM   38  C3  UNK     1      35.777  -8.748  32.963  1.00  0.00     0.019 C 
HETATM   39  C4  UNK     1      36.942  -7.169  34.540  1.00  0.00     0.019 C 
HETATM   40  C5  UNK     1      35.857  -6.312  32.473  1.00  0.00     0.019 C 
ENDBRANCH  34  37
ENDBRANCH   2  31
TORSDOF 10
ENDMDL
MODEL 4
REMARK VINA RESULT:      -8.7     17.374     22.873
REMARK  10 active torsions:
REMARK  status: ('A' for Active; 'I' for Inactive)
REMARK    1  A    between atoms: C16_24  and  O1_2 
REMARK    2  A    between atoms: C20_28  and  O1_2 
REMARK    3  A    between atoms: C25_33  and  O5_6 
REMARK    4  A    between atoms: C30_38  and  O5_6 
REMARK    5  A    between atoms: C14_22  and  N1_8 
REMARK       I    between atoms: C17_25  and  N1_8 
REMARK    6  A    between atoms: C1_9  and  C2_10 
REMARK    7  A    between atoms: C8_16  and  C9_17 
REMARK    8  A    between atoms: C12_20  and  C16_24 
REMARK    9  A    between atoms: C17_25  and  C18_26 
REMARK   10  A    between atoms: C20_28  and  C23_31 
ROOT
HETATM    1  S1  UNK     1      19.624  -3.521  11.759  1.00  0.00    -0.075 SA
HETATM    2  C9  UNK     1      20.422  -5.864  12.445  1.00  0.00     0.006 A 
HETATM    3  C12 UNK     1      20.395  -5.091  13.641  1.00  0.00     0.085 A 
HETATM    4  C13 UNK     1      20.026  -5.134  11.347  1.00  0.00    -0.007 A 
HETATM    5  C14 UNK     1      19.980  -3.798  13.411  1.00  0.00     0.094 A 
HETATM    6  C15 UNK     1      19.912  -5.551   9.929  1.00  0.00     0.057 C 
ENDROOT
BRANCH   5   7
HETATM    7  N1  UNK     1      19.808  -2.714  14.278  1.00  0.00    -0.316 N 
HETATM    8  C17 UNK     1      18.762  -2.542  15.175  1.00  0.00     0.262 C 
HETATM    9  O4  UNK     1      17.803  -3.282  15.385  1.00  0.00    -0.267 OA
HETATM   10  H17 UNK     1      20.529  -1.999  14.222  1.00  0.00     0.169 HD
BRANCH   8  11
HETATM   11  C18 UNK     1      18.891  -1.291  15.931  1.00  0.00     0.108 A 
HETATM   12  C21 UNK     1      18.654  -1.368  17.247  1.00  0.00     0.037 A 
HETATM   13  C19 UNK     1      18.756  -0.181  18.081  1.00  0.00     0.002 A 
HETATM   14  C26 UNK     1      18.519  -0.215  19.458  1.00  0.00     0.014 A 
HETATM   15  C22 UNK     1      19.104   1.029  17.489  1.00  0.00     0.123 A 
HETATM   16  C28 UNK     1      18.631   0.953  20.215  1.00  0.00     0.004 A 
HETATM   17  C27 UNK     1      18.980   2.159  19.604  1.00  0.00     0.040 A 
HETATM   18  C25 UNK     1      19.219   2.202  18.233  1.00  0.00     0.103 A 
HETATM   19  O3  UNK     1      19.351   1.104  16.105  1.00  0.00    -0.271 OA
HETATM   20  C24 UNK     1      19.262  -0.014  15.282  1.00  0.00     0.304 A 
HETATM   21  O6  UNK     1      19.480   0.061  14.077  1.00  0.00    -0.259 OA
BRANCH  18  22
HETATM   22  O5  UNK     1      19.558   3.380  17.641  1.00  0.00    -0.349 OA
BRANCH  22  23
HETATM   23  C30 UNK     1      20.173   4.368  18.466  1.00  0.00     0.171 C 
HETATM   24  C31 UNK     1      21.659   4.398  18.177  1.00  0.00     0.034 C 
ENDBRANCH  22  23
ENDBRANCH  18  22
ENDBRANCH   8  11
ENDBRANCH   5   7
BRANCH   3  25
HETATM   25  C16 UNK     1      20.753  -5.563  14.957  1.00  0.00     0.297 C 
HETATM   26  O2  UNK     1      19.967  -6.145  15.719  1.00  0.00    -0.259 OA
BRANCH  25  27
HETATM   27  O1  UNK     1      22.061  -5.311  15.304  1.00  0.00    -0.317 OA
BRANCH  27  28
HETATM   28  C20 UNK     1      22.282  -4.353  16.344  1.00  0.00     0.178 C 
BRANCH  28  29
HETATM   29  C23 UNK     1      23.773  -4.269  16.630  1.00  0.00     0.022 C 
HETATM   30  C29 UNK     1      24.116  -3.077  17.504  1.00  0.00     0.007 C 
ENDBRANCH  28  29
ENDBRANCH  27  28
ENDBRANCH  25  27
ENDBRANCH   3  25
BRANCH   2  31
HETATM   31  C8  UNK     1      20.805  -7.249  12.316  1.00  0.00    -0.024 A 
HETATM   32  C10 UNK     1      19.892  -8.258  12.625  1.00  0.00     0.013 A 
HETATM   33  C6  UNK     1      20.262  -9.596  12.498  1.00  0.00     0.009 A 
HETATM   34  C2  UNK     1      21.545  -9.927  12.061  1.00  0.00    -0.051 A 
HETATM   35  C7  UNK     1      22.457  -8.918  11.751  1.00  0.00     0.009 A 
HETATM   36  C11 UNK     1      22.087  -7.580  11.879  1.00  0.00     0.013 A 
BRANCH  34  37
HETATM   37  C1  UNK     1      21.941 -11.358  11.926  1.00  0.00    -0.024 C 
HETATM   38  C3  UNK     1      21.055 -12.278  12.824  1.00  0.00     0.019 C 
HETATM   39  C4  UNK     1      23.426 -11.577  12.351  1.00  0.00     0.019 C 
HETATM   40  C5  UNK     1      21.828 -11.953  10.484  1.00  0.00     0.019 C 
ENDBRANCH  34  37
ENDBRANCH   2  31
TORSDOF 10
ENDMDL
MODEL 5
REMARK VINA RESULT:      -8.6      2.173      3.910
REMARK  10 active torsions:
REMARK  status: ('A' for Active; 'I' for Inactive)
REMARK    1  A    between atoms: C16_24  and  O1_2 
REMARK    2  A    between atoms: C20_28  and  O1_2 
REMARK    3  A    between atoms: C25_33  and  O5_6 
REMARK    4  A    between atoms: C30_38  and  O5_6 
REMARK    5  A    between atoms: C14_22  and  N1_8 
REMARK       I    between atoms: C17_25  and  N1_8 
REMARK    6  A    between atoms: C1_9  and  C2_10 
REMARK    7  A    between atoms: C8_16  and  C9_17 
REMARK    8  A    between atoms: C12_20  and  C16_24 
REMARK    9  A    between atoms: C17_25  and  C18_26 
REMARK   10  A    between atoms: C20_28  and  C23_31 
ROOT
HETATM    1  S1  UNK     1      19.328  -1.327  32.004  1.00  0.00    -0.075 SA
HETATM    2  C9  UNK     1      18.736   1.052  32.771  1.00  0.00     0.006 A 
HETATM    3  C12 UNK     1      18.790   0.258  33.953  1.00  0.00     0.085 A 
HETATM    4  C13 UNK     1      19.009   0.316  31.640  1.00  0.00    -0.007 A 
HETATM    5  C14 UNK     1      19.101  -1.055  33.679  1.00  0.00     0.094 A 
HETATM    6  C15 UNK     1      19.058   0.749  30.223  1.00  0.00     0.057 C 
ENDROOT
BRANCH   5   7
HETATM    7  N1  UNK     1      19.256  -2.162  34.519  1.00  0.00    -0.316 N 
HETATM    8  C17 UNK     1      20.433  -2.559  35.140  1.00  0.00     0.262 C 
HETATM    9  O4  UNK     1      21.545  -2.037  35.082  1.00  0.00    -0.267 OA
HETATM   10  H17 UNK     1      18.413  -2.711  34.669  1.00  0.00     0.169 HD
BRANCH   8  11
HETATM   11  C18 UNK     1      20.242  -3.766  35.953  1.00  0.00     0.108 A 
HETATM   12  C21 UNK     1      19.602  -4.782  35.361  1.00  0.00     0.037 A 
HETATM   13  C19 UNK     1      19.364  -6.021  36.085  1.00  0.00     0.002 A 
HETATM   14  C26 UNK     1      18.703  -7.107  35.506  1.00  0.00     0.014 A 
HETATM   15  C22 UNK     1      19.812  -6.129  37.398  1.00  0.00     0.123 A 
HETATM   16  C28 UNK     1      18.500  -8.276  36.245  1.00  0.00     0.004 A 
HETATM   17  C27 UNK     1      18.955  -8.366  37.562  1.00  0.00     0.040 A 
HETATM   18  C25 UNK     1      19.616  -7.289  38.146  1.00  0.00     0.103 A 
HETATM   19  O3  UNK     1      20.483  -5.057  38.016  1.00  0.00    -0.271 OA
HETATM   20  C24 UNK     1      20.726  -3.860  37.348  1.00  0.00     0.304 A 
HETATM   21  O6  UNK     1      21.312  -2.931  37.894  1.00  0.00    -0.259 OA
BRANCH  18  22
HETATM   22  O5  UNK     1      20.058  -7.380  39.430  1.00  0.00    -0.349 OA
BRANCH  22  23
HETATM   23  C30 UNK     1      21.104  -8.315  39.692  1.00  0.00     0.171 C 
HETATM   24  C31 UNK     1      22.428  -7.580  39.717  1.00  0.00     0.034 C 
ENDBRANCH  22  23
ENDBRANCH  18  22
ENDBRANCH   8  11
ENDBRANCH   5   7
BRANCH   3  25
HETATM   25  C16 UNK     1      18.552   0.731  35.295  1.00  0.00     0.297 C 
HETATM   26  O2  UNK     1      19.447   1.121  36.058  1.00  0.00    -0.259 OA
BRANCH  25  27
HETATM   27  O1  UNK     1      17.225   0.714  35.666  1.00  0.00    -0.317 OA
BRANCH  27  28
HETATM   28  C20 UNK     1      16.937   0.334  37.016  1.00  0.00     0.178 C 
BRANCH  28  29
HETATM   29  C23 UNK     1      17.241  -1.146  37.187  1.00  0.00     0.022 C 
HETATM   30  C29 UNK     1      18.282  -1.389  38.264  1.00  0.00     0.007 C 
ENDBRANCH  28  29
ENDBRANCH  27  28
ENDBRANCH  25  27
ENDBRANCH   3  25
BRANCH   2  31
HETATM   31  C8  UNK     1      18.440   2.461  32.684  1.00  0.00    -0.024 A 
HETATM   32  C10 UNK     1      18.390   3.237  33.843  1.00  0.00     0.013 A 
HETATM   33  C6  UNK     1      18.105   4.599  33.758  1.00  0.00     0.009 A 
HETATM   34  C2  UNK     1      17.870   5.187  32.516  1.00  0.00    -0.051 A 
HETATM   35  C7  UNK     1      17.921   4.412  31.357  1.00  0.00     0.009 A 
HETATM   36  C11 UNK     1      18.206   3.049  31.442  1.00  0.00     0.013 A 
BRANCH  34  37
HETATM   37  C1  UNK     1      17.564   6.644  32.425  1.00  0.00    -0.024 C 
HETATM   38  C3  UNK     1      18.678   7.499  33.107  1.00  0.00     0.019 C 
HETATM   39  C4  UNK     1      16.214   6.983  33.129  1.00  0.00     0.019 C 
HETATM   40  C5  UNK     1      17.433   7.213  30.974  1.00  0.00     0.019 C 
ENDBRANCH  34  37
ENDBRANCH   2  31
TORSDOF 10
ENDMDL
MODEL 6
REMARK VINA RESULT:      -8.5     26.380     29.362
REMARK  10 active torsions:
REMARK  status: ('A' for Active; 'I' for Inactive)
REMARK    1  A    between atoms: C16_24  and  O1_2 
REMARK    2  A    between atoms: C20_28  and  O1_2 
REMARK    3  A    between atoms: C25_33  and  O5_6 
REMARK    4  A    between atoms: C30_38  and  O5_6 
REMARK    5  A    between atoms: C14_22  and  N1_8 
REMARK       I    between atoms: C17_25  and  N1_8 
REMARK    6  A    between atoms: C1_9  and  C2_10 
REMARK    7  A    between atoms: C8_16  and  C9_17 
REMARK    8  A    between atoms: C12_20  and  C16_24 
REMARK    9  A    between atoms: C17_25  and  C18_26 
REMARK   10  A    between atoms: C20_28  and  C23_31 
ROOT
HETATM    1  S1  UNK     1      15.264  12.523  11.090  1.00  0.00    -0.075 SA
HETATM    2  C9  UNK     1      14.707  10.217  10.103  1.00  0.00     0.006 A 
HETATM    3  C12 UNK     1      16.122  10.246  10.264  1.00  0.00     0.085 A 
HETATM    4  C13 UNK     1      14.115  11.390  10.514  1.00  0.00    -0.007 A 
HETATM    5  C14 UNK     1      16.558  11.442  10.791  1.00  0.00     0.094 A 
HETATM    6  C15 UNK     1      12.683  11.773  10.517  1.00  0.00     0.057 C 
ENDROOT
BRANCH   5   7
HETATM    7  N1  UNK     1      17.841  11.898  11.110  1.00  0.00    -0.316 N 
HETATM    8  C17 UNK     1      18.766  12.427  10.220  1.00  0.00     0.262 C 
HETATM    9  O4  UNK     1      18.654  12.597   9.008  1.00  0.00    -0.267 OA
HETATM   10  H17 UNK     1      18.094  11.820  12.092  1.00  0.00     0.169 HD
BRANCH   8  11
HETATM   11  C18 UNK     1      20.015  12.806  10.892  1.00  0.00     0.108 A 
HETATM   12  C21 UNK     1      21.149  12.399  10.307  1.00  0.00     0.037 A 
HETATM   13  C19 UNK     1      22.437  12.726  10.897  1.00  0.00     0.002 A 
HETATM   14  C26 UNK     1      23.644  12.323  10.321  1.00  0.00     0.014 A 
HETATM   15  C22 UNK     1      22.469  13.466  12.075  1.00  0.00     0.123 A 
HETATM   16  C28 UNK     1      24.856  12.663  10.928  1.00  0.00     0.004 A 
HETATM   17  C27 UNK     1      24.869  13.406  12.110  1.00  0.00     0.040 A 
HETATM   18  C25 UNK     1      23.670  13.813  12.691  1.00  0.00     0.103 A 
HETATM   19  O3  UNK     1      21.273  13.891  12.686  1.00  0.00    -0.271 OA
HETATM   20  C24 UNK     1      20.026  13.595  12.144  1.00  0.00     0.304 A 
HETATM   21  O6  UNK     1      18.990  13.970  12.682  1.00  0.00    -0.259 OA
BRANCH  18  22
HETATM   22  O5  UNK     1      23.687  14.536  13.843  1.00  0.00    -0.349 OA
BRANCH  22  23
HETATM   23  C30 UNK     1      24.124  13.866  15.025  1.00  0.00     0.171 C 
HETATM   24  C31 UNK     1      22.916  13.509  15.865  1.00  0.00     0.034 C 
ENDBRANCH  22  23
ENDBRANCH  18  22
ENDBRANCH   8  11
ENDBRANCH   5   7
BRANCH   3  25
HETATM   25  C16 UNK     1      17.029   9.176   9.926  1.00  0.00     0.297 C 
HETATM   26  O2  UNK     1      17.905   9.262   9.054  1.00  0.00    -0.259 OA
BRANCH  25  27
HETATM   27  O1  UNK     1      16.839   8.030  10.666  1.00  0.00    -0.317 OA
BRANCH  27  28
HETATM   28  C20 UNK     1      17.263   6.798  10.071  1.00  0.00     0.178 C 
BRANCH  28  29
HETATM   29  C23 UNK     1      16.092   6.186   9.319  1.00  0.00     0.022 C 
HETATM   30  C29 UNK     1      15.345   5.170  10.165  1.00  0.00     0.007 C 
ENDBRANCH  28  29
ENDBRANCH  27  28
ENDBRANCH  25  27
ENDBRANCH   3  25
BRANCH   2  31
HETATM   31  C8  UNK     1      13.915   9.130   9.581  1.00  0.00    -0.024 A 
HETATM   32  C10 UNK     1      13.174   8.328  10.449  1.00  0.00     0.013 A 
HETATM   33  C6  UNK     1      12.407   7.278   9.943  1.00  0.00     0.009 A 
HETATM   34  C2  UNK     1      12.380   7.032   8.571  1.00  0.00    -0.051 A 
HETATM   35  C7  UNK     1      13.120   7.835   7.704  1.00  0.00     0.009 A 
HETATM   36  C11 UNK     1      13.887   8.884   8.209  1.00  0.00     0.013 A 
BRANCH  34  37
HETATM   37  C1  UNK     1      11.560   5.909   8.031  1.00  0.00    -0.024 C 
HETATM   38  C3  UNK     1      10.186   5.807   8.765  1.00  0.00     0.019 C 
HETATM   39  C4  UNK     1      12.289   4.541   8.207  1.00  0.00     0.019 C 
HETATM   40  C5  UNK     1      11.213   6.003   6.509  1.00  0.00     0.019 C 
ENDBRANCH  34  37
ENDBRANCH   2  31
TORSDOF 10
ENDMDL
MODEL 7
REMARK VINA RESULT:      -8.3     27.638     29.685
REMARK  10 active torsions:
REMARK  status: ('A' for Active; 'I' for Inactive)
REMARK    1  A    between atoms: C16_24  and  O1_2 
REMARK    2  A    between atoms: C20_28  and  O1_2 
REMARK    3  A    between atoms: C25_33  and  O5_6 
REMARK    4  A    between atoms: C30_38  and  O5_6 
REMARK    5  A    between atoms: C14_22  and  N1_8 
REMARK       I    between atoms: C17_25  and  N1_8 
REMARK    6  A    between atoms: C1_9  and  C2_10 
REMARK    7  A    between atoms: C8_16  and  C9_17 
REMARK    8  A    between atoms: C12_20  and  C16_24 
REMARK    9  A    between atoms: C17_25  and  C18_26 
REMARK   10  A    between atoms: C20_28  and  C23_31 
ROOT
HETATM    1  S1  UNK     1      14.696  13.248   9.736  1.00  0.00    -0.075 SA
HETATM    2  C9  UNK     1      17.143  12.574  10.138  1.00  0.00     0.006 A 
HETATM    3  C12 UNK     1      16.437  11.364   9.881  1.00  0.00     0.085 A 
HETATM    4  C13 UNK     1      16.317  13.675  10.090  1.00  0.00    -0.007 A 
HETATM    5  C14 UNK     1      15.098  11.585   9.646  1.00  0.00     0.094 A 
HETATM    6  C15 UNK     1      16.642  15.107  10.296  1.00  0.00     0.057 C 
ENDROOT
BRANCH   5   7
HETATM    7  N1  UNK     1      14.052  10.704   9.357  1.00  0.00    -0.316 N 
HETATM    8  C17 UNK     1      13.297   9.997  10.283  1.00  0.00     0.262 C 
HETATM    9  O4  UNK     1      13.389  10.000  11.509  1.00  0.00    -0.267 OA
HETATM   10  H17 UNK     1      13.850  10.586   8.367  1.00  0.00     0.169 HD
BRANCH   8  11
HETATM   11  C18 UNK     1      12.279   9.161   9.635  1.00  0.00     0.108 A 
HETATM   12  C21 UNK     1      12.684   8.453   8.573  1.00  0.00     0.037 A 
HETATM   13  C19 UNK     1      11.748   7.596   7.864  1.00  0.00     0.002 A 
HETATM   14  C26 UNK     1      12.127   6.838   6.752  1.00  0.00     0.014 A 
HETATM   15  C22 UNK     1      10.431   7.525   8.307  1.00  0.00     0.123 A 
HETATM   16  C28 UNK     1      11.189   6.029   6.106  1.00  0.00     0.004 A 
HETATM   17  C27 UNK     1       9.871   5.972   6.564  1.00  0.00     0.040 A 
HETATM   18  C25 UNK     1       9.485   6.722   7.672  1.00  0.00     0.103 A 
HETATM   19  O3  UNK     1      10.011   8.273   9.424  1.00  0.00    -0.271 OA
HETATM   20  C24 UNK     1      10.884   9.101  10.124  1.00  0.00     0.304 A 
HETATM   21  O6  UNK     1      10.509   9.748  11.096  1.00  0.00    -0.259 OA
BRANCH  18  22
HETATM   22  O5  UNK     1       8.200   6.664   8.115  1.00  0.00    -0.349 OA
BRANCH  22  23
HETATM   23  C30 UNK     1       7.817   5.499   8.844  1.00  0.00     0.171 C 
HETATM   24  C31 UNK     1       7.419   5.904  10.248  1.00  0.00     0.034 C 
ENDBRANCH  22  23
ENDBRANCH  18  22
ENDBRANCH   8  11
ENDBRANCH   5   7
BRANCH   3  25
HETATM   25  C16 UNK     1      17.015  10.041   9.860  1.00  0.00     0.297 C 
HETATM   26  O2  UNK     1      17.839   9.662   9.015  1.00  0.00    -0.259 OA
BRANCH  25  27
HETATM   27  O1  UNK     1      16.568   9.220  10.871  1.00  0.00    -0.317 OA
BRANCH  27  28
HETATM   28  C20 UNK     1      16.851   7.823  10.743  1.00  0.00     0.178 C 
BRANCH  28  29
HETATM   29  C23 UNK     1      15.629   7.123  10.169  1.00  0.00     0.022 C 
HETATM   30  C29 UNK     1      15.971   5.755   9.609  1.00  0.00     0.007 C 
ENDBRANCH  28  29
ENDBRANCH  27  28
ENDBRANCH  25  27
ENDBRANCH   3  25
BRANCH   2  31
HETATM   31  C8  UNK     1      18.550  12.715  10.422  1.00  0.00    -0.024 A 
HETATM   32  C10 UNK     1      19.467  12.811   9.376  1.00  0.00     0.013 A 
HETATM   33  C6  UNK     1      20.827  12.949   9.652  1.00  0.00     0.009 A 
HETATM   34  C2  UNK     1      21.270  12.992  10.974  1.00  0.00    -0.051 A 
HETATM   35  C7  UNK     1      20.352  12.897  12.020  1.00  0.00     0.009 A 
HETATM   36  C11 UNK     1      18.992  12.759  11.744  1.00  0.00     0.013 A 
BRANCH  34  37
HETATM   37  C1  UNK     1      22.725  13.138  11.269  1.00  0.00    -0.024 C 
HETATM   38  C3  UNK     1      22.963  14.100  12.475  1.00  0.00     0.019 C 
HETATM   39  C4  UNK     1      23.495  13.720  10.044  1.00  0.00     0.019 C 
HETATM   40  C5  UNK     1      23.471  11.814  11.640  1.00  0.00     0.019 C 
ENDBRANCH  34  37
ENDBRANCH   2  31
TORSDOF 10
ENDMDL
MODEL 8
REMARK VINA RESULT:      -8.3     26.547     29.312
REMARK  10 active torsions:
REMARK  status: ('A' for Active; 'I' for Inactive)
REMARK    1  A    between atoms: C16_24  and  O1_2 
REMARK    2  A    between atoms: C20_28  and  O1_2 
REMARK    3  A    between atoms: C25_33  and  O5_6 
REMARK    4  A    between atoms: C30_38  and  O5_6 
REMARK    5  A    between atoms: C14_22  and  N1_8 
REMARK       I    between atoms: C17_25  and  N1_8 
REMARK    6  A    between atoms: C1_9  and  C2_10 
REMARK    7  A    between atoms: C8_16  and  C9_17 
REMARK    8  A    between atoms: C12_20  and  C16_24 
REMARK    9  A    between atoms: C17_25  and  C18_26 
REMARK   10  A    between atoms: C20_28  and  C23_31 
ROOT
HETATM    1  S1  UNK     1      15.603  12.818  10.995  1.00  0.00    -0.075 SA
HETATM    2  C9  UNK     1      14.857  10.543  10.064  1.00  0.00     0.006 A 
HETATM    3  C12 UNK     1      16.266  10.451  10.246  1.00  0.00     0.085 A 
HETATM    4  C13 UNK     1      14.366  11.775  10.432  1.00  0.00    -0.007 A 
HETATM    5  C14 UNK     1      16.800  11.618  10.746  1.00  0.00     0.094 A 
HETATM    6  C15 UNK     1      12.973  12.283  10.401  1.00  0.00     0.057 C 
ENDROOT
BRANCH   5   7
HETATM    7  N1  UNK     1      18.113  11.968  11.073  1.00  0.00    -0.316 N 
HETATM    8  C17 UNK     1      18.976  12.727  10.294  1.00  0.00     0.262 C 
HETATM    9  O4  UNK     1      18.771  13.231   9.191  1.00  0.00    -0.267 OA
HETATM   10  H17 UNK     1      18.442  11.618  11.970  1.00  0.00     0.169 HD
BRANCH   8  11
HETATM   11  C18 UNK     1      20.283  12.904  10.939  1.00  0.00     0.108 A 
HETATM   12  C21 UNK     1      20.340  12.619  12.246  1.00  0.00     0.037 A 
HETATM   13  C19 UNK     1      21.591  12.764  12.974  1.00  0.00     0.002 A 
HETATM   14  C26 UNK     1      21.697  12.476  14.337  1.00  0.00     0.014 A 
HETATM   15  C22 UNK     1      22.721  13.203  12.290  1.00  0.00     0.123 A 
HETATM   16  C28 UNK     1      22.923  12.631  14.990  1.00  0.00     0.004 A 
HETATM   17  C27 UNK     1      24.046  13.074  14.288  1.00  0.00     0.040 A 
HETATM   18  C25 UNK     1      23.949  13.362  12.929  1.00  0.00     0.103 A 
HETATM   19  O3  UNK     1      22.653  13.502  10.916  1.00  0.00    -0.271 OA
HETATM   20  C24 UNK     1      21.471  13.372  10.192  1.00  0.00     0.304 A 
HETATM   21  O6  UNK     1      21.423  13.634   8.995  1.00  0.00    -0.259 OA
BRANCH  18  22
HETATM   22  O5  UNK     1      25.045  13.793  12.248  1.00  0.00    -0.349 OA
BRANCH  22  23
HETATM   23  C30 UNK     1      26.155  12.900  12.172  1.00  0.00     0.171 C 
HETATM   24  C31 UNK     1      25.992  12.012  10.956  1.00  0.00     0.034 C 
ENDBRANCH  22  23
ENDBRANCH  18  22
ENDBRANCH   8  11
ENDBRANCH   5   7
BRANCH   3  25
HETATM   25  C16 UNK     1      17.079   9.295   9.954  1.00  0.00     0.297 C 
HETATM   26  O2  UNK     1      17.948   9.268   9.070  1.00  0.00    -0.259 OA
BRANCH  25  27
HETATM   27  O1  UNK     1      16.806   8.205  10.750  1.00  0.00    -0.317 OA
BRANCH  27  28
HETATM   28  C20 UNK     1      16.725   6.933  10.098  1.00  0.00     0.178 C 
BRANCH  28  29
HETATM   29  C23 UNK     1      15.411   6.268  10.475  1.00  0.00     0.022 C 
HETATM   30  C29 UNK     1      15.129   5.045   9.622  1.00  0.00     0.007 C 
ENDBRANCH  28  29
ENDBRANCH  27  28
ENDBRANCH  25  27
ENDBRANCH   3  25
BRANCH   2  31
HETATM   31  C8  UNK     1      13.978   9.516   9.560  1.00  0.00    -0.024 A 
HETATM   32  C10 UNK     1      12.946   9.025  10.360  1.00  0.00     0.013 A 
HETATM   33  C6  UNK     1      12.096   8.034   9.872  1.00  0.00     0.009 A 
HETATM   34  C2  UNK     1      12.277   7.532   8.583  1.00  0.00    -0.051 A 
HETATM   35  C7  UNK     1      13.308   8.023   7.782  1.00  0.00     0.009 A 
HETATM   36  C11 UNK     1      14.158   9.015   8.271  1.00  0.00     0.013 A 
BRANCH  34  37
HETATM   37  C1  UNK     1      11.368   6.471   8.061  1.00  0.00    -0.024 C 
HETATM   38  C3  UNK     1      11.582   6.245   6.531  1.00  0.00     0.019 C 
HETATM   39  C4  UNK     1       9.871   6.852   8.276  1.00  0.00     0.019 C 
HETATM   40  C5  UNK     1      11.537   5.061   8.717  1.00  0.00     0.019 C 
ENDBRANCH  34  37
ENDBRANCH   2  31
TORSDOF 10
ENDMDL
MODEL 9
REMARK VINA RESULT:      -8.2     27.743     31.324
REMARK  10 active torsions:
REMARK  status: ('A' for Active; 'I' for Inactive)
REMARK    1  A    between atoms: C16_24  and  O1_2 
REMARK    2  A    between atoms: C20_28  and  O1_2 
REMARK    3  A    between atoms: C25_33  and  O5_6 
REMARK    4  A    between atoms: C30_38  and  O5_6 
REMARK    5  A    between atoms: C14_22  and  N1_8 
REMARK       I    between atoms: C17_25  and  N1_8 
REMARK    6  A    between atoms: C1_9  and  C2_10 
REMARK    7  A    between atoms: C8_16  and  C9_17 
REMARK    8  A    between atoms: C12_20  and  C16_24 
REMARK    9  A    between atoms: C17_25  and  C18_26 
REMARK   10  A    between atoms: C20_28  and  C23_31 
ROOT
HETATM    1  S1  UNK     1      20.201  11.768  10.572  1.00  0.00    -0.075 SA
HETATM    2  C9  UNK     1      20.777  13.609   8.875  1.00  0.00     0.006 A 
HETATM    3  C12 UNK     1      19.645  12.924   8.346  1.00  0.00     0.085 A 
HETATM    4  C13 UNK     1      21.182  13.083  10.081  1.00  0.00    -0.007 A 
HETATM    5  C14 UNK     1      19.229  11.900   9.168  1.00  0.00     0.094 A 
HETATM    6  C15 UNK     1      22.304  13.494  10.959  1.00  0.00     0.057 C 
ENDROOT
BRANCH   5   7
HETATM    7  N1  UNK     1      18.179  10.986   9.045  1.00  0.00    -0.316 N 
HETATM    8  C17 UNK     1      17.136  10.811   9.946  1.00  0.00     0.262 C 
HETATM    9  O4  UNK     1      16.928  11.405  11.002  1.00  0.00    -0.267 OA
HETATM   10  H17 UNK     1      18.208  10.404   8.211  1.00  0.00     0.169 HD
BRANCH   8  11
HETATM   11  C18 UNK     1      16.206   9.764   9.508  1.00  0.00     0.108 A 
HETATM   12  C21 UNK     1      16.329   8.574  10.110  1.00  0.00     0.037 A 
HETATM   13  C19 UNK     1      15.452   7.473   9.744  1.00  0.00     0.002 A 
HETATM   14  C26 UNK     1      15.543   6.216  10.347  1.00  0.00     0.014 A 
HETATM   15  C22 UNK     1      14.488   7.679   8.762  1.00  0.00     0.123 A 
HETATM   16  C28 UNK     1      14.677   5.191   9.960  1.00  0.00     0.004 A 
HETATM   17  C27 UNK     1      13.716   5.415   8.972  1.00  0.00     0.040 A 
HETATM   18  C25 UNK     1      13.617   6.665   8.367  1.00  0.00     0.103 A 
HETATM   19  O3  UNK     1      14.364   8.932   8.132  1.00  0.00    -0.271 OA
HETATM   20  C24 UNK     1      15.187  10.004   8.462  1.00  0.00     0.304 A 
HETATM   21  O6  UNK     1      15.071  11.092   7.908  1.00  0.00    -0.259 OA
BRANCH  18  22
HETATM   22  O5  UNK     1      12.679   6.879   7.404  1.00  0.00    -0.349 OA
BRANCH  22  23
HETATM   23  C30 UNK     1      11.913   5.752   6.981  1.00  0.00     0.171 C 
HETATM   24  C31 UNK     1      10.529   6.218   6.581  1.00  0.00     0.034 C 
ENDBRANCH  22  23
ENDBRANCH  18  22
ENDBRANCH   8  11
ENDBRANCH   5   7
BRANCH   3  25
HETATM   25  C16 UNK     1      18.983  13.231   7.101  1.00  0.00     0.297 C 
HETATM   26  O2  UNK     1      17.915  13.856   7.023  1.00  0.00    -0.259 OA
BRANCH  25  27
HETATM   27  O1  UNK     1      19.644  12.765   5.986  1.00  0.00    -0.317 OA
BRANCH  27  28
HETATM   28  C20 UNK     1      19.476  13.510   4.776  1.00  0.00     0.178 C 
BRANCH  28  29
HETATM   29  C23 UNK     1      20.820  14.089   4.363  1.00  0.00     0.022 C 
HETATM   30  C29 UNK     1      20.762  15.598   4.205  1.00  0.00     0.007 C 
ENDBRANCH  28  29
ENDBRANCH  27  28
ENDBRANCH  25  27
ENDBRANCH   3  25
BRANCH   2  31
HETATM   31  C8  UNK     1      21.471  14.725   8.282  1.00  0.00    -0.024 A 
HETATM   32  C10 UNK     1      22.613  14.507   7.511  1.00  0.00     0.013 A 
HETATM   33  C6  UNK     1      23.283  15.587   6.937  1.00  0.00     0.009 A 
HETATM   34  C2  UNK     1      22.812  16.885   7.133  1.00  0.00    -0.051 A 
HETATM   35  C7  UNK     1      21.669  17.103   7.902  1.00  0.00     0.009 A 
HETATM   36  C11 UNK     1      20.999  16.023   8.477  1.00  0.00     0.013 A 
BRANCH  34  37
HETATM   37  C1  UNK     1      23.529  18.039   6.519  1.00  0.00    -0.024 C 
HETATM   38  C3  UNK     1      22.789  18.553   5.244  1.00  0.00     0.019 C 
HETATM   39  C4  UNK     1      24.978  17.645   6.095  1.00  0.00     0.019 C 
HETATM   40  C5  UNK     1      23.691  19.294   7.439  1.00  0.00     0.019 C 
ENDBRANCH  34  37
ENDBRANCH   2  31
TORSDOF 10
ENDMDL
MODEL 10
REMARK VINA RESULT:      -8.2     28.480     31.181
REMARK  10 active torsions:
REMARK  status: ('A' for Active; 'I' for Inactive)
REMARK    1  A    between atoms: C16_24  and  O1_2 
REMARK    2  A    between atoms: C20_28  and  O1_2 
REMARK    3  A    between atoms: C25_33  and  O5_6 
REMARK    4  A    between atoms: C30_38  and  O5_6 
REMARK    5  A    between atoms: C14_22  and  N1_8 
REMARK       I    between atoms: C17_25  and  N1_8 
REMARK    6  A    between atoms: C1_9  and  C2_10 
REMARK    7  A    between atoms: C8_16  and  C9_17 
REMARK    8  A    between atoms: C12_20  and  C16_24 
REMARK    9  A    between atoms: C17_25  and  C18_26 
REMARK   10  A    between atoms: C20_28  and  C23_31 
ROOT
HETATM    1  S1  UNK     1      17.124  10.031  10.222  1.00  0.00    -0.075 SA
HETATM    2  C9  UNK     1      17.715  12.092   8.807  1.00  0.00     0.006 A 
HETATM    3  C12 UNK     1      16.428  11.666   8.367  1.00  0.00     0.085 A 
HETATM    4  C13 UNK     1      18.209  11.291   9.812  1.00  0.00    -0.007 A 
HETATM    5  C14 UNK     1      15.989  10.556   9.052  1.00  0.00     0.094 A 
HETATM    6  C15 UNK     1      19.496  11.382  10.542  1.00  0.00     0.057 C 
ENDROOT
BRANCH   5   7
HETATM    7  N1  UNK     1      14.807   9.816   8.952  1.00  0.00    -0.316 N 
HETATM    8  C17 UNK     1      14.700   8.432   9.014  1.00  0.00     0.262 C 
HETATM    9  O4  UNK     1      15.592   7.600   9.165  1.00  0.00    -0.267 OA
HETATM   10  H17 UNK     1      13.963  10.367   8.817  1.00  0.00     0.169 HD
BRANCH   8  11
HETATM   11  C18 UNK     1      13.309   7.985   8.872  1.00  0.00     0.108 A 
HETATM   12  C21 UNK     1      12.948   7.550   7.658  1.00  0.00     0.037 A 
HETATM   13  C19 UNK     1      11.591   7.086   7.419  1.00  0.00     0.002 A 
HETATM   14  C26 UNK     1      11.171   6.622   6.170  1.00  0.00     0.014 A 
HETATM   15  C22 UNK     1      10.679   7.103   8.470  1.00  0.00     0.123 A 
HETATM   16  C28 UNK     1       9.856   6.187   5.991  1.00  0.00     0.004 A 
HETATM   17  C27 UNK     1       8.954   6.212   7.057  1.00  0.00     0.040 A 
HETATM   18  C25 UNK     1       9.364   6.672   8.306  1.00  0.00     0.103 A 
HETATM   19  O3  UNK     1      11.064   7.563   9.744  1.00  0.00    -0.271 OA
HETATM   20  C24 UNK     1      12.356   8.012  10.004  1.00  0.00     0.304 A 
HETATM   21  O6  UNK     1      12.682   8.409  11.117  1.00  0.00    -0.259 OA
BRANCH  18  22
HETATM   22  O5  UNK     1       8.482   6.695   9.342  1.00  0.00    -0.349 OA
BRANCH  22  23
HETATM   23  C30 UNK     1       7.750   5.498   9.599  1.00  0.00     0.171 C 
HETATM   24  C31 UNK     1       8.693   4.453  10.156  1.00  0.00     0.034 C 
ENDBRANCH  22  23
ENDBRANCH  18  22
ENDBRANCH   8  11
ENDBRANCH   5   7
BRANCH   3  25
HETATM   25  C16 UNK     1      15.644  12.293   7.329  1.00  0.00     0.297 C 
HETATM   26  O2  UNK     1      15.362  11.747   6.253  1.00  0.00    -0.259 OA
BRANCH  25  27
HETATM   27  O1  UNK     1      15.228  13.569   7.638  1.00  0.00    -0.317 OA
BRANCH  27  28
HETATM   28  C20 UNK     1      14.855  14.410   6.541  1.00  0.00     0.178 C 
BRANCH  28  29
HETATM   29  C23 UNK     1      15.832  15.572   6.456  1.00  0.00     0.022 C 
HETATM   30  C29 UNK     1      16.869  15.360   5.368  1.00  0.00     0.007 C 
ENDBRANCH  28  29
ENDBRANCH  27  28
ENDBRANCH  25  27
ENDBRANCH   3  25
BRANCH   2  31
HETATM   31  C8  UNK     1      18.475  13.214   8.311  1.00  0.00    -0.024 A 
HETATM   32  C10 UNK     1      19.321  13.054   7.214  1.00  0.00     0.013 A 
HETATM   33  C6  UNK     1      20.054  14.139   6.735  1.00  0.00     0.009 A 
HETATM   34  C2  UNK     1      19.940  15.384   7.352  1.00  0.00    -0.051 A 
HETATM   35  C7  UNK     1      19.093  15.545   8.449  1.00  0.00     0.009 A 
HETATM   36  C11 UNK     1      18.360  14.459   8.928  1.00  0.00     0.013 A 
BRANCH  34  37
HETATM   37  C1  UNK     1      20.725  16.545   6.840  1.00  0.00    -0.024 C 
HETATM   38  C3  UNK     1      19.863  17.846   6.821  1.00  0.00     0.019 C 
HETATM   39  C4  UNK     1      21.226  16.291   5.385  1.00  0.00     0.019 C 
HETATM   40  C5  UNK     1      22.005  16.906   7.665  1.00  0.00     0.019 C 
ENDBRANCH  34  37
ENDBRANCH   2  31
TORSDOF 10
ENDMDL
