MODEL 1
REMARK VINA RESULT:      -8.9      0.000      0.000
REMARK  6 active torsions:
REMARK  status: ('A' for Active; 'I' for Inactive)
REMARK    1  A    between atoms: C2_7  and  O1_3 
REMARK    2  A    between atoms: C3_8  and  O1_3 
REMARK    3  A    between atoms: C5_10  and  O2_4 
REMARK    4  A    between atoms: C1_6  and  C2_7 
REMARK    5  A    between atoms: C12_17  and  C4_9 
REMARK    6  A    between atoms: C15_20  and  C16_21 
ROOT
HETATM    1  N1  UNK     1      21.885  -1.748  35.388  1.00  0.00    -0.191 NA
HETATM    2  C12 UNK     1      18.523  -2.263  35.962  1.00  0.00     0.036 C 
HETATM    3  C15 UNK     1      19.699  -2.909  36.186  1.00  0.00     0.055 C 
HETATM    4  C24 UNK     1      20.904  -2.259  35.740  1.00  0.00     0.100 C 
ENDROOT
BRANCH   3   5
HETATM    5  C16 UNK     1      19.800  -4.200  36.847  1.00  0.00    -0.015 A 
HETATM    6  C18 UNK     1      18.830  -5.177  36.625  1.00  0.00     0.014 A 
HETATM    7  C20 UNK     1      18.928  -6.415  37.259  1.00  0.00     0.024 A 
HETATM    8  C22 UNK     1      19.997  -6.677  38.117  1.00  0.00     0.034 A 
HETATM    9  C21 UNK     1      20.967  -5.700  38.339  1.00  0.00     0.024 A 
HETATM   10 Cl1  UNK     1      20.117  -8.205  38.900  1.00  0.00    -0.084 Cl
HETATM   11  C19 UNK     1      20.869  -4.462  37.705  1.00  0.00     0.014 A 
ENDBRANCH   3   5
BRANCH   2  12
HETATM   12  C4  UNK     1      18.375  -0.956  35.306  1.00  0.00    -0.015 A 
HETATM   13  C6  UNK     1      18.567  -0.913  33.930  1.00  0.00     0.052 A 
HETATM   14  C5  UNK     1      18.439   0.300  33.255  1.00  0.00     0.102 A 
HETATM   15  C3  UNK     1      18.121   1.461  33.961  1.00  0.00     0.103 A 
HETATM   16  C7  UNK     1      17.930   1.407  35.341  1.00  0.00     0.059 A 
HETATM   17  C8  UNK     1      18.058   0.194  36.017  1.00  0.00     0.024 A 
HETATM   18 Br1  UNK     1      17.786   0.191  37.897  1.00  0.00    -0.050 Br
BRANCH  14  19
HETATM   19  O2  UNK     1      18.627   0.341  31.906  1.00  0.00    -0.353 OA
HETATM   20  C23 UNK     1      19.704  -0.432  31.379  1.00  0.00     0.210 C 
ENDBRANCH  14  19
BRANCH  15  21
HETATM   21  O1  UNK     1      17.992   2.653  33.312  1.00  0.00    -0.344 OA
BRANCH  21  22
HETATM   22  C2  UNK     1      18.549   3.801  33.949  1.00  0.00     0.214 C 
BRANCH  22  23
HETATM   23  C1  UNK     1      17.918   5.034  33.373  1.00  0.00    -0.034 A 
HETATM   24  C9  UNK     1      17.963   5.254  32.001  1.00  0.00     0.010 A 
HETATM   25  C13 UNK     1      17.376   6.400  31.465  1.00  0.00     0.007 A 
HETATM   26  C11 UNK     1      16.748   7.320  32.305  1.00  0.00    -0.062 A 
HETATM   27  C14 UNK     1      16.707   7.092  33.681  1.00  0.00     0.007 A 
HETATM   28  C17 UNK     1      16.119   8.545  31.733  1.00  0.00     0.048 C 
HETATM   29  C10 UNK     1      17.294   5.946  34.217  1.00  0.00     0.010 A 
ENDBRANCH  22  23
ENDBRANCH  21  22
ENDBRANCH  15  21
ENDBRANCH   2  12
TORSDOF 6
ENDMDL
MODEL 2
REMARK VINA RESULT:      -8.8      6.179      8.348
REMARK  6 active torsions:
REMARK  status: ('A' for Active; 'I' for Inactive)
REMARK    1  A    between atoms: C2_7  and  O1_3 
REMARK    2  A    between atoms: C3_8  and  O1_3 
REMARK    3  A    between atoms: C5_10  and  O2_4 
REMARK    4  A    between atoms: C1_6  and  C2_7 
REMARK    5  A    between atoms: C12_17  and  C4_9 
REMARK    6  A    between atoms: C15_20  and  C16_21 
ROOT
HETATM    1  N1  UNK     1      18.162   3.087  34.433  1.00  0.00    -0.191 NA
HETATM    2  C12 UNK     1      17.974   4.927  31.522  1.00  0.00     0.036 C 
HETATM    3  C15 UNK     1      18.242   3.646  31.895  1.00  0.00     0.055 C 
HETATM    4  C24 UNK     1      18.196   3.347  33.302  1.00  0.00     0.100 C 
ENDROOT
BRANCH   3   5
HETATM    5  C16 UNK     1      18.563   2.580  30.959  1.00  0.00    -0.015 A 
HETATM    6  C18 UNK     1      19.317   1.486  31.379  1.00  0.00     0.014 A 
HETATM    7  C20 UNK     1      19.625   0.464  30.481  1.00  0.00     0.024 A 
HETATM    8  C22 UNK     1      19.178   0.537  29.161  1.00  0.00     0.034 A 
HETATM    9  C21 UNK     1      18.424   1.633  28.741  1.00  0.00     0.024 A 
HETATM   10 Cl1  UNK     1      19.558  -0.723  28.053  1.00  0.00    -0.084 Cl
HETATM   11  C19 UNK     1      18.116   2.654  29.639  1.00  0.00     0.014 A 
ENDBRANCH   3   5
BRANCH   2  12
HETATM   12  C4  UNK     1      17.638   6.031  32.431  1.00  0.00    -0.015 A 
HETATM   13  C6  UNK     1      16.289   6.302  32.628  1.00  0.00     0.052 A 
HETATM   14  C5  UNK     1      15.913   7.339  33.481  1.00  0.00     0.102 A 
HETATM   15  C3  UNK     1      16.888   8.098  34.129  1.00  0.00     0.103 A 
HETATM   16  C7  UNK     1      18.238   7.819  33.924  1.00  0.00     0.059 A 
HETATM   17  C8  UNK     1      18.616   6.782  33.072  1.00  0.00     0.024 A 
HETATM   18 Br1  UNK     1      20.473   6.455  32.837  1.00  0.00    -0.050 Br
BRANCH  14  19
HETATM   19  O2  UNK     1      14.590   7.603  33.673  1.00  0.00    -0.353 OA
HETATM   20  C23 UNK     1      13.715   7.362  32.572  1.00  0.00     0.210 C 
ENDBRANCH  14  19
BRANCH  15  21
HETATM   21  O1  UNK     1      16.532   9.114  34.965  1.00  0.00    -0.344 OA
BRANCH  21  22
HETATM   22  C2  UNK     1      16.645  10.442  34.456  1.00  0.00     0.214 C 
BRANCH  22  23
HETATM   23  C1  UNK     1      15.272  11.026  34.305  1.00  0.00    -0.034 A 
HETATM   24  C9  UNK     1      14.645  11.603  35.403  1.00  0.00     0.010 A 
HETATM   25  C13 UNK     1      13.368  12.147  35.263  1.00  0.00     0.007 A 
HETATM   26  C11 UNK     1      12.726  12.111  34.025  1.00  0.00    -0.062 A 
HETATM   27  C14 UNK     1      13.362  11.531  32.927  1.00  0.00     0.007 A 
HETATM   28  C17 UNK     1      11.362  12.694  33.874  1.00  0.00     0.048 C 
HETATM   29  C10 UNK     1      14.639  10.987  33.067  1.00  0.00     0.010 A 
ENDBRANCH  22  23
ENDBRANCH  21  22
ENDBRANCH  15  21
ENDBRANCH   2  12
TORSDOF 6
ENDMDL
MODEL 3
REMARK VINA RESULT:      -8.4      2.073      3.068
REMARK  6 active torsions:
REMARK  status: ('A' for Active; 'I' for Inactive)
REMARK    1  A    between atoms: C2_7  and  O1_3 
REMARK    2  A    between atoms: C3_8  and  O1_3 
REMARK    3  A    between atoms: C5_10  and  O2_4 
REMARK    4  A    between atoms: C1_6  and  C2_7 
REMARK    5  A    between atoms: C12_17  and  C4_9 
REMARK    6  A    between atoms: C15_20  and  C16_21 
ROOT
HETATM    1  N1  UNK     1      17.555  -5.278  36.328  1.00  0.00    -0.191 NA
HETATM    2  C12 UNK     1      20.476  -3.508  36.807  1.00  0.00     0.036 C 
HETATM    3  C15 UNK     1      19.944  -4.704  37.179  1.00  0.00     0.055 C 
HETATM    4  C24 UNK     1      18.620  -5.012  36.703  1.00  0.00     0.100 C 
ENDROOT
BRANCH   3   5
HETATM    5  C16 UNK     1      20.634  -5.672  38.016  1.00  0.00    -0.015 A 
HETATM    6  C18 UNK     1      22.012  -5.577  38.204  1.00  0.00     0.014 A 
HETATM    7  C20 UNK     1      22.673  -6.506  39.006  1.00  0.00     0.024 A 
HETATM    8  C22 UNK     1      21.956  -7.532  39.623  1.00  0.00     0.034 A 
HETATM    9  C21 UNK     1      20.577  -7.627  39.435  1.00  0.00     0.024 A 
HETATM   10 Cl1  UNK     1      22.772  -8.678  40.613  1.00  0.00    -0.084 Cl
HETATM   11  C19 UNK     1      19.916  -6.698  38.633  1.00  0.00     0.014 A 
ENDBRANCH   3   5
BRANCH   2  12
HETATM   12  C4  UNK     1      19.818  -2.505  35.959  1.00  0.00    -0.015 A 
HETATM   13  C6  UNK     1      20.172  -2.482  34.615  1.00  0.00     0.052 A 
HETATM   14  C5  UNK     1      19.579  -1.550  33.763  1.00  0.00     0.102 A 
HETATM   15  C3  UNK     1      18.639  -0.648  34.261  1.00  0.00     0.103 A 
HETATM   16  C7  UNK     1      18.291  -0.679  35.611  1.00  0.00     0.059 A 
HETATM   17  C8  UNK     1      18.883  -1.611  36.464  1.00  0.00     0.024 A 
HETATM   18 Br1  UNK     1      18.364  -1.598  38.291  1.00  0.00    -0.050 Br
BRANCH  14  19
HETATM   19  O2  UNK     1      19.927  -1.530  32.446  1.00  0.00    -0.353 OA
HETATM   20  C23 UNK     1      20.871  -2.507  32.010  1.00  0.00     0.210 C 
ENDBRANCH  14  19
BRANCH  15  21
HETATM   21  O1  UNK     1      18.053   0.266  33.438  1.00  0.00    -0.344 OA
BRANCH  21  22
HETATM   22  C2  UNK     1      17.801   1.560  33.983  1.00  0.00     0.214 C 
BRANCH  22  23
HETATM   23  C1  UNK     1      18.141   2.598  32.954  1.00  0.00    -0.034 A 
HETATM   24  C9  UNK     1      18.270   3.928  33.335  1.00  0.00     0.010 A 
HETATM   25  C13 UNK     1      18.587   4.893  32.378  1.00  0.00     0.007 A 
HETATM   26  C11 UNK     1      18.773   4.521  31.047  1.00  0.00    -0.062 A 
HETATM   27  C14 UNK     1      18.643   3.184  30.672  1.00  0.00     0.007 A 
HETATM   28  C17 UNK     1      19.114   5.551  30.024  1.00  0.00     0.048 C 
HETATM   29  C10 UNK     1      18.325   2.218  31.629  1.00  0.00     0.010 A 
ENDBRANCH  22  23
ENDBRANCH  21  22
ENDBRANCH  15  21
ENDBRANCH   2  12
TORSDOF 6
ENDMDL
MODEL 4
REMARK VINA RESULT:      -8.3     12.458     15.035
REMARK  6 active torsions:
REMARK  status: ('A' for Active; 'I' for Inactive)
REMARK    1  A    between atoms: C2_7  and  O1_3 
REMARK    2  A    between atoms: C3_8  and  O1_3 
REMARK    3  A    between atoms: C5_10  and  O2_4 
REMARK    4  A    between atoms: C1_6  and  C2_7 
REMARK    5  A    between atoms: C12_17  and  C4_9 
REMARK    6  A    between atoms: C15_20  and  C16_21 
ROOT
HETATM    1  N1  UNK     1      27.350 -10.260  39.750  1.00  0.00    -0.191 NA
HETATM    2  C12 UNK     1      27.427  -8.594  36.732  1.00  0.00     0.036 C 
HETATM    3  C15 UNK     1      26.606  -9.455  37.392  1.00  0.00     0.055 C 
HETATM    4  C24 UNK     1      27.027  -9.896  38.697  1.00  0.00     0.100 C 
ENDROOT
BRANCH   3   5
HETATM    5  C16 UNK     1      25.344  -9.942  36.858  1.00  0.00    -0.015 A 
HETATM    6  C18 UNK     1      24.203  -9.145  36.926  1.00  0.00     0.014 A 
HETATM    7  C20 UNK     1      22.993  -9.613  36.414  1.00  0.00     0.024 A 
HETATM    8  C22 UNK     1      22.924 -10.879  35.832  1.00  0.00     0.034 A 
HETATM    9  C21 UNK     1      24.067 -11.677  35.764  1.00  0.00     0.024 A 
HETATM   10 Cl1  UNK     1      21.432 -11.457  35.201  1.00  0.00    -0.084 Cl
HETATM   11  C19 UNK     1      25.276 -11.209  36.277  1.00  0.00     0.014 A 
ENDBRANCH   3   5
BRANCH   2  12
HETATM   12  C4  UNK     1      28.704  -8.071  37.235  1.00  0.00    -0.015 A 
HETATM   13  C6  UNK     1      29.857  -8.758  36.872  1.00  0.00     0.052 A 
HETATM   14  C5  UNK     1      31.097  -8.306  37.322  1.00  0.00     0.102 A 
HETATM   15  C3  UNK     1      31.176  -7.172  38.131  1.00  0.00     0.103 A 
HETATM   16  C7  UNK     1      30.014  -6.491  38.490  1.00  0.00     0.059 A 
HETATM   17  C8  UNK     1      28.772  -6.941  38.041  1.00  0.00     0.024 A 
HETATM   18 Br1  UNK     1      27.229  -5.967  38.567  1.00  0.00    -0.050 Br
BRANCH  14  19
HETATM   19  O2  UNK     1      32.226  -8.980  36.964  1.00  0.00    -0.353 OA
HETATM   20  C23 UNK     1      32.504  -9.083  35.568  1.00  0.00     0.210 C 
ENDBRANCH  14  19
BRANCH  15  21
HETATM   21  O1  UNK     1      32.382  -6.721  38.575  1.00  0.00    -0.344 OA
BRANCH  21  22
HETATM   22  C2  UNK     1      32.813  -5.448  38.099  1.00  0.00     0.214 C 
BRANCH  22  23
HETATM   23  C1  UNK     1      33.541  -5.633  36.800  1.00  0.00    -0.034 A 
HETATM   24  C9  UNK     1      32.905  -5.321  35.604  1.00  0.00     0.010 A 
HETATM   25  C13 UNK     1      33.582  -5.493  34.396  1.00  0.00     0.007 A 
HETATM   26  C11 UNK     1      34.892  -5.974  34.393  1.00  0.00    -0.062 A 
HETATM   27  C14 UNK     1      35.523  -6.283  35.597  1.00  0.00     0.007 A 
HETATM   28  C17 UNK     1      35.616  -6.156  33.103  1.00  0.00     0.048 C 
HETATM   29  C10 UNK     1      34.846  -6.113  36.805  1.00  0.00     0.010 A 
ENDBRANCH  22  23
ENDBRANCH  21  22
ENDBRANCH  15  21
ENDBRANCH   2  12
TORSDOF 6
ENDMDL
MODEL 5
REMARK VINA RESULT:      -8.3      3.878     10.238
REMARK  6 active torsions:
REMARK  status: ('A' for Active; 'I' for Inactive)
REMARK    1  A    between atoms: C2_7  and  O1_3 
REMARK    2  A    between atoms: C3_8  and  O1_3 
REMARK    3  A    between atoms: C5_10  and  O2_4 
REMARK    4  A    between atoms: C1_6  and  C2_7 
REMARK    5  A    between atoms: C12_17  and  C4_9 
REMARK    6  A    between atoms: C15_20  and  C16_21 
ROOT
HETATM    1  N1  UNK     1      20.080   2.611  36.453  1.00  0.00    -0.191 NA
HETATM    2  C12 UNK     1      18.019   1.204  34.073  1.00  0.00     0.036 C 
HETATM    3  C15 UNK     1      18.505   2.434  34.392  1.00  0.00     0.055 C 
HETATM    4  C24 UNK     1      19.376   2.522  35.535  1.00  0.00     0.100 C 
ENDROOT
BRANCH   3   5
HETATM    5  C16 UNK     1      18.197   3.644  33.646  1.00  0.00    -0.015 A 
HETATM    6  C18 UNK     1      18.127   3.608  32.254  1.00  0.00     0.014 A 
HETATM    7  C20 UNK     1      17.833   4.769  31.540  1.00  0.00     0.024 A 
HETATM    8  C22 UNK     1      17.608   5.967  32.218  1.00  0.00     0.034 A 
HETATM    9  C21 UNK     1      17.678   6.003  33.611  1.00  0.00     0.024 A 
HETATM   10 Cl1  UNK     1      17.245   7.400  31.337  1.00  0.00    -0.084 Cl
HETATM   11  C19 UNK     1      17.973   4.842  34.325  1.00  0.00     0.014 A 
ENDBRANCH   3   5
BRANCH   2  12
HETATM   12  C4  UNK     1      18.309  -0.045  34.793  1.00  0.00    -0.015 A 
HETATM   13  C6  UNK     1      19.241  -0.903  34.222  1.00  0.00     0.052 A 
HETATM   14  C5  UNK     1      19.555  -2.102  34.862  1.00  0.00     0.102 A 
HETATM   15  C3  UNK     1      18.933  -2.434  36.066  1.00  0.00     0.103 A 
HETATM   16  C7  UNK     1      17.998  -1.566  36.630  1.00  0.00     0.059 A 
HETATM   17  C8  UNK     1      17.684  -0.366  35.991  1.00  0.00     0.024 A 
HETATM   18 Br1  UNK     1      16.402   0.769  36.813  1.00  0.00    -0.050 Br
BRANCH  14  19
HETATM   19  O2  UNK     1      20.470  -2.942  34.302  1.00  0.00    -0.353 OA
HETATM   20  C23 UNK     1      20.879  -2.654  32.965  1.00  0.00     0.210 C 
ENDBRANCH  14  19
BRANCH  15  21
HETATM   21  O1  UNK     1      19.232  -3.602  36.700  1.00  0.00    -0.344 OA
BRANCH  21  22
HETATM   22  C2  UNK     1      20.503  -3.684  37.341  1.00  0.00     0.214 C 
BRANCH  22  23
HETATM   23  C1  UNK     1      20.690  -5.072  37.880  1.00  0.00    -0.034 A 
HETATM   24  C9  UNK     1      21.944  -5.474  38.327  1.00  0.00     0.010 A 
HETATM   25  C13 UNK     1      22.118  -6.765  38.827  1.00  0.00     0.007 A 
HETATM   26  C11 UNK     1      21.036  -7.645  38.879  1.00  0.00    -0.062 A 
HETATM   27  C14 UNK     1      19.781  -7.234  38.430  1.00  0.00     0.007 A 
HETATM   28  C17 UNK     1      21.221  -9.023  39.416  1.00  0.00     0.048 C 
HETATM   29  C10 UNK     1      19.607  -5.943  37.928  1.00  0.00     0.010 A 
ENDBRANCH  22  23
ENDBRANCH  21  22
ENDBRANCH  15  21
ENDBRANCH   2  12
TORSDOF 6
ENDMDL
MODEL 6
REMARK VINA RESULT:      -8.1     11.232     13.891
REMARK  6 active torsions:
REMARK  status: ('A' for Active; 'I' for Inactive)
REMARK    1  A    between atoms: C2_7  and  O1_3 
REMARK    2  A    between atoms: C3_8  and  O1_3 
REMARK    3  A    between atoms: C5_10  and  O2_4 
REMARK    4  A    between atoms: C1_6  and  C2_7 
REMARK    5  A    between atoms: C12_17  and  C4_9 
REMARK    6  A    between atoms: C15_20  and  C16_21 
ROOT
HETATM    1  N1  UNK     1      26.647  -5.956  39.021  1.00  0.00    -0.191 NA
HETATM    2  C12 UNK     1      26.085  -9.080  37.673  1.00  0.00     0.036 C 
HETATM    3  C15 UNK     1      25.358  -8.060  38.203  1.00  0.00     0.055 C 
HETATM    4  C24 UNK     1      26.081  -6.900  38.653  1.00  0.00     0.100 C 
ENDROOT
BRANCH   3   5
HETATM    5  C16 UNK     1      23.909  -8.080  38.331  1.00  0.00    -0.015 A 
HETATM    6  C18 UNK     1      23.130  -8.708  37.359  1.00  0.00     0.014 A 
HETATM    7  C20 UNK     1      21.742  -8.726  37.483  1.00  0.00     0.024 A 
HETATM    8  C22 UNK     1      21.130  -8.117  38.579  1.00  0.00     0.034 A 
HETATM    9  C21 UNK     1      21.909  -7.489  39.551  1.00  0.00     0.024 A 
HETATM   10 Cl1  UNK     1      19.416  -8.139  38.731  1.00  0.00    -0.084 Cl
HETATM   11  C19 UNK     1      23.298  -7.470  39.427  1.00  0.00     0.014 A 
ENDBRANCH   3   5
BRANCH   2  12
HETATM   12  C4  UNK     1      27.546  -9.100  37.517  1.00  0.00    -0.015 A 
HETATM   13  C6  UNK     1      28.060  -8.671  36.299  1.00  0.00     0.052 A 
HETATM   14  C5  UNK     1      29.439  -8.668  36.097  1.00  0.00     0.102 A 
HETATM   15  C3  UNK     1      30.295  -9.095  37.113  1.00  0.00     0.103 A 
HETATM   16  C7  UNK     1      29.770  -9.523  38.331  1.00  0.00     0.059 A 
HETATM   17  C8  UNK     1      28.390  -9.527  38.535  1.00  0.00     0.024 A 
HETATM   18 Br1  UNK     1      27.741 -10.123  40.218  1.00  0.00    -0.050 Br
BRANCH  14  19
HETATM   19  O2  UNK     1      29.941  -8.247  34.902  1.00  0.00    -0.353 OA
HETATM   20  C23 UNK     1      29.845  -6.853  34.614  1.00  0.00     0.210 C 
ENDBRANCH  14  19
BRANCH  15  21
HETATM   21  O1  UNK     1      31.645  -9.096  36.926  1.00  0.00    -0.344 OA
BRANCH  21  22
HETATM   22  C2  UNK     1      32.427  -8.342  37.850  1.00  0.00     0.214 C 
BRANCH  22  23
HETATM   23  C1  UNK     1      32.329  -6.887  37.500  1.00  0.00    -0.034 A 
HETATM   24  C9  UNK     1      33.040  -6.390  36.413  1.00  0.00     0.010 A 
HETATM   25  C13 UNK     1      32.949  -5.037  36.087  1.00  0.00     0.007 A 
HETATM   26  C11 UNK     1      32.146  -4.188  36.850  1.00  0.00    -0.062 A 
HETATM   27  C14 UNK     1      31.435  -4.694  37.938  1.00  0.00     0.007 A 
HETATM   28  C17 UNK     1      32.047  -2.742  36.501  1.00  0.00     0.048 C 
HETATM   29  C10 UNK     1      31.526  -6.047  38.265  1.00  0.00     0.010 A 
ENDBRANCH  22  23
ENDBRANCH  21  22
ENDBRANCH  15  21
ENDBRANCH   2  12
TORSDOF 6
ENDMDL
MODEL 7
REMARK VINA RESULT:      -8.0     11.963     14.627
REMARK  6 active torsions:
REMARK  status: ('A' for Active; 'I' for Inactive)
REMARK    1  A    between atoms: C2_7  and  O1_3 
REMARK    2  A    between atoms: C3_8  and  O1_3 
REMARK    3  A    between atoms: C5_10  and  O2_4 
REMARK    4  A    between atoms: C1_6  and  C2_7 
REMARK    5  A    between atoms: C12_17  and  C4_9 
REMARK    6  A    between atoms: C15_20  and  C16_21 
ROOT
HETATM    1  N1  UNK     1      29.379  -6.581  34.714  1.00  0.00    -0.191 NA
HETATM    2  C12 UNK     1      30.757  -7.787  37.637  1.00  0.00     0.036 C 
HETATM    3  C15 UNK     1      31.184  -7.337  36.426  1.00  0.00     0.055 C 
HETATM    4  C24 UNK     1      30.177  -6.921  35.485  1.00  0.00     0.100 C 
ENDROOT
BRANCH   3   5
HETATM    5  C16 UNK     1      32.585  -7.252  36.042  1.00  0.00    -0.015 A 
HETATM    6  C18 UNK     1      33.046  -7.948  34.925  1.00  0.00     0.014 A 
HETATM    7  C20 UNK     1      34.388  -7.866  34.557  1.00  0.00     0.024 A 
HETATM    8  C22 UNK     1      35.271  -7.088  35.307  1.00  0.00     0.034 A 
HETATM    9  C21 UNK     1      34.810  -6.392  36.425  1.00  0.00     0.024 A 
HETATM   10 Cl1  UNK     1      36.928  -6.987  34.853  1.00  0.00    -0.084 Cl
HETATM   11  C19 UNK     1      33.467  -6.474  36.792  1.00  0.00     0.014 A 
ENDBRANCH   3   5
BRANCH   2  12
HETATM   12  C4  UNK     1      29.356  -7.883  38.069  1.00  0.00    -0.015 A 
HETATM   13  C6  UNK     1      28.707  -9.093  37.853  1.00  0.00     0.052 A 
HETATM   14  C5  UNK     1      27.377  -9.240  38.243  1.00  0.00     0.102 A 
HETATM   15  C3  UNK     1      26.705  -8.176  38.846  1.00  0.00     0.103 A 
HETATM   16  C7  UNK     1      27.364  -6.966  39.059  1.00  0.00     0.059 A 
HETATM   17  C8  UNK     1      28.695  -6.818  38.669  1.00  0.00     0.024 A 
HETATM   18 Br1  UNK     1      29.533  -5.143  38.987  1.00  0.00    -0.050 Br
BRANCH  14  19
HETATM   19  O2  UNK     1      26.743 -10.427  38.031  1.00  0.00    -0.353 OA
HETATM   20  C23 UNK     1      26.153 -10.625  36.746  1.00  0.00     0.210 C 
ENDBRANCH  14  19
BRANCH  15  21
HETATM   21  O1  UNK     1      25.405  -8.309  39.233  1.00  0.00    -0.344 OA
BRANCH  21  22
HETATM   22  C2  UNK     1      24.454  -7.444  38.615  1.00  0.00     0.214 C 
BRANCH  22  23
HETATM   23  C1  UNK     1      23.154  -8.177  38.460  1.00  0.00    -0.034 A 
HETATM   24  C9  UNK     1      22.284  -8.273  39.540  1.00  0.00     0.010 A 
HETATM   25  C13 UNK     1      21.076  -8.955  39.396  1.00  0.00     0.007 A 
HETATM   26  C11 UNK     1      20.744  -9.535  38.172  1.00  0.00    -0.062 A 
HETATM   27  C14 UNK     1      21.621  -9.433  37.092  1.00  0.00     0.007 A 
HETATM   28  C17 UNK     1      19.452 -10.262  38.016  1.00  0.00     0.048 C 
HETATM   29  C10 UNK     1      22.830  -8.752  37.236  1.00  0.00     0.010 A 
ENDBRANCH  22  23
ENDBRANCH  21  22
ENDBRANCH  15  21
ENDBRANCH   2  12
TORSDOF 6
ENDMDL
MODEL 8
REMARK VINA RESULT:      -8.0      1.796      2.551
REMARK  6 active torsions:
REMARK  status: ('A' for Active; 'I' for Inactive)
REMARK    1  A    between atoms: C2_7  and  O1_3 
REMARK    2  A    between atoms: C3_8  and  O1_3 
REMARK    3  A    between atoms: C5_10  and  O2_4 
REMARK    4  A    between atoms: C1_6  and  C2_7 
REMARK    5  A    between atoms: C12_17  and  C4_9 
REMARK    6  A    between atoms: C15_20  and  C16_21 
ROOT
HETATM    1  N1  UNK     1      22.081  -1.444  35.643  1.00  0.00    -0.191 NA
HETATM    2  C12 UNK     1      18.786  -2.462  35.647  1.00  0.00     0.036 C 
HETATM    3  C15 UNK     1      20.013  -3.003  35.875  1.00  0.00     0.055 C 
HETATM    4  C24 UNK     1      21.152  -2.132  35.744  1.00  0.00     0.100 C 
ENDROOT
BRANCH   3   5
HETATM    5  C16 UNK     1      20.230  -4.393  36.244  1.00  0.00    -0.015 A 
HETATM    6  C18 UNK     1      19.860  -5.414  35.369  1.00  0.00     0.014 A 
HETATM    7  C20 UNK     1      20.067  -6.746  35.724  1.00  0.00     0.024 A 
HETATM    8  C22 UNK     1      20.646  -7.060  36.954  1.00  0.00     0.034 A 
HETATM    9  C21 UNK     1      21.016  -6.038  37.830  1.00  0.00     0.024 A 
HETATM   10 Cl1  UNK     1      20.902  -8.703  37.392  1.00  0.00    -0.084 Cl
HETATM   11  C19 UNK     1      20.808  -4.706  37.475  1.00  0.00     0.014 A 
ENDBRANCH   3   5
BRANCH   2  12
HETATM   12  C4  UNK     1      18.521  -1.064  35.280  1.00  0.00    -0.015 A 
HETATM   13  C6  UNK     1      18.097  -0.213  36.293  1.00  0.00     0.052 A 
HETATM   14  C5  UNK     1      17.831   1.125  36.002  1.00  0.00     0.102 A 
HETATM   15  C3  UNK     1      17.990   1.600  34.700  1.00  0.00     0.103 A 
HETATM   16  C7  UNK     1      18.416   0.738  33.690  1.00  0.00     0.059 A 
HETATM   17  C8  UNK     1      18.683  -0.600  33.981  1.00  0.00     0.024 A 
HETATM   18 Br1  UNK     1      19.259  -1.720  32.559  1.00  0.00    -0.050 Br
BRANCH  14  19
HETATM   19  O2  UNK     1      17.415   1.958  36.996  1.00  0.00    -0.353 OA
HETATM   20  C23 UNK     1      17.526   1.474  38.335  1.00  0.00     0.210 C 
ENDBRANCH  14  19
BRANCH  15  21
HETATM   21  O1  UNK     1      17.733   2.905  34.404  1.00  0.00    -0.344 OA
BRANCH  21  22
HETATM   22  C2  UNK     1      18.371   3.444  33.247  1.00  0.00     0.214 C 
BRANCH  22  23
HETATM   23  C1  UNK     1      18.359   4.942  33.336  1.00  0.00    -0.034 A 
HETATM   24  C9  UNK     1      17.322   5.659  32.751  1.00  0.00     0.010 A 
HETATM   25  C13 UNK     1      17.311   7.051  32.833  1.00  0.00     0.007 A 
HETATM   26  C11 UNK     1      18.338   7.718  33.501  1.00  0.00    -0.062 A 
HETATM   27  C14 UNK     1      19.375   6.993  34.087  1.00  0.00     0.007 A 
HETATM   28  C17 UNK     1      18.326   9.206  33.592  1.00  0.00     0.048 C 
HETATM   29  C10 UNK     1      19.387   5.600  34.004  1.00  0.00     0.010 A 
ENDBRANCH  22  23
ENDBRANCH  21  22
ENDBRANCH  15  21
ENDBRANCH   2  12
TORSDOF 6
ENDMDL
MODEL 9
REMARK VINA RESULT:      -8.0     26.167     28.642
REMARK  6 active torsions:
REMARK  status: ('A' for Active; 'I' for Inactive)
REMARK    1  A    between atoms: C2_7  and  O1_3 
REMARK    2  A    between atoms: C3_8  and  O1_3 
REMARK    3  A    between atoms: C5_10  and  O2_4 
REMARK    4  A    between atoms: C1_6  and  C2_7 
REMARK    5  A    between atoms: C12_17  and  C4_9 
REMARK    6  A    between atoms: C15_20  and  C16_21 
ROOT
HETATM    1  N1  UNK     1      15.582  11.218   7.541  1.00  0.00    -0.191 NA
HETATM    2  C12 UNK     1      17.293   9.731  10.139  1.00  0.00     0.036 C 
HETATM    3  C15 UNK     1      17.491  10.729   9.236  1.00  0.00     0.055 C 
HETATM    4  C24 UNK     1      16.428  10.992   8.301  1.00  0.00     0.100 C 
ENDROOT
BRANCH   3   5
HETATM    5  C16 UNK     1      18.701  11.534   9.171  1.00  0.00    -0.015 A 
HETATM    6  C18 UNK     1      19.367  11.890  10.343  1.00  0.00     0.014 A 
HETATM    7  C20 UNK     1      20.526  12.662  10.280  1.00  0.00     0.024 A 
HETATM    8  C22 UNK     1      21.021  13.079   9.044  1.00  0.00     0.034 A 
HETATM    9  C21 UNK     1      20.354  12.722   7.871  1.00  0.00     0.024 A 
HETATM   10 Cl1  UNK     1      22.451  14.031   8.965  1.00  0.00    -0.084 Cl
HETATM   11  C19 UNK     1      19.195  11.950   7.934  1.00  0.00     0.014 A 
ENDBRANCH   3   5
BRANCH   2  12
HETATM   12  C4  UNK     1      16.086   8.899  10.245  1.00  0.00    -0.015 A 
HETATM   13  C6  UNK     1      14.917   9.528  10.655  1.00  0.00     0.052 A 
HETATM   14  C5  UNK     1      13.742   8.787  10.773  1.00  0.00     0.102 A 
HETATM   15  C3  UNK     1      13.745   7.422  10.482  1.00  0.00     0.103 A 
HETATM   16  C7  UNK     1      14.923   6.800  10.072  1.00  0.00     0.059 A 
HETATM   17  C8  UNK     1      16.100   7.541   9.953  1.00  0.00     0.024 A 
HETATM   18 Br1  UNK     1      17.670   6.632   9.390  1.00  0.00    -0.050 Br
BRANCH  14  19
HETATM   19  O2  UNK     1      12.596   9.405  11.175  1.00  0.00    -0.353 OA
HETATM   20  C23 UNK     1      12.520   9.803  12.543  1.00  0.00     0.210 C 
ENDBRANCH  14  19
BRANCH  15  21
HETATM   21  O1  UNK     1      12.602   6.688  10.593  1.00  0.00    -0.344 OA
BRANCH  21  22
HETATM   22  C2  UNK     1      12.516   5.501   9.807  1.00  0.00     0.214 C 
BRANCH  22  23
HETATM   23  C1  UNK     1      11.658   5.771   8.607  1.00  0.00    -0.034 A 
HETATM   24  C9  UNK     1      12.243   5.874   7.350  1.00  0.00     0.010 A 
HETATM   25  C13 UNK     1      11.445   6.125   6.234  1.00  0.00     0.007 A 
HETATM   26  C11 UNK     1      10.065   6.271   6.382  1.00  0.00    -0.062 A 
HETATM   27  C14 UNK     1       9.485   6.165   7.646  1.00  0.00     0.007 A 
HETATM   28  C17 UNK     1       9.211   6.537   5.189  1.00  0.00     0.048 C 
HETATM   29  C10 UNK     1      10.283   5.915   8.762  1.00  0.00     0.010 A 
ENDBRANCH  22  23
ENDBRANCH  21  22
ENDBRANCH  15  21
ENDBRANCH   2  12
TORSDOF 6
ENDMDL
MODEL 10
REMARK VINA RESULT:      -8.0      1.545      2.242
REMARK  6 active torsions:
REMARK  status: ('A' for Active; 'I' for Inactive)
REMARK    1  A    between atoms: C2_7  and  O1_3 
REMARK    2  A    between atoms: C3_8  and  O1_3 
REMARK    3  A    between atoms: C5_10  and  O2_4 
REMARK    4  A    between atoms: C1_6  and  C2_7 
REMARK    5  A    between atoms: C12_17  and  C4_9 
REMARK    6  A    between atoms: C15_20  and  C16_21 
ROOT
HETATM    1  N1  UNK     1      22.290  -1.640  35.287  1.00  0.00    -0.191 NA
HETATM    2  C12 UNK     1      18.984  -2.507  34.824  1.00  0.00     0.036 C 
HETATM    3  C15 UNK     1      20.055  -2.944  35.541  1.00  0.00     0.055 C 
HETATM    4  C24 UNK     1      21.288  -2.216  35.393  1.00  0.00     0.100 C 
ENDROOT
BRANCH   3   5
HETATM    5  C16 UNK     1      20.017  -4.089  36.437  1.00  0.00    -0.015 A 
HETATM    6  C18 UNK     1      20.951  -4.201  37.466  1.00  0.00     0.014 A 
HETATM    7  C20 UNK     1      20.914  -5.299  38.325  1.00  0.00     0.024 A 
HETATM    8  C22 UNK     1      19.942  -6.285  38.156  1.00  0.00     0.034 A 
HETATM    9  C21 UNK     1      19.007  -6.173  37.127  1.00  0.00     0.024 A 
HETATM   10 Cl1  UNK     1      19.896  -7.640  39.216  1.00  0.00    -0.084 Cl
HETATM   11  C19 UNK     1      19.044  -5.075  36.268  1.00  0.00     0.014 A 
ENDBRANCH   3   5
BRANCH   2  12
HETATM   12  C4  UNK     1      18.976  -1.354  33.914  1.00  0.00    -0.015 A 
HETATM   13  C6  UNK     1      19.562  -1.527  32.666  1.00  0.00     0.052 A 
HETATM   14  C5  UNK     1      19.583  -0.466  31.762  1.00  0.00     0.102 A 
HETATM   15  C3  UNK     1      19.018   0.761  32.112  1.00  0.00     0.103 A 
HETATM   16  C7  UNK     1      18.432   0.925  33.366  1.00  0.00     0.059 A 
HETATM   17  C8  UNK     1      18.411  -0.136  34.272  1.00  0.00     0.024 A 
HETATM   18 Br1  UNK     1      17.598   0.155  35.964  1.00  0.00    -0.050 Br
BRANCH  14  19
HETATM   19  O2  UNK     1      20.158  -0.638  30.538  1.00  0.00    -0.353 OA
HETATM   20  C23 UNK     1      20.151  -1.960  30.000  1.00  0.00     0.210 C 
ENDBRANCH  14  19
BRANCH  15  21
HETATM   21  O1  UNK     1      19.031   1.805  31.236  1.00  0.00    -0.344 OA
BRANCH  21  22
HETATM   22  C2  UNK     1      17.952   2.734  31.320  1.00  0.00     0.214 C 
BRANCH  22  23
HETATM   23  C1  UNK     1      18.463   4.025  31.889  1.00  0.00    -0.034 A 
HETATM   24  C9  UNK     1      18.125   4.386  33.188  1.00  0.00     0.010 A 
HETATM   25  C13 UNK     1      18.600   5.587  33.717  1.00  0.00     0.007 A 
HETATM   26  C11 UNK     1      19.410   6.418  32.943  1.00  0.00    -0.062 A 
HETATM   27  C14 UNK     1      19.745   6.048  31.641  1.00  0.00     0.007 A 
HETATM   28  C17 UNK     1      19.919   7.700  33.509  1.00  0.00     0.048 C 
HETATM   29  C10 UNK     1      19.270   4.848  31.111  1.00  0.00     0.010 A 
ENDBRANCH  22  23
ENDBRANCH  21  22
ENDBRANCH  15  21
ENDBRANCH   2  12
TORSDOF 6
ENDMDL
