MODEL 1
REMARK VINA RESULT:      -7.2      0.000      0.000
REMARK  8 active torsions:
REMARK  status: ('A' for Active; 'I' for Inactive)
REMARK    1  A    between atoms: C13_16  and  O2_2 
REMARK    2  A    between atoms: C17_20  and  O2_2 
REMARK    3  A    between atoms: C1_4  and  C2_5 
REMARK    4  A    between atoms: C1_4  and  C3_6 
REMARK    5  A    between atoms: C2_5  and  C4_7 
REMARK    6  A    between atoms: C4_7  and  C7_10 
REMARK    7  A    between atoms: C16_19  and  C17_20 
REMARK    8  A    between atoms: C16_19  and  C18_21 
ROOT
HETATM    1  O1  UNK     1      18.076   3.128  33.380  1.00  0.00    -0.274 OA
HETATM    2  O3  UNK     1      18.117   0.901  32.946  1.00  0.00    -0.259 OA
HETATM    3  C3  UNK     1      18.553   2.343  31.101  1.00  0.00     0.024 A 
HETATM    4  C5  UNK     1      18.645   3.613  30.650  1.00  0.00    -0.037 A 
HETATM    5  C6  UNK     1      18.485   4.733  31.599  1.00  0.00     0.005 A 
HETATM    6  C8  UNK     1      18.204   4.451  32.933  1.00  0.00     0.092 A 
HETATM    7  C9  UNK     1      18.238   2.049  32.529  1.00  0.00     0.295 A 
HETATM    8  C10 UNK     1      18.891   3.971  29.205  1.00  0.00     0.050 C 
HETATM    9  C11 UNK     1      18.610   6.086  31.244  1.00  0.00     0.017 A 
HETATM   10  C12 UNK     1      18.039   5.452  33.894  1.00  0.00     0.075 A 
HETATM   11  C13 UNK     1      18.160   6.784  33.519  1.00  0.00     0.071 A 
HETATM   12  C15 UNK     1      18.447   7.101  32.194  1.00  0.00     0.038 A 
ENDROOT
BRANCH   3  13
HETATM   13  C1  UNK     1      18.757   1.112  30.256  1.00  0.00     0.045 C 
BRANCH  13  14
HETATM   14  C2  UNK     1      20.155   0.517  30.397  1.00  0.00     0.005 C 
BRANCH  14  15
HETATM   15  C4  UNK     1      20.512  -0.461  29.273  1.00  0.00    -0.000 C 
BRANCH  15  16
HETATM   16  C7  UNK     1      20.462  -1.908  29.763  1.00  0.00    -0.005 C 
HETATM   17  C14 UNK     1      20.440  -1.983  31.282  1.00  0.00     0.005 C 
ENDBRANCH  15  16
ENDBRANCH  14  15
ENDBRANCH  13  14
ENDBRANCH   3  13
BRANCH  11  18
HETATM   18  O2  UNK     1      18.002   7.772  34.440  1.00  0.00    -0.351 OA
BRANCH  18  19
HETATM   19  C17 UNK     1      16.759   7.819  35.138  1.00  0.00     0.175 C 
BRANCH  19  20
HETATM   20  C16 UNK     1      15.720   8.486  34.249  1.00  0.00     0.026 C 
BRANCH  20  21
HETATM   21  C18 UNK     1      14.598   7.521  33.871  1.00  0.00    -0.002 C 
HETATM   22  C19 UNK     1      14.577   7.249  32.376  1.00  0.00     0.005 C 
ENDBRANCH  20  21
ENDBRANCH  19  20
ENDBRANCH  18  19
ENDBRANCH  11  18
TORSDOF 8
ENDMDL
MODEL 2
REMARK VINA RESULT:      -6.8      1.552      2.204
REMARK  8 active torsions:
REMARK  status: ('A' for Active; 'I' for Inactive)
REMARK    1  A    between atoms: C13_16  and  O2_2 
REMARK    2  A    between atoms: C17_20  and  O2_2 
REMARK    3  A    between atoms: C1_4  and  C2_5 
REMARK    4  A    between atoms: C1_4  and  C3_6 
REMARK    5  A    between atoms: C2_5  and  C4_7 
REMARK    6  A    between atoms: C4_7  and  C7_10 
REMARK    7  A    between atoms: C16_19  and  C17_20 
REMARK    8  A    between atoms: C16_19  and  C18_21 
ROOT
HETATM    1  O1  UNK     1      18.503   4.764  30.053  1.00  0.00    -0.274 OA
HETATM    2  O3  UNK     1      18.838   2.980  28.690  1.00  0.00    -0.259 OA
HETATM    3  C3  UNK     1      18.486   2.494  30.996  1.00  0.00     0.024 A 
HETATM    4  C5  UNK     1      18.286   2.979  32.240  1.00  0.00    -0.037 A 
HETATM    5  C6  UNK     1      18.145   4.437  32.437  1.00  0.00     0.005 A 
HETATM    6  C8  UNK     1      18.260   5.279  31.335  1.00  0.00     0.092 A 
HETATM    7  C9  UNK     1      18.622   3.404  29.822  1.00  0.00     0.295 A 
HETATM    8  C10 UNK     1      18.212   2.113  33.473  1.00  0.00     0.050 C 
HETATM    9  C11 UNK     1      17.888   5.039  33.678  1.00  0.00     0.017 A 
HETATM   10  C12 UNK     1      18.139   6.668  31.435  1.00  0.00     0.075 A 
HETATM   11  C13 UNK     1      17.892   7.243  32.675  1.00  0.00     0.071 A 
HETATM   12  C15 UNK     1      17.764   6.428  33.796  1.00  0.00     0.038 A 
ENDROOT
BRANCH   3  13
HETATM   13  C1  UNK     1      18.584   1.031  30.647  1.00  0.00     0.045 C 
BRANCH  13  14
HETATM   14  C2  UNK     1      20.005   0.488  30.746  1.00  0.00     0.005 C 
BRANCH  14  15
HETATM   15  C4  UNK     1      20.509  -0.133  29.440  1.00  0.00    -0.000 C 
BRANCH  15  16
HETATM   16  C7  UNK     1      20.128  -1.611  29.347  1.00  0.00    -0.005 C 
HETATM   17  C14 UNK     1      20.470  -2.356  30.628  1.00  0.00     0.005 C 
ENDBRANCH  15  16
ENDBRANCH  14  15
ENDBRANCH  13  14
ENDBRANCH   3  13
BRANCH  11  18
HETATM   18  O2  UNK     1      17.771   8.592  32.792  1.00  0.00    -0.351 OA
BRANCH  18  19
HETATM   19  C17 UNK     1      16.801   9.081  33.718  1.00  0.00     0.175 C 
BRANCH  19  20
HETATM   20  C16 UNK     1      15.485   9.296  32.984  1.00  0.00     0.026 C 
BRANCH  20  21
HETATM   21  C18 UNK     1      14.418   8.302  33.437  1.00  0.00    -0.002 C 
HETATM   22  C19 UNK     1      14.185   7.220  32.394  1.00  0.00     0.005 C 
ENDBRANCH  20  21
ENDBRANCH  19  20
ENDBRANCH  18  19
ENDBRANCH  11  18
TORSDOF 8
ENDMDL
MODEL 3
REMARK VINA RESULT:      -6.8      1.148      7.514
REMARK  8 active torsions:
REMARK  status: ('A' for Active; 'I' for Inactive)
REMARK    1  A    between atoms: C13_16  and  O2_2 
REMARK    2  A    between atoms: C17_20  and  O2_2 
REMARK    3  A    between atoms: C1_4  and  C2_5 
REMARK    4  A    between atoms: C1_4  and  C3_6 
REMARK    5  A    between atoms: C2_5  and  C4_7 
REMARK    6  A    between atoms: C4_7  and  C7_10 
REMARK    7  A    between atoms: C16_19  and  C17_20 
REMARK    8  A    between atoms: C16_19  and  C18_21 
ROOT
HETATM    1  O1  UNK     1      17.777   4.324  33.711  1.00  0.00    -0.274 OA
HETATM    2  O3  UNK     1      17.299   6.361  34.591  1.00  0.00    -0.259 OA
HETATM    3  C3  UNK     1      17.973   6.331  32.306  1.00  0.00     0.024 A 
HETATM    4  C5  UNK     1      18.398   5.593  31.258  1.00  0.00    -0.037 A 
HETATM    5  C6  UNK     1      18.495   4.125  31.396  1.00  0.00     0.005 A 
HETATM    6  C8  UNK     1      18.182   3.542  32.620  1.00  0.00     0.092 A 
HETATM    7  C9  UNK     1      17.653   5.700  33.619  1.00  0.00     0.295 A 
HETATM    8  C10 UNK     1      18.803   6.183  29.930  1.00  0.00     0.050 C 
HETATM    9  C11 UNK     1      18.878   3.264  30.356  1.00  0.00     0.017 A 
HETATM   10  C12 UNK     1      18.248   2.162  32.833  1.00  0.00     0.075 A 
HETATM   11  C13 UNK     1      18.636   1.329  31.792  1.00  0.00     0.071 A 
HETATM   12  C15 UNK     1      18.950   1.880  30.552  1.00  0.00     0.038 A 
ENDROOT
BRANCH   3  13
HETATM   13  C1  UNK     1      17.768   7.824  32.283  1.00  0.00     0.045 C 
BRANCH  13  14
HETATM   14  C2  UNK     1      16.396   8.229  31.755  1.00  0.00     0.005 C 
BRANCH  14  15
HETATM   15  C4  UNK     1      15.521   8.914  32.808  1.00  0.00    -0.000 C 
BRANCH  15  16
HETATM   16  C7  UNK     1      14.485   7.946  33.381  1.00  0.00    -0.005 C 
HETATM   17  C14 UNK     1      13.879   7.071  32.296  1.00  0.00     0.005 C 
ENDBRANCH  15  16
ENDBRANCH  14  15
ENDBRANCH  13  14
ENDBRANCH   3  13
BRANCH  11  18
HETATM   18  O2  UNK     1      18.706  -0.016  31.980  1.00  0.00    -0.351 OA
BRANCH  18  19
HETATM   19  C17 UNK     1      19.954  -0.649  31.699  1.00  0.00     0.175 C 
BRANCH  19  20
HETATM   20  C16 UNK     1      19.688  -1.953  30.960  1.00  0.00     0.026 C 
BRANCH  20  21
HETATM   21  C18 UNK     1      20.605  -2.112  29.750  1.00  0.00    -0.002 C 
HETATM   22  C19 UNK     1      20.688  -0.828  28.940  1.00  0.00     0.005 C 
ENDBRANCH  20  21
ENDBRANCH  19  20
ENDBRANCH  18  19
ENDBRANCH  11  18
TORSDOF 8
ENDMDL
MODEL 4
REMARK VINA RESULT:      -6.6     15.698     17.692
REMARK  8 active torsions:
REMARK  status: ('A' for Active; 'I' for Inactive)
REMARK    1  A    between atoms: C13_16  and  O2_2 
REMARK    2  A    between atoms: C17_20  and  O2_2 
REMARK    3  A    between atoms: C1_4  and  C2_5 
REMARK    4  A    between atoms: C1_4  and  C3_6 
REMARK    5  A    between atoms: C2_5  and  C4_7 
REMARK    6  A    between atoms: C4_7  and  C7_10 
REMARK    7  A    between atoms: C16_19  and  C17_20 
REMARK    8  A    between atoms: C16_19  and  C18_21 
ROOT
HETATM    1  O1  UNK     1      30.545  -4.160  38.138  1.00  0.00    -0.274 OA
HETATM    2  O3  UNK     1      29.072  -4.197  39.864  1.00  0.00    -0.259 OA
HETATM    3  C3  UNK     1      28.641  -5.713  38.077  1.00  0.00     0.024 A 
HETATM    4  C5  UNK     1      29.011  -6.167  36.860  1.00  0.00    -0.037 A 
HETATM    5  C6  UNK     1      30.236  -5.635  36.229  1.00  0.00     0.005 A 
HETATM    6  C8  UNK     1      30.960  -4.648  36.890  1.00  0.00     0.092 A 
HETATM    7  C9  UNK     1      29.415  -4.644  38.774  1.00  0.00     0.295 A 
HETATM    8  C10 UNK     1      28.229  -7.193  36.078  1.00  0.00     0.050 C 
HETATM    9  C11 UNK     1      30.733  -6.072  34.991  1.00  0.00     0.017 A 
HETATM   10  C12 UNK     1      32.129  -4.093  36.362  1.00  0.00     0.075 A 
HETATM   11  C13 UNK     1      32.600  -4.536  35.133  1.00  0.00     0.071 A 
HETATM   12  C15 UNK     1      31.903  -5.528  34.448  1.00  0.00     0.038 A 
ENDROOT
BRANCH   3  13
HETATM   13  C1  UNK     1      27.454  -6.213  38.859  1.00  0.00     0.045 C 
BRANCH  13  14
HETATM   14  C2  UNK     1      27.772  -7.440  39.707  1.00  0.00     0.005 C 
BRANCH  14  15
HETATM   15  C4  UNK     1      26.942  -8.670  39.327  1.00  0.00    -0.000 C 
BRANCH  15  16
HETATM   16  C7  UNK     1      27.817  -9.920  39.233  1.00  0.00    -0.005 C 
HETATM   17  C14 UNK     1      29.202  -9.593  38.698  1.00  0.00     0.005 C 
ENDBRANCH  15  16
ENDBRANCH  14  15
ENDBRANCH  13  14
ENDBRANCH   3  13
BRANCH  11  18
HETATM   18  O2  UNK     1      33.735  -4.008  34.603  1.00  0.00    -0.351 OA
BRANCH  18  19
HETATM   19  C17 UNK     1      34.835  -4.896  34.407  1.00  0.00     0.175 C 
BRANCH  19  20
HETATM   20  C16 UNK     1      35.300  -5.411  35.761  1.00  0.00     0.026 C 
BRANCH  20  21
HETATM   21  C18 UNK     1      35.073  -6.914  35.901  1.00  0.00    -0.002 C 
HETATM   22  C19 UNK     1      34.137  -7.231  37.057  1.00  0.00     0.005 C 
ENDBRANCH  20  21
ENDBRANCH  19  20
ENDBRANCH  18  19
ENDBRANCH  11  18
TORSDOF 8
ENDMDL
MODEL 5
REMARK VINA RESULT:      -6.6     22.875     24.401
REMARK  8 active torsions:
REMARK  status: ('A' for Active; 'I' for Inactive)
REMARK    1  A    between atoms: C13_16  and  O2_2 
REMARK    2  A    between atoms: C17_20  and  O2_2 
REMARK    3  A    between atoms: C1_4  and  C2_5 
REMARK    4  A    between atoms: C1_4  and  C3_6 
REMARK    5  A    between atoms: C2_5  and  C4_7 
REMARK    6  A    between atoms: C4_7  and  C7_10 
REMARK    7  A    between atoms: C16_19  and  C17_20 
REMARK    8  A    between atoms: C16_19  and  C18_21 
ROOT
HETATM    1  O1  UNK     1      16.397   6.403   9.794  1.00  0.00    -0.274 OA
HETATM    2  O3  UNK     1      15.442   4.345   9.739  1.00  0.00    -0.259 OA
HETATM    3  C3  UNK     1      13.955   6.201   9.603  1.00  0.00     0.024 A 
HETATM    4  C5  UNK     1      13.812   7.544   9.614  1.00  0.00    -0.037 A 
HETATM    5  C6  UNK     1      15.014   8.401   9.682  1.00  0.00     0.005 A 
HETATM    6  C8  UNK     1      16.266   7.800   9.771  1.00  0.00     0.092 A 
HETATM    7  C9  UNK     1      15.299   5.564   9.713  1.00  0.00     0.295 A 
HETATM    8  C10 UNK     1      12.476   8.243   9.577  1.00  0.00     0.050 C 
HETATM    9  C11 UNK     1      14.979   9.804   9.651  1.00  0.00     0.017 A 
HETATM   10  C12 UNK     1      17.451   8.537   9.839  1.00  0.00     0.075 A 
HETATM   11  C13 UNK     1      17.393   9.925   9.813  1.00  0.00     0.071 A 
HETATM   12  C15 UNK     1      16.156  10.558   9.717  1.00  0.00     0.038 A 
ENDROOT
BRANCH   3  13
HETATM   13  C1  UNK     1      12.822   5.215   9.474  1.00  0.00     0.045 C 
BRANCH  13  14
HETATM   14  C2  UNK     1      12.431   4.943   8.025  1.00  0.00     0.005 C 
BRANCH  14  15
HETATM   15  C4  UNK     1      11.093   5.574   7.631  1.00  0.00    -0.000 C 
BRANCH  15  16
HETATM   16  C7  UNK     1      11.177   6.235   6.254  1.00  0.00    -0.005 C 
HETATM   17  C14 UNK     1       9.798   6.435   5.646  1.00  0.00     0.005 C 
ENDBRANCH  15  16
ENDBRANCH  14  15
ENDBRANCH  13  14
ENDBRANCH   3  13
BRANCH  11  18
HETATM   18  O2  UNK     1      18.535  10.659   9.877  1.00  0.00    -0.351 OA
BRANCH  18  19
HETATM   19  C17 UNK     1      18.535  11.922   9.212  1.00  0.00     0.175 C 
BRANCH  19  20
HETATM   20  C16 UNK     1      19.151  11.750   7.831  1.00  0.00     0.026 C 
BRANCH  20  21
HETATM   21  C18 UNK     1      18.203  12.216   6.729  1.00  0.00    -0.002 C 
HETATM   22  C19 UNK     1      18.960  12.609   5.471  1.00  0.00     0.005 C 
ENDBRANCH  20  21
ENDBRANCH  19  20
ENDBRANCH  18  19
ENDBRANCH  11  18
TORSDOF 8
ENDMDL
MODEL 6
REMARK VINA RESULT:      -6.5      2.962      5.217
REMARK  8 active torsions:
REMARK  status: ('A' for Active; 'I' for Inactive)
REMARK    1  A    between atoms: C13_16  and  O2_2 
REMARK    2  A    between atoms: C17_20  and  O2_2 
REMARK    3  A    between atoms: C1_4  and  C2_5 
REMARK    4  A    between atoms: C1_4  and  C3_6 
REMARK    5  A    between atoms: C2_5  and  C4_7 
REMARK    6  A    between atoms: C4_7  and  C7_10 
REMARK    7  A    between atoms: C16_19  and  C17_20 
REMARK    8  A    between atoms: C16_19  and  C18_21 
ROOT
HETATM    1  O1  UNK     1      17.707   2.093  33.524  1.00  0.00    -0.274 OA
HETATM    2  O3  UNK     1      17.237   1.163  35.541  1.00  0.00    -0.259 OA
HETATM    3  C3  UNK     1      18.347  -0.239  33.967  1.00  0.00     0.024 A 
HETATM    4  C5  UNK     1      18.845  -0.371  32.718  1.00  0.00    -0.037 A 
HETATM    5  C6  UNK     1      18.822   0.787  31.802  1.00  0.00     0.005 A 
HETATM    6  C8  UNK     1      18.252   1.979  32.237  1.00  0.00     0.092 A 
HETATM    7  C9  UNK     1      17.725   1.038  34.422  1.00  0.00     0.295 A 
HETATM    8  C10 UNK     1      19.420  -1.657  32.180  1.00  0.00     0.050 C 
HETATM    9  C11 UNK     1      19.356   0.770  30.503  1.00  0.00     0.017 A 
HETATM   10  C12 UNK     1      18.192   3.121  31.433  1.00  0.00     0.075 A 
HETATM   11  C13 UNK     1      18.720   3.080  30.149  1.00  0.00     0.071 A 
HETATM   12  C15 UNK     1      19.304   1.904  29.685  1.00  0.00     0.038 A 
ENDROOT
BRANCH   3  13
HETATM   13  C1  UNK     1      18.364  -1.317  35.020  1.00  0.00     0.045 C 
BRANCH  13  14
HETATM   14  C2  UNK     1      19.645  -1.322  35.847  1.00  0.00     0.005 C 
BRANCH  14  15
HETATM   15  C4  UNK     1      20.329  -2.692  35.895  1.00  0.00    -0.000 C 
BRANCH  15  16
HETATM   16  C7  UNK     1      19.437  -3.732  36.573  1.00  0.00    -0.005 C 
HETATM   17  C14 UNK     1      19.894  -5.148  36.259  1.00  0.00     0.005 C 
ENDBRANCH  15  16
ENDBRANCH  14  15
ENDBRANCH  13  14
ENDBRANCH   3  13
BRANCH  11  18
HETATM   18  O2  UNK     1      18.671   4.180  29.352  1.00  0.00    -0.351 OA
BRANCH  18  19
HETATM   19  C17 UNK     1      18.733   5.453  29.995  1.00  0.00     0.175 C 
BRANCH  19  20
HETATM   20  C16 UNK     1      20.189   5.886  30.088  1.00  0.00     0.026 C 
BRANCH  20  21
HETATM   21  C18 UNK     1      20.671   5.939  31.535  1.00  0.00    -0.002 C 
HETATM   22  C19 UNK     1      19.593   6.478  32.462  1.00  0.00     0.005 C 
ENDBRANCH  20  21
ENDBRANCH  19  20
ENDBRANCH  18  19
ENDBRANCH  11  18
TORSDOF 8
ENDMDL
MODEL 7
REMARK VINA RESULT:      -6.5      2.422      8.355
REMARK  8 active torsions:
REMARK  status: ('A' for Active; 'I' for Inactive)
REMARK    1  A    between atoms: C13_16  and  O2_2 
REMARK    2  A    between atoms: C17_20  and  O2_2 
REMARK    3  A    between atoms: C1_4  and  C2_5 
REMARK    4  A    between atoms: C1_4  and  C3_6 
REMARK    5  A    between atoms: C2_5  and  C4_7 
REMARK    6  A    between atoms: C4_7  and  C7_10 
REMARK    7  A    between atoms: C16_19  and  C17_20 
REMARK    8  A    between atoms: C16_19  and  C18_21 
ROOT
HETATM    1  O1  UNK     1      16.121   6.343  32.626  1.00  0.00    -0.274 OA
HETATM    2  O3  UNK     1      14.580   7.596  33.725  1.00  0.00    -0.259 OA
HETATM    3  C3  UNK     1      16.850   8.287  33.941  1.00  0.00     0.024 A 
HETATM    4  C5  UNK     1      18.145   8.039  33.646  1.00  0.00    -0.037 A 
HETATM    5  C6  UNK     1      18.483   6.906  32.760  1.00  0.00     0.005 A 
HETATM    6  C8  UNK     1      17.458   6.096  32.282  1.00  0.00     0.092 A 
HETATM    7  C9  UNK     1      15.758   7.405  33.437  1.00  0.00     0.295 A 
HETATM    8  C10 UNK     1      19.295   8.852  34.184  1.00  0.00     0.050 C 
HETATM    9  C11 UNK     1      19.789   6.592  32.352  1.00  0.00     0.017 A 
HETATM   10  C12 UNK     1      17.692   5.005  31.440  1.00  0.00     0.075 A 
HETATM   11  C13 UNK     1      18.993   4.708  31.054  1.00  0.00     0.071 A 
HETATM   12  C15 UNK     1      20.042   5.504  31.509  1.00  0.00     0.038 A 
ENDROOT
BRANCH   3  13
HETATM   13  C1  UNK     1      16.363   9.442  34.778  1.00  0.00     0.045 C 
BRANCH  13  14
HETATM   14  C2  UNK     1      16.179  10.724  33.973  1.00  0.00     0.005 C 
BRANCH  14  15
HETATM   15  C4  UNK     1      16.855  11.941  34.611  1.00  0.00    -0.000 C 
BRANCH  15  16
HETATM   16  C7  UNK     1      18.181  12.262  33.922  1.00  0.00    -0.005 C 
HETATM   17  C14 UNK     1      18.222  13.702  33.434  1.00  0.00     0.005 C 
ENDBRANCH  15  16
ENDBRANCH  14  15
ENDBRANCH  13  14
ENDBRANCH   3  13
BRANCH  11  18
HETATM   18  O2  UNK     1      19.241   3.652  30.236  1.00  0.00    -0.351 OA
BRANCH  18  19
HETATM   19  C17 UNK     1      18.239   2.639  30.159  1.00  0.00     0.175 C 
BRANCH  19  20
HETATM   20  C16 UNK     1      18.728   1.532  29.236  1.00  0.00     0.026 C 
BRANCH  20  21
HETATM   21  C18 UNK     1      19.683   0.581  29.954  1.00  0.00    -0.002 C 
HETATM   22  C19 UNK     1      20.284  -0.434  28.995  1.00  0.00     0.005 C 
ENDBRANCH  20  21
ENDBRANCH  19  20
ENDBRANCH  18  19
ENDBRANCH  11  18
TORSDOF 8
ENDMDL
MODEL 8
REMARK VINA RESULT:      -6.5     22.215     24.405
REMARK  8 active torsions:
REMARK  status: ('A' for Active; 'I' for Inactive)
REMARK    1  A    between atoms: C13_16  and  O2_2 
REMARK    2  A    between atoms: C17_20  and  O2_2 
REMARK    3  A    between atoms: C1_4  and  C2_5 
REMARK    4  A    between atoms: C1_4  and  C3_6 
REMARK    5  A    between atoms: C2_5  and  C4_7 
REMARK    6  A    between atoms: C4_7  and  C7_10 
REMARK    7  A    between atoms: C16_19  and  C17_20 
REMARK    8  A    between atoms: C16_19  and  C18_21 
ROOT
HETATM    1  O1  UNK     1      13.923   5.218   8.739  1.00  0.00    -0.274 OA
HETATM    2  O3  UNK     1      16.073   4.959   9.420  1.00  0.00    -0.259 OA
HETATM    3  C3  UNK     1      15.007   6.997  10.042  1.00  0.00     0.024 A 
HETATM    4  C5  UNK     1      13.901   7.768   9.969  1.00  0.00    -0.037 A 
HETATM    5  C6  UNK     1      12.701   7.250   9.278  1.00  0.00     0.005 A 
HETATM    6  C8  UNK     1      12.755   5.993   8.686  1.00  0.00     0.092 A 
HETATM    7  C9  UNK     1      15.063   5.656   9.392  1.00  0.00     0.295 A 
HETATM    8  C10 UNK     1      13.811   9.159  10.545  1.00  0.00     0.050 C 
HETATM    9  C11 UNK     1      11.487   7.949   9.187  1.00  0.00     0.017 A 
HETATM   10  C12 UNK     1      11.666   5.431   8.014  1.00  0.00     0.075 A 
HETATM   11  C13 UNK     1      10.476   6.142   7.930  1.00  0.00     0.071 A 
HETATM   12  C15 UNK     1      10.386   7.401   8.519  1.00  0.00     0.038 A 
ENDROOT
BRANCH   3  13
HETATM   13  C1  UNK     1      16.274   7.375  10.768  1.00  0.00     0.045 C 
BRANCH  13  14
HETATM   14  C2  UNK     1      17.252   8.152   9.894  1.00  0.00     0.005 C 
BRANCH  14  15
HETATM   15  C4  UNK     1      17.255   9.657  10.180  1.00  0.00    -0.000 C 
BRANCH  15  16
HETATM   16  C7  UNK     1      17.469  10.464   8.899  1.00  0.00    -0.005 C 
HETATM   17  C14 UNK     1      16.158  11.016   8.363  1.00  0.00     0.005 C 
ENDBRANCH  15  16
ENDBRANCH  14  15
ENDBRANCH  13  14
ENDBRANCH   3  13
BRANCH  11  18
HETATM   18  O2  UNK     1       9.405   5.612   7.282  1.00  0.00    -0.351 OA
BRANCH  18  19
HETATM   19  C17 UNK     1       8.110   5.977   7.757  1.00  0.00     0.175 C 
BRANCH  19  20
HETATM   20  C16 UNK     1       7.755   5.093   8.944  1.00  0.00     0.026 C 
BRANCH  20  21
HETATM   21  C18 UNK     1       7.324   5.919  10.154  1.00  0.00    -0.002 C 
HETATM   22  C19 UNK     1       6.939   7.334   9.753  1.00  0.00     0.005 C 
ENDBRANCH  20  21
ENDBRANCH  19  20
ENDBRANCH  18  19
ENDBRANCH  11  18
TORSDOF 8
ENDMDL
MODEL 9
REMARK VINA RESULT:      -6.5     22.572     25.020
REMARK  8 active torsions:
REMARK  status: ('A' for Active; 'I' for Inactive)
REMARK    1  A    between atoms: C13_16  and  O2_2 
REMARK    2  A    between atoms: C17_20  and  O2_2 
REMARK    3  A    between atoms: C1_4  and  C2_5 
REMARK    4  A    between atoms: C1_4  and  C3_6 
REMARK    5  A    between atoms: C2_5  and  C4_7 
REMARK    6  A    between atoms: C4_7  and  C7_10 
REMARK    7  A    between atoms: C16_19  and  C17_20 
REMARK    8  A    between atoms: C16_19  and  C18_21 
ROOT
HETATM    1  O1  UNK     1      12.281   6.675   6.578  1.00  0.00    -0.274 OA
HETATM    2  O3  UNK     1      10.385   7.053   5.389  1.00  0.00    -0.259 OA
HETATM    3  C3  UNK     1      10.106   6.025   7.520  1.00  0.00     0.024 A 
HETATM    4  C5  UNK     1      10.699   5.523   8.624  1.00  0.00    -0.037 A 
HETATM    5  C6  UNK     1      12.167   5.617   8.765  1.00  0.00     0.005 A 
HETATM    6  C8  UNK     1      12.907   6.189   7.735  1.00  0.00     0.092 A 
HETATM    7  C9  UNK     1      10.907   6.624   6.413  1.00  0.00     0.295 A 
HETATM    8  C10 UNK     1       9.948   4.842   9.741  1.00  0.00     0.050 C 
HETATM    9  C11 UNK     1      12.877   5.171   9.891  1.00  0.00     0.017 A 
HETATM   10  C12 UNK     1      14.298   6.317   7.790  1.00  0.00     0.075 A 
HETATM   11  C13 UNK     1      14.981   5.862   8.911  1.00  0.00     0.071 A 
HETATM   12  C15 UNK     1      14.269   5.291   9.963  1.00  0.00     0.038 A 
ENDROOT
BRANCH   3  13
HETATM   13  C1  UNK     1       8.618   6.051   7.277  1.00  0.00     0.045 C 
BRANCH  13  14
HETATM   14  C2  UNK     1       7.947   7.307   7.825  1.00  0.00     0.005 C 
BRANCH  14  15
HETATM   15  C4  UNK     1       7.390   7.126   9.240  1.00  0.00    -0.000 C 
BRANCH  15  16
HETATM   16  C7  UNK     1       7.828   8.267  10.158  1.00  0.00    -0.005 C 
HETATM   17  C14 UNK     1       9.192   8.811   9.759  1.00  0.00     0.005 C 
ENDBRANCH  15  16
ENDBRANCH  14  15
ENDBRANCH  13  14
ENDBRANCH   3  13
BRANCH  11  18
HETATM   18  O2  UNK     1      16.333   5.978   8.983  1.00  0.00    -0.351 OA
BRANCH  18  19
HETATM   19  C17 UNK     1      16.872   6.603  10.147  1.00  0.00     0.175 C 
BRANCH  19  20
HETATM   20  C16 UNK     1      17.058   8.088   9.867  1.00  0.00     0.026 C 
BRANCH  20  21
HETATM   21  C18 UNK     1      15.940   8.923  10.487  1.00  0.00    -0.002 C 
HETATM   22  C19 UNK     1      15.507   8.365  11.833  1.00  0.00     0.005 C 
ENDBRANCH  20  21
ENDBRANCH  19  20
ENDBRANCH  18  19
ENDBRANCH  11  18
TORSDOF 8
ENDMDL
MODEL 10
REMARK VINA RESULT:      -6.4      3.372      7.736
REMARK  8 active torsions:
REMARK  status: ('A' for Active; 'I' for Inactive)
REMARK    1  A    between atoms: C13_16  and  O2_2 
REMARK    2  A    between atoms: C17_20  and  O2_2 
REMARK    3  A    between atoms: C1_4  and  C2_5 
REMARK    4  A    between atoms: C1_4  and  C3_6 
REMARK    5  A    between atoms: C2_5  and  C4_7 
REMARK    6  A    between atoms: C4_7  and  C7_10 
REMARK    7  A    between atoms: C16_19  and  C17_20 
REMARK    8  A    between atoms: C16_19  and  C18_21 
ROOT
HETATM    1  O1  UNK     1      18.745   0.568  31.692  1.00  0.00    -0.274 OA
HETATM    2  O3  UNK     1      18.763   1.666  29.706  1.00  0.00    -0.259 OA
HETATM    3  C3  UNK     1      18.400   3.001  31.645  1.00  0.00     0.024 A 
HETATM    4  C5  UNK     1      18.240   3.035  32.986  1.00  0.00    -0.037 A 
HETATM    5  C6  UNK     1      18.369   1.786  33.764  1.00  0.00     0.005 A 
HETATM    6  C8  UNK     1      18.616   0.594  33.089  1.00  0.00     0.092 A 
HETATM    7  C9  UNK     1      18.650   1.718  30.927  1.00  0.00     0.295 A 
HETATM    8  C10 UNK     1      17.915   4.290  33.758  1.00  0.00     0.050 C 
HETATM    9  C11 UNK     1      18.269   1.719  35.163  1.00  0.00     0.017 A 
HETATM   10  C12 UNK     1      18.752  -0.630  33.749  1.00  0.00     0.075 A 
HETATM   11  C13 UNK     1      18.642  -0.674  35.133  1.00  0.00     0.071 A 
HETATM   12  C15 UNK     1      18.403   0.502  35.840  1.00  0.00     0.038 A 
ENDROOT
BRANCH   3  13
HETATM   13  C1  UNK     1      18.357   4.207  30.742  1.00  0.00     0.045 C 
BRANCH  13  14
HETATM   14  C2  UNK     1      19.681   4.962  30.692  1.00  0.00     0.005 C 
BRANCH  14  15
HETATM   15  C4  UNK     1      19.618   6.338  31.362  1.00  0.00    -0.000 C 
BRANCH  15  16
HETATM   16  C7  UNK     1      20.553   6.408  32.570  1.00  0.00    -0.005 C 
HETATM   17  C14 UNK     1      20.037   7.382  33.618  1.00  0.00     0.005 C 
ENDBRANCH  15  16
ENDBRANCH  14  15
ENDBRANCH  13  14
ENDBRANCH   3  13
BRANCH  11  18
HETATM   18  O2  UNK     1      18.772  -1.855  35.793  1.00  0.00    -0.351 OA
BRANCH  18  19
HETATM   19  C17 UNK     1      20.097  -2.346  35.994  1.00  0.00     0.175 C 
BRANCH  19  20
HETATM   20  C16 UNK     1      20.143  -3.111  37.309  1.00  0.00     0.026 C 
BRANCH  20  21
HETATM   21  C18 UNK     1      20.300  -4.613  37.083  1.00  0.00    -0.002 C 
HETATM   22  C19 UNK     1      21.399  -5.197  37.956  1.00  0.00     0.005 C 
ENDBRANCH  20  21
ENDBRANCH  19  20
ENDBRANCH  18  19
ENDBRANCH  11  18
TORSDOF 8
ENDMDL
