MODEL 1
REMARK VINA RESULT:      -8.8      0.000      0.000
REMARK  2 active torsions:
REMARK  status: ('A' for Active; 'I' for Inactive)
REMARK    1  A    between atoms: C7_10  and  O3_3 
REMARK    2  A    between atoms: C1_4  and  C3_6 
ROOT
HETATM    1  O1  UNK     1      13.275   7.480   8.730  1.00  0.00    -0.340 OA
HETATM    2  O2  UNK     1      15.438   4.148   9.756  1.00  0.00    -0.292 OA
HETATM    3  C1  UNK     1      13.015   6.214   8.103  1.00  0.00     0.172 C 
HETATM    4  C2  UNK     1      13.334   5.058   9.050  1.00  0.00     0.121 C 
HETATM    5  C4  UNK     1      14.783   5.139   9.453  1.00  0.00     0.165 C 
HETATM    6  C5  UNK     1      15.358   6.497   9.534  1.00  0.00     0.043 A 
HETATM    7  C6  UNK     1      14.563   7.593   9.188  1.00  0.00     0.083 A 
HETATM    8  C9  UNK     1      16.665   6.689   9.989  1.00  0.00     0.018 A 
HETATM    9  C10 UNK     1      15.065   8.888   9.332  1.00  0.00     0.038 A 
HETATM   10  C12 UNK     1      17.168   7.985  10.111  1.00  0.00     0.001 A 
HETATM   11  C14 UNK     1      16.369   9.081   9.788  1.00  0.00     0.003 A 
ENDROOT
BRANCH   3  12
HETATM   12  C3  UNK     1      11.563   6.182   7.673  1.00  0.00     0.005 A 
HETATM   13  C7  UNK     1      11.221   6.159   6.320  1.00  0.00     0.074 A 
HETATM   14  C11 UNK     1       9.879   6.129   5.940  1.00  0.00     0.037 A 
HETATM   15  C15 UNK     1       8.879   6.123   6.913  1.00  0.00     0.003 A 
HETATM   16  C13 UNK     1       9.221   6.147   8.265  1.00  0.00     0.001 A 
HETATM   17  C8  UNK     1      10.562   6.176   8.645  1.00  0.00     0.012 A 
BRANCH  13  18
HETATM   18  O3  UNK     1      12.184   6.164   5.357  1.00  0.00    -0.360 OA
HETATM   19  H12 UNK     1      12.204   7.038   4.932  1.00  0.00     0.217 HD
ENDBRANCH  13  18
ENDBRANCH   3  12
TORSDOF 2
ENDMDL
MODEL 2
REMARK VINA RESULT:      -8.7     24.523     26.645
REMARK  2 active torsions:
REMARK  status: ('A' for Active; 'I' for Inactive)
REMARK    1  A    between atoms: C7_10  and  O3_3 
REMARK    2  A    between atoms: C1_4  and  C3_6 
ROOT
HETATM    1  O1  UNK     1      18.837   0.161  32.790  1.00  0.00    -0.340 OA
HETATM    2  O2  UNK     1      20.980  -3.223  31.904  1.00  0.00    -0.292 OA
HETATM    3  C1  UNK     1      18.620  -1.057  33.519  1.00  0.00     0.172 C 
HETATM    4  C2  UNK     1      19.897  -1.894  33.581  1.00  0.00     0.121 C 
HETATM    5  C4  UNK     1      20.344  -2.212  32.179  1.00  0.00     0.165 C 
HETATM    6  C5  UNK     1      20.034  -1.194  31.154  1.00  0.00     0.043 A 
HETATM    7  C6  UNK     1      19.316  -0.054  31.523  1.00  0.00     0.083 A 
HETATM    8  C9  UNK     1      20.488  -1.348  29.841  1.00  0.00     0.018 A 
HETATM    9  C10 UNK     1      19.082   0.953  30.585  1.00  0.00     0.038 A 
HETATM   10  C12 UNK     1      20.233  -0.347  28.903  1.00  0.00     0.001 A 
HETATM   11  C14 UNK     1      19.535   0.802  29.275  1.00  0.00     0.003 A 
ENDROOT
BRANCH   3  12
HETATM   12  C3  UNK     1      18.131  -0.703  34.908  1.00  0.00     0.005 A 
HETATM   13  C7  UNK     1      17.117   0.239  35.089  1.00  0.00     0.074 A 
HETATM   14  C11 UNK     1      16.677   0.553  36.375  1.00  0.00     0.037 A 
HETATM   15  C15 UNK     1      17.251  -0.074  37.481  1.00  0.00     0.003 A 
HETATM   16  C13 UNK     1      18.266  -1.015  37.300  1.00  0.00     0.001 A 
HETATM   17  C8  UNK     1      18.705  -1.330  36.015  1.00  0.00     0.012 A 
BRANCH  13  18
HETATM   18  O3  UNK     1      16.544   0.860  34.020  1.00  0.00    -0.360 OA
HETATM   19  H12 UNK     1      17.245   1.173  33.423  1.00  0.00     0.217 HD
ENDBRANCH  13  18
ENDBRANCH   3  12
TORSDOF 2
ENDMDL
MODEL 3
REMARK VINA RESULT:      -8.3     24.173     26.365
REMARK  2 active torsions:
REMARK  status: ('A' for Active; 'I' for Inactive)
REMARK    1  A    between atoms: C7_10  and  O3_3 
REMARK    2  A    between atoms: C1_4  and  C3_6 
ROOT
HETATM    1  O1  UNK     1      18.632  -0.336  32.950  1.00  0.00    -0.340 OA
HETATM    2  O2  UNK     1      18.905   2.950  30.509  1.00  0.00    -0.292 OA
HETATM    3  C1  UNK     1      18.658   0.989  33.504  1.00  0.00     0.172 C 
HETATM    4  C2  UNK     1      18.044   1.999  32.536  1.00  0.00     0.121 C 
HETATM    5  C4  UNK     1      18.814   1.972  31.242  1.00  0.00     0.165 C 
HETATM    6  C5  UNK     1      19.400   0.669  30.865  1.00  0.00     0.043 A 
HETATM    7  C6  UNK     1      19.256  -0.418  31.732  1.00  0.00     0.083 A 
HETATM    8  C9  UNK     1      20.052   0.513  29.639  1.00  0.00     0.018 A 
HETATM    9  C10 UNK     1      19.736  -1.673  31.356  1.00  0.00     0.038 A 
HETATM   10  C12 UNK     1      20.548  -0.741  29.278  1.00  0.00     0.001 A 
HETATM   11  C14 UNK     1      20.387  -1.832  30.132  1.00  0.00     0.003 A 
ENDROOT
BRANCH   3  12
HETATM   12  C3  UNK     1      17.913   0.972  34.822  1.00  0.00     0.005 A 
HETATM   13  C7  UNK     1      18.513   1.454  35.986  1.00  0.00     0.074 A 
HETATM   14  C11 UNK     1      17.812   1.432  37.192  1.00  0.00     0.037 A 
HETATM   15  C15 UNK     1      16.512   0.929  37.234  1.00  0.00     0.003 A 
HETATM   16  C13 UNK     1      15.912   0.446  36.070  1.00  0.00     0.001 A 
HETATM   17  C8  UNK     1      16.612   0.469  34.865  1.00  0.00     0.012 A 
BRANCH  13  18
HETATM   18  O3  UNK     1      19.781   1.950  35.963  1.00  0.00    -0.360 OA
HETATM   19  H12 UNK     1      20.238   1.690  36.781  1.00  0.00     0.217 HD
ENDBRANCH  13  18
ENDBRANCH   3  12
TORSDOF 2
ENDMDL
MODEL 4
REMARK VINA RESULT:      -8.2     24.558     26.639
REMARK  2 active torsions:
REMARK  status: ('A' for Active; 'I' for Inactive)
REMARK    1  A    between atoms: C7_10  and  O3_3 
REMARK    2  A    between atoms: C1_4  and  C3_6 
ROOT
HETATM    1  O1  UNK     1      18.172  -0.463  33.169  1.00  0.00    -0.340 OA
HETATM    2  O2  UNK     1      20.519  -2.804  35.585  1.00  0.00    -0.292 OA
HETATM    3  C1  UNK     1      19.539  -0.736  32.823  1.00  0.00     0.172 C 
HETATM    4  C2  UNK     1      19.979  -2.097  33.358  1.00  0.00     0.121 C 
HETATM    5  C4  UNK     1      19.819  -2.112  34.856  1.00  0.00     0.165 C 
HETATM    6  C5  UNK     1      18.715  -1.293  35.397  1.00  0.00     0.043 A 
HETATM    7  C6  UNK     1      17.940  -0.531  34.518  1.00  0.00     0.083 A 
HETATM    8  C9  UNK     1      18.422  -1.311  36.763  1.00  0.00     0.018 A 
HETATM    9  C10 UNK     1      16.846   0.187  35.003  1.00  0.00     0.038 A 
HETATM   10  C12 UNK     1      17.339  -0.574  37.244  1.00  0.00     0.001 A 
HETATM   11  C14 UNK     1      16.550   0.169  36.366  1.00  0.00     0.003 A 
ENDROOT
BRANCH   3  12
HETATM   12  C3  UNK     1      19.674  -0.671  31.316  1.00  0.00     0.005 A 
HETATM   13  C7  UNK     1      19.272   0.464  30.611  1.00  0.00     0.074 A 
HETATM   14  C11 UNK     1      19.403   0.507  29.223  1.00  0.00     0.037 A 
HETATM   15  C15 UNK     1      19.937  -0.585  28.539  1.00  0.00     0.003 A 
HETATM   16  C13 UNK     1      20.338  -1.721  29.243  1.00  0.00     0.001 A 
HETATM   17  C8  UNK     1      20.208  -1.764  30.630  1.00  0.00     0.012 A 
BRANCH  13  18
HETATM   18  O3  UNK     1      18.749   1.540  31.264  1.00  0.00    -0.360 OA
HETATM   19  H12 UNK     1      19.446   2.206  31.387  1.00  0.00     0.217 HD
ENDBRANCH  13  18
ENDBRANCH   3  12
TORSDOF 2
ENDMDL
MODEL 5
REMARK VINA RESULT:      -8.1     21.257     23.539
REMARK  2 active torsions:
REMARK  status: ('A' for Active; 'I' for Inactive)
REMARK    1  A    between atoms: C7_10  and  O3_3 
REMARK    2  A    between atoms: C1_4  and  C3_6 
ROOT
HETATM    1  O1  UNK     1      19.247   2.111  31.206  1.00  0.00    -0.340 OA
HETATM    2  O2  UNK     1      17.672   1.777  27.433  1.00  0.00    -0.292 OA
HETATM    3  C1  UNK     1      18.950   3.282  30.428  1.00  0.00     0.172 C 
HETATM    4  C2  UNK     1      17.782   3.026  29.477  1.00  0.00     0.121 C 
HETATM    5  C4  UNK     1      18.133   1.882  28.563  1.00  0.00     0.165 C 
HETATM    6  C5  UNK     1      19.017   0.845  29.134  1.00  0.00     0.043 A 
HETATM    7  C6  UNK     1      19.506   1.009  30.433  1.00  0.00     0.083 A 
HETATM    8  C9  UNK     1      19.327  -0.304  28.403  1.00  0.00     0.018 A 
HETATM    9  C10 UNK     1      20.279   0.003  31.015  1.00  0.00     0.038 A 
HETATM   10  C12 UNK     1      20.118  -1.297  28.984  1.00  0.00     0.001 A 
HETATM   11  C14 UNK     1      20.589  -1.146  30.288  1.00  0.00     0.003 A 
ENDROOT
BRANCH   3  12
HETATM   12  C3  UNK     1      18.643   4.422  31.376  1.00  0.00     0.005 A 
HETATM   13  C7  UNK     1      18.778   5.749  30.964  1.00  0.00     0.074 A 
HETATM   14  C11 UNK     1      18.491   6.787  31.850  1.00  0.00     0.037 A 
HETATM   15  C15 UNK     1      18.068   6.500  33.148  1.00  0.00     0.003 A 
HETATM   16  C13 UNK     1      17.934   5.174  33.561  1.00  0.00     0.001 A 
HETATM   17  C8  UNK     1      18.221   4.136  32.675  1.00  0.00     0.012 A 
BRANCH  13  18
HETATM   18  O3  UNK     1      19.188   6.047  29.700  1.00  0.00    -0.360 OA
HETATM   19  H12 UNK     1      18.626   5.573  29.064  1.00  0.00     0.217 HD
ENDBRANCH  13  18
ENDBRANCH   3  12
TORSDOF 2
ENDMDL
MODEL 6
REMARK VINA RESULT:      -7.9     11.208     12.813
REMARK  2 active torsions:
REMARK  status: ('A' for Active; 'I' for Inactive)
REMARK    1  A    between atoms: C7_10  and  O3_3 
REMARK    2  A    between atoms: C1_4  and  C3_6 
ROOT
HETATM    1  O1  UNK     1      19.134  -0.924  17.325  1.00  0.00    -0.340 OA
HETATM    2  O2  UNK     1      19.341   2.769  15.549  1.00  0.00    -0.292 OA
HETATM    3  C1  UNK     1      18.650  -0.725  15.987  1.00  0.00     0.172 C 
HETATM    4  C2  UNK     1      19.427   0.387  15.283  1.00  0.00     0.121 C 
HETATM    5  C4  UNK     1      19.286   1.662  16.072  1.00  0.00     0.165 C 
HETATM    6  C5  UNK     1      19.147   1.506  17.534  1.00  0.00     0.043 A 
HETATM    7  C6  UNK     1      19.101   0.220  18.080  1.00  0.00     0.083 A 
HETATM    8  C9  UNK     1      19.104   2.628  18.367  1.00  0.00     0.018 A 
HETATM    9  C10 UNK     1      19.048   0.056  19.465  1.00  0.00     0.038 A 
HETATM   10  C12 UNK     1      19.030   2.456  19.750  1.00  0.00     0.001 A 
HETATM   11  C14 UNK     1      19.006   1.174  20.298  1.00  0.00     0.003 A 
ENDROOT
BRANCH   3  12
HETATM   12  C3  UNK     1      18.766  -2.034  15.236  1.00  0.00     0.005 A 
HETATM   13  C7  UNK     1      17.927  -3.107  15.537  1.00  0.00     0.074 A 
HETATM   14  C11 UNK     1      18.047  -4.306  14.835  1.00  0.00     0.037 A 
HETATM   15  C15 UNK     1      19.006  -4.433  13.830  1.00  0.00     0.003 A 
HETATM   16  C13 UNK     1      19.847  -3.360  13.529  1.00  0.00     0.001 A 
HETATM   17  C8  UNK     1      19.727  -2.162  14.231  1.00  0.00     0.012 A 
BRANCH  13  18
HETATM   18  O3  UNK     1      16.984  -3.000  16.514  1.00  0.00    -0.360 OA
HETATM   19  H12 UNK     1      16.107  -2.917  16.102  1.00  0.00     0.217 HD
ENDBRANCH  13  18
ENDBRANCH   3  12
TORSDOF 2
ENDMDL
MODEL 7
REMARK VINA RESULT:      -7.7     23.154     25.084
REMARK  2 active torsions:
REMARK  status: ('A' for Active; 'I' for Inactive)
REMARK    1  A    between atoms: C7_10  and  O3_3 
REMARK    2  A    between atoms: C1_4  and  C3_6 
ROOT
HETATM    1  O1  UNK     1      17.517   8.608  32.841  1.00  0.00    -0.340 OA
HETATM    2  O2  UNK     1      13.898   6.933  31.876  1.00  0.00    -0.292 OA
HETATM    3  C1  UNK     1      17.408   7.201  32.572  1.00  0.00     0.172 C 
HETATM    4  C2  UNK     1      16.279   6.919  31.583  1.00  0.00     0.121 C 
HETATM    5  C4  UNK     1      14.983   7.430  32.155  1.00  0.00     0.165 C 
HETATM    6  C5  UNK     1      15.085   8.621  33.023  1.00  0.00     0.043 A 
HETATM    7  C6  UNK     1      16.346   9.156  33.299  1.00  0.00     0.083 A 
HETATM    8  C9  UNK     1      13.933   9.232  33.527  1.00  0.00     0.018 A 
HETATM    9  C10 UNK     1      16.454  10.326  34.053  1.00  0.00     0.038 A 
HETATM   10  C12 UNK     1      14.049  10.389  34.299  1.00  0.00     0.001 A 
HETATM   11  C14 UNK     1      15.306  10.937  34.557  1.00  0.00     0.003 A 
ENDROOT
BRANCH   3  12
HETATM   12  C3  UNK     1      18.737   6.711  32.040  1.00  0.00     0.005 A 
HETATM   13  C7  UNK     1      19.881   6.739  32.840  1.00  0.00     0.074 A 
HETATM   14  C11 UNK     1      21.098   6.284  32.333  1.00  0.00     0.037 A 
HETATM   15  C15 UNK     1      21.173   5.799  31.027  1.00  0.00     0.003 A 
HETATM   16  C13 UNK     1      20.030   5.771  30.227  1.00  0.00     0.001 A 
HETATM   17  C8  UNK     1      18.813   6.226  30.733  1.00  0.00     0.012 A 
BRANCH  13  18
HETATM   18  O3  UNK     1      19.826   7.209  34.117  1.00  0.00    -0.360 OA
HETATM   19  H12 UNK     1      20.707   7.525  34.377  1.00  0.00     0.217 HD
ENDBRANCH  13  18
ENDBRANCH   3  12
TORSDOF 2
ENDMDL
MODEL 8
REMARK VINA RESULT:      -7.7     25.016     27.184
REMARK  2 active torsions:
REMARK  status: ('A' for Active; 'I' for Inactive)
REMARK    1  A    between atoms: C7_10  and  O3_3 
REMARK    2  A    between atoms: C1_4  and  C3_6 
ROOT
HETATM    1  O1  UNK     1      19.954  -1.511  33.797  1.00  0.00    -0.340 OA
HETATM    2  O2  UNK     1      16.851   0.663  35.370  1.00  0.00    -0.292 OA
HETATM    3  C1  UNK     1      18.904  -1.012  32.952  1.00  0.00     0.172 C 
HETATM    4  C2  UNK     1      18.319   0.283  33.512  1.00  0.00     0.121 C 
HETATM    5  C4  UNK     1      17.780   0.022  34.894  1.00  0.00     0.165 C 
HETATM    6  C5  UNK     1      18.487  -1.010  35.680  1.00  0.00     0.043 A 
HETATM    7  C6  UNK     1      19.549  -1.703  35.093  1.00  0.00     0.083 A 
HETATM    8  C9  UNK     1      18.128  -1.262  37.007  1.00  0.00     0.018 A 
HETATM    9  C10 UNK     1      20.276  -2.626  35.847  1.00  0.00     0.038 A 
HETATM   10  C12 UNK     1      18.846  -2.201  37.748  1.00  0.00     0.001 A 
HETATM   11  C14 UNK     1      19.920  -2.878  37.171  1.00  0.00     0.003 A 
ENDROOT
BRANCH   3  12
HETATM   12  C3  UNK     1      19.468  -0.802  31.563  1.00  0.00     0.005 A 
HETATM   13  C7  UNK     1      20.241  -1.788  30.949  1.00  0.00     0.074 A 
HETATM   14  C11 UNK     1      20.751  -1.578  29.668  1.00  0.00     0.037 A 
HETATM   15  C15 UNK     1      20.489  -0.382  29.000  1.00  0.00     0.003 A 
HETATM   16  C13 UNK     1      19.717   0.605  29.614  1.00  0.00     0.001 A 
HETATM   17  C8  UNK     1      19.206   0.395  30.894  1.00  0.00     0.012 A 
BRANCH  13  18
HETATM   18  O3  UNK     1      20.505  -2.962  31.586  1.00  0.00    -0.360 OA
HETATM   19  H12 UNK     1      19.685  -3.479  31.654  1.00  0.00     0.217 HD
ENDBRANCH  13  18
ENDBRANCH   3  12
TORSDOF 2
ENDMDL
MODEL 9
REMARK VINA RESULT:      -7.7     21.934     24.057
REMARK  2 active torsions:
REMARK  status: ('A' for Active; 'I' for Inactive)
REMARK    1  A    between atoms: C7_10  and  O3_3 
REMARK    2  A    between atoms: C1_4  and  C3_6 
ROOT
HETATM    1  O1  UNK     1      18.520   3.610  30.656  1.00  0.00    -0.340 OA
HETATM    2  O2  UNK     1      18.117   2.670  34.629  1.00  0.00    -0.292 OA
HETATM    3  C1  UNK     1      19.067   2.390  31.180  1.00  0.00     0.172 C 
HETATM    4  C2  UNK     1      18.245   1.886  32.366  1.00  0.00     0.121 C 
HETATM    5  C4  UNK     1      18.232   2.942  33.440  1.00  0.00     0.165 C 
HETATM    6  C5  UNK     1      18.293   4.342  32.971  1.00  0.00     0.043 A 
HETATM    7  C6  UNK     1      18.412   4.596  31.602  1.00  0.00     0.083 A 
HETATM    8  C9  UNK     1      18.192   5.399  33.879  1.00  0.00     0.018 A 
HETATM    9  C10 UNK     1      18.393   5.912  31.137  1.00  0.00     0.038 A 
HETATM   10  C12 UNK     1      18.195   6.713  33.409  1.00  0.00     0.001 A 
HETATM   11  C14 UNK     1      18.291   6.969  32.041  1.00  0.00     0.003 A 
ENDROOT
BRANCH   3  12
HETATM   12  C3  UNK     1      19.106   1.364  30.067  1.00  0.00     0.005 A 
HETATM   13  C7  UNK     1      20.063   0.349  30.065  1.00  0.00     0.074 A 
HETATM   14  C11 UNK     1      20.085  -0.588  29.032  1.00  0.00     0.037 A 
HETATM   15  C15 UNK     1      19.148  -0.511  28.000  1.00  0.00     0.003 A 
HETATM   16  C13 UNK     1      18.191   0.505  28.002  1.00  0.00     0.001 A 
HETATM   17  C8  UNK     1      18.170   1.441  29.035  1.00  0.00     0.012 A 
BRANCH  13  18
HETATM   18  O3  UNK     1      20.984   0.258  31.064  1.00  0.00    -0.360 OA
HETATM   19  H12 UNK     1      20.633   0.692  31.860  1.00  0.00     0.217 HD
ENDBRANCH  13  18
ENDBRANCH   3  12
TORSDOF 2
ENDMDL
MODEL 10
REMARK VINA RESULT:      -7.7      1.263      5.977
REMARK  2 active torsions:
REMARK  status: ('A' for Active; 'I' for Inactive)
REMARK    1  A    between atoms: C7_10  and  O3_3 
REMARK    2  A    between atoms: C1_4  and  C3_6 
ROOT
HETATM    1  O1  UNK     1      11.601   7.435   9.357  1.00  0.00    -0.340 OA
HETATM    2  O2  UNK     1      11.881   6.204   5.453  1.00  0.00    -0.292 OA
HETATM    3  C1  UNK     1      12.759   6.722   8.893  1.00  0.00     0.172 C 
HETATM    4  C2  UNK     1      13.015   6.997   7.412  1.00  0.00     0.121 C 
HETATM    5  C4  UNK     1      11.806   6.578   6.618  1.00  0.00     0.165 C 
HETATM    6  C5  UNK     1      10.504   6.711   7.302  1.00  0.00     0.043 A 
HETATM    7  C6  UNK     1      10.474   7.154   8.628  1.00  0.00     0.083 A 
HETATM    8  C9  UNK     1       9.314   6.439   6.622  1.00  0.00     0.018 A 
HETATM    9  C10 UNK     1       9.249   7.358   9.263  1.00  0.00     0.038 A 
HETATM   10  C12 UNK     1       8.092   6.626   7.271  1.00  0.00     0.001 A 
HETATM   11  C14 UNK     1       8.060   7.088   8.586  1.00  0.00     0.003 A 
ENDROOT
BRANCH   3  12
HETATM   12  C3  UNK     1      13.945   7.134   9.739  1.00  0.00     0.005 A 
HETATM   13  C7  UNK     1      15.132   6.400   9.710  1.00  0.00     0.074 A 
HETATM   14  C11 UNK     1      16.215   6.794  10.495  1.00  0.00     0.037 A 
HETATM   15  C15 UNK     1      16.114   7.922  11.309  1.00  0.00     0.003 A 
HETATM   16  C13 UNK     1      14.927   8.656  11.338  1.00  0.00     0.001 A 
HETATM   17  C8  UNK     1      13.844   8.263  10.554  1.00  0.00     0.012 A 
BRANCH  13  18
HETATM   18  O3  UNK     1      15.249   5.296   8.920  1.00  0.00    -0.360 OA
HETATM   19  H12 UNK     1      14.753   4.564   9.323  1.00  0.00     0.217 HD
ENDBRANCH  13  18
ENDBRANCH   3  12
TORSDOF 2
ENDMDL
