MODEL 1
REMARK VINA RESULT:      -7.6      0.000      0.000
REMARK  3 active torsions:
REMARK  status: ('A' for Active; 'I' for Inactive)
REMARK    1  A    between atoms: C9_14  and  O3_3 
REMARK    2  A    between atoms: C1_6  and  N1_5 
REMARK    3  A    between atoms: C1_6  and  C4_9 
ROOT
HETATM    1  O2  UNK     1      18.239   0.604  31.557  1.00  0.00    -0.274 OA
HETATM    2  O4  UNK     1      17.621   2.185  30.024  1.00  0.00    -0.260 OA
HETATM    3  C4  UNK     1      18.881  -1.044  33.159  1.00  0.00     0.038 A 
HETATM    4  C7  UNK     1      19.094  -0.459  31.909  1.00  0.00     0.101 A 
HETATM    5  C8  UNK     1      20.098  -0.896  31.042  1.00  0.00     0.005 A 
HETATM    6  C9  UNK     1      19.694  -2.098  33.561  1.00  0.00     0.076 A 
HETATM    7  C10 UNK     1      20.249  -0.222  29.745  1.00  0.00    -0.043 A 
HETATM    8  C11 UNK     1      20.905  -1.959  31.467  1.00  0.00     0.017 A 
HETATM    9  C12 UNK     1      20.705  -2.555  32.717  1.00  0.00     0.038 A 
HETATM   10  C13 UNK     1      19.422   0.787  29.437  1.00  0.00     0.090 A 
HETATM   11  C14 UNK     1      18.359   1.259  30.341  1.00  0.00     0.288 A 
HETATM   12  C15 UNK     1      21.319  -0.668  28.792  1.00  0.00     0.049 C 
ENDROOT
BRANCH   3  13
HETATM   13  C1  UNK     1      17.797  -0.547  34.057  1.00  0.00     0.317 C 
BRANCH  13  14
HETATM   14  N1  UNK     1      18.324   0.069  35.273  1.00  0.00     0.097 N 
HETATM   15  C2  UNK     1      18.555   1.506  35.070  1.00  0.00     0.299 C 
HETATM   16  C5  UNK     1      19.094   2.130  36.356  1.00  0.00     0.198 C 
HETATM   17  O1  UNK     1      18.178   1.919  37.431  1.00  0.00    -0.388 OA
HETATM   18  C6  UNK     1      17.971   0.525  37.656  1.00  0.00     0.198 C 
HETATM   19  C3  UNK     1      17.407  -0.138  36.402  1.00  0.00     0.299 C 
ENDBRANCH  13  14
ENDBRANCH   3  13
BRANCH   6  20
HETATM   20  O3  UNK     1      19.519  -2.693  34.774  1.00  0.00    -0.360 OA
HETATM   21  H17 UNK     1      20.222  -2.397  35.377  1.00  0.00     0.217 HD
ENDBRANCH   6  20
TORSDOF 3
ENDMDL
MODEL 2
REMARK VINA RESULT:      -7.6      2.727      5.017
REMARK  3 active torsions:
REMARK  status: ('A' for Active; 'I' for Inactive)
REMARK    1  A    between atoms: C9_14  and  O3_3 
REMARK    2  A    between atoms: C1_6  and  N1_5 
REMARK    3  A    between atoms: C1_6  and  C4_9 
ROOT
HETATM    1  O2  UNK     1      18.686   0.704  32.613  1.00  0.00    -0.274 OA
HETATM    2  O4  UNK     1      18.820  -0.023  34.778  1.00  0.00    -0.260 OA
HETATM    3  C4  UNK     1      18.543   1.466  30.356  1.00  0.00     0.038 A 
HETATM    4  C7  UNK     1      18.967   0.481  31.251  1.00  0.00     0.101 A 
HETATM    5  C8  UNK     1      19.636  -0.670  30.831  1.00  0.00     0.005 A 
HETATM    6  C9  UNK     1      18.793   1.302  28.998  1.00  0.00     0.076 A 
HETATM    7  C10 UNK     1      20.046  -1.653  31.842  1.00  0.00    -0.043 A 
HETATM    8  C11 UNK     1      19.878  -0.816  29.458  1.00  0.00     0.017 A 
HETATM    9  C12 UNK     1      19.459   0.162  28.549  1.00  0.00     0.038 A 
HETATM   10  C13 UNK     1      19.764  -1.416  33.131  1.00  0.00     0.090 A 
HETATM   11  C14 UNK     1      19.060  -0.207  33.589  1.00  0.00     0.288 A 
HETATM   12  C15 UNK     1      20.767  -2.901  31.423  1.00  0.00     0.049 C 
ENDROOT
BRANCH   3  13
HETATM   13  C1  UNK     1      17.830   2.683  30.846  1.00  0.00     0.317 C 
BRANCH  13  14
HETATM   14  N1  UNK     1      18.753   3.725  31.292  1.00  0.00     0.097 N 
HETATM   15  C2  UNK     1      19.053   4.659  30.198  1.00  0.00     0.299 C 
HETATM   16  C5  UNK     1      20.009   5.743  30.691  1.00  0.00     0.198 C 
HETATM   17  O1  UNK     1      19.439   6.440  31.800  1.00  0.00    -0.388 OA
HETATM   18  C6  UNK     1      19.173   5.546  32.880  1.00  0.00     0.198 C 
HETATM   19  C3  UNK     1      18.198   4.456  32.440  1.00  0.00     0.299 C 
ENDBRANCH  13  14
ENDBRANCH   3  13
BRANCH   6  20
HETATM   20  O3  UNK     1      18.393   2.239  28.095  1.00  0.00    -0.360 OA
HETATM   21  H17 UNK     1      19.176   2.605  27.649  1.00  0.00     0.217 HD
ENDBRANCH   6  20
TORSDOF 3
ENDMDL
MODEL 3
REMARK VINA RESULT:      -7.4      5.851      8.335
REMARK  3 active torsions:
REMARK  status: ('A' for Active; 'I' for Inactive)
REMARK    1  A    between atoms: C9_14  and  O3_3 
REMARK    2  A    between atoms: C1_6  and  N1_5 
REMARK    3  A    between atoms: C1_6  and  C4_9 
ROOT
HETATM    1  O2  UNK     1      15.999   6.759  31.977  1.00  0.00    -0.274 OA
HETATM    2  O4  UNK     1      13.751   6.758  31.561  1.00  0.00    -0.260 OA
HETATM    3  C4  UNK     1      18.346   6.758  32.409  1.00  0.00     0.038 A 
HETATM    4  C7  UNK     1      17.085   7.271  32.715  1.00  0.00     0.101 A 
HETATM    5  C8  UNK     1      16.894   8.243  33.700  1.00  0.00     0.005 A 
HETATM    6  C9  UNK     1      19.456   7.225  33.105  1.00  0.00     0.076 A 
HETATM    7  C10 UNK     1      15.530   8.728  33.955  1.00  0.00    -0.043 A 
HETATM    8  C11 UNK     1      18.025   8.701  34.389  1.00  0.00     0.017 A 
HETATM    9  C12 UNK     1      19.296   8.195  34.093  1.00  0.00     0.038 A 
HETATM   10  C13 UNK     1      14.517   8.222  33.238  1.00  0.00     0.090 A 
HETATM   11  C14 UNK     1      14.702   7.197  32.197  1.00  0.00     0.288 A 
HETATM   12  C15 UNK     1      15.292   9.771  35.007  1.00  0.00     0.049 C 
ENDROOT
BRANCH   3  13
HETATM   13  C1  UNK     1      18.508   5.718  31.349  1.00  0.00     0.317 C 
BRANCH  13  14
HETATM   14  N1  UNK     1      18.740   4.388  31.909  1.00  0.00     0.097 N 
HETATM   15  C2  UNK     1      18.027   4.228  33.184  1.00  0.00     0.299 C 
HETATM   16  C5  UNK     1      18.275   2.829  33.743  1.00  0.00     0.198 C 
HETATM   17  O1  UNK     1      17.850   1.838  32.806  1.00  0.00    -0.388 OA
HETATM   18  C6  UNK     1      18.560   1.966  31.575  1.00  0.00     0.198 C 
HETATM   19  C3  UNK     1      18.321   3.344  30.964  1.00  0.00     0.299 C 
ENDBRANCH  13  14
ENDBRANCH   3  13
BRANCH   6  20
HETATM   20  O3  UNK     1      20.703   6.747  32.836  1.00  0.00    -0.360 OA
HETATM   21  H17 UNK     1      21.267   6.874  33.618  1.00  0.00     0.217 HD
ENDBRANCH   6  20
TORSDOF 3
ENDMDL
MODEL 4
REMARK VINA RESULT:      -7.3     24.375     25.257
REMARK  3 active torsions:
REMARK  status: ('A' for Active; 'I' for Inactive)
REMARK    1  A    between atoms: C9_14  and  O3_3 
REMARK    2  A    between atoms: C1_6  and  N1_5 
REMARK    3  A    between atoms: C1_6  and  C4_9 
ROOT
HETATM    1  O2  UNK     1      13.460   8.045  10.919  1.00  0.00    -0.274 OA
HETATM    2  O4  UNK     1      11.913   9.552  11.671  1.00  0.00    -0.260 OA
HETATM    3  C4  UNK     1      15.071   6.469  10.134  1.00  0.00     0.038 A 
HETATM    4  C7  UNK     1      14.792   7.772  10.552  1.00  0.00     0.101 A 
HETATM    5  C8  UNK     1      15.774   8.762  10.609  1.00  0.00     0.005 A 
HETATM    6  C9  UNK     1      16.369   6.140   9.759  1.00  0.00     0.076 A 
HETATM    7  C10 UNK     1      15.391  10.107  11.061  1.00  0.00    -0.043 A 
HETATM    8  C11 UNK     1      17.076   8.410  10.227  1.00  0.00     0.017 A 
HETATM    9  C12 UNK     1      17.370   7.108   9.806  1.00  0.00     0.038 A 
HETATM   10  C13 UNK     1      14.116  10.338  11.404  1.00  0.00     0.090 A 
HETATM   11  C14 UNK     1      13.070   9.304  11.350  1.00  0.00     0.288 A 
HETATM   12  C15 UNK     1      16.424  11.194  11.133  1.00  0.00     0.049 C 
ENDROOT
BRANCH   3  13
HETATM   13  C1  UNK     1      13.992   5.437  10.088  1.00  0.00     0.317 C 
BRANCH  13  14
HETATM   14  N1  UNK     1      12.870   5.847   9.247  1.00  0.00     0.097 N 
HETATM   15  C2  UNK     1      13.147   5.562   7.832  1.00  0.00     0.299 C 
HETATM   16  C5  UNK     1      11.957   5.987   6.975  1.00  0.00     0.198 C 
HETATM   17  O1  UNK     1      10.773   5.308   7.398  1.00  0.00    -0.388 OA
HETATM   18  C6  UNK     1      10.478   5.604   8.762  1.00  0.00     0.198 C 
HETATM   19  C3  UNK     1      11.633   5.171   9.663  1.00  0.00     0.299 C 
ENDBRANCH  13  14
ENDBRANCH   3  13
BRANCH   6  20
HETATM   20  O3  UNK     1      16.680   4.879   9.348  1.00  0.00    -0.360 OA
HETATM   21  H17 UNK     1      16.296   4.238   9.971  1.00  0.00     0.217 HD
ENDBRANCH   6  20
TORSDOF 3
ENDMDL
MODEL 5
REMARK VINA RESULT:      -7.2      3.529      5.476
REMARK  3 active torsions:
REMARK  status: ('A' for Active; 'I' for Inactive)
REMARK    1  A    between atoms: C9_14  and  O3_3 
REMARK    2  A    between atoms: C1_6  and  N1_5 
REMARK    3  A    between atoms: C1_6  and  C4_9 
ROOT
HETATM    1  O2  UNK     1      17.979   2.501  33.398  1.00  0.00    -0.274 OA
HETATM    2  O4  UNK     1      17.674   1.713  35.523  1.00  0.00    -0.260 OA
HETATM    3  C4  UNK     1      18.295   3.327  31.181  1.00  0.00     0.038 A 
HETATM    4  C7  UNK     1      18.355   2.247  32.064  1.00  0.00     0.101 A 
HETATM    5  C8  UNK     1      18.765   0.975  31.659  1.00  0.00     0.005 A 
HETATM    6  C9  UNK     1      18.655   3.137  29.851  1.00  0.00     0.076 A 
HETATM    7  C10 UNK     1      18.798  -0.103  32.657  1.00  0.00    -0.043 A 
HETATM    8  C11 UNK     1      19.123   0.805  30.315  1.00  0.00     0.017 A 
HETATM    9  C12 UNK     1      19.067   1.878  29.419  1.00  0.00     0.038 A 
HETATM   10  C13 UNK     1      18.434   0.167  33.918  1.00  0.00     0.090 A 
HETATM   11  C14 UNK     1      17.999   1.503  34.360  1.00  0.00     0.288 A 
HETATM   12  C15 UNK     1      19.234  -1.482  32.253  1.00  0.00     0.049 C 
ENDROOT
BRANCH   3  13
HETATM   13  C1  UNK     1      17.851   4.673  31.654  1.00  0.00     0.317 C 
BRANCH  13  14
HETATM   14  N1  UNK     1      18.819   5.290  32.557  1.00  0.00     0.097 N 
HETATM   15  C2  UNK     1      19.911   5.918  31.801  1.00  0.00     0.299 C 
HETATM   16  C5  UNK     1      20.903   6.566  32.764  1.00  0.00     0.198 C 
HETATM   17  O1  UNK     1      20.241   7.533  33.581  1.00  0.00    -0.388 OA
HETATM   18  C6  UNK     1      19.199   6.927  34.344  1.00  0.00     0.198 C 
HETATM   19  C3  UNK     1      18.167   6.286  33.419  1.00  0.00     0.299 C 
ENDBRANCH  13  14
ENDBRANCH   3  13
BRANCH   6  20
HETATM   20  O3  UNK     1      18.608   4.166  28.960  1.00  0.00    -0.360 OA
HETATM   21  H17 UNK     1      17.689   4.287  28.663  1.00  0.00     0.217 HD
ENDBRANCH   6  20
TORSDOF 3
ENDMDL
MODEL 6
REMARK VINA RESULT:      -7.2     24.281     27.014
REMARK  3 active torsions:
REMARK  status: ('A' for Active; 'I' for Inactive)
REMARK    1  A    between atoms: C9_14  and  O3_3 
REMARK    2  A    between atoms: C1_6  and  N1_5 
REMARK    3  A    between atoms: C1_6  and  C4_9 
ROOT
HETATM    1  O2  UNK     1      11.168   8.597   9.351  1.00  0.00    -0.274 OA
HETATM    2  O4  UNK     1      10.678   9.867  11.189  1.00  0.00    -0.260 OA
HETATM    3  C4  UNK     1      11.683   7.273   7.433  1.00  0.00     0.038 A 
HETATM    4  C7  UNK     1      10.716   7.747   8.322  1.00  0.00     0.101 A 
HETATM    5  C8  UNK     1       9.368   7.403   8.210  1.00  0.00     0.005 A 
HETATM    6  C9  UNK     1      11.296   6.430   6.397  1.00  0.00     0.076 A 
HETATM    7  C10 UNK     1       8.419   7.948   9.191  1.00  0.00    -0.043 A 
HETATM    8  C11 UNK     1       8.999   6.552   7.159  1.00  0.00     0.017 A 
HETATM    9  C12 UNK     1       9.957   6.071   6.259  1.00  0.00     0.038 A 
HETATM   10  C13 UNK     1       8.877   8.755  10.159  1.00  0.00     0.090 A 
HETATM   11  C14 UNK     1      10.296   9.126  10.290  1.00  0.00     0.288 A 
HETATM   12  C15 UNK     1       6.963   7.598   9.097  1.00  0.00     0.049 C 
ENDROOT
BRANCH   3  13
HETATM   13  C1  UNK     1      13.116   7.665   7.587  1.00  0.00     0.317 C 
BRANCH  13  14
HETATM   14  N1  UNK     1      13.747   7.016   8.734  1.00  0.00     0.097 N 
HETATM   15  C2  UNK     1      14.360   5.740   8.338  1.00  0.00     0.299 C 
HETATM   16  C5  UNK     1      15.023   5.087   9.549  1.00  0.00     0.198 C 
HETATM   17  O1  UNK     1      16.005   5.960  10.109  1.00  0.00    -0.388 OA
HETATM   18  C6  UNK     1      15.413   7.190  10.525  1.00  0.00     0.198 C 
HETATM   19  C3  UNK     1      14.759   7.894   9.338  1.00  0.00     0.299 C 
ENDBRANCH  13  14
ENDBRANCH   3  13
BRANCH   6  20
HETATM   20  O3  UNK     1      12.210   5.950   5.508  1.00  0.00    -0.360 OA
HETATM   21  H17 UNK     1      12.048   5.001   5.368  1.00  0.00     0.217 HD
ENDBRANCH   6  20
TORSDOF 3
ENDMDL
MODEL 7
REMARK VINA RESULT:      -7.1      1.660      3.681
REMARK  3 active torsions:
REMARK  status: ('A' for Active; 'I' for Inactive)
REMARK    1  A    between atoms: C9_14  and  O3_3 
REMARK    2  A    between atoms: C1_6  and  N1_5 
REMARK    3  A    between atoms: C1_6  and  C4_9 
ROOT
HETATM    1  O2  UNK     1      19.362  -0.306  32.759  1.00  0.00    -0.274 OA
HETATM    2  O4  UNK     1      20.207  -2.398  33.129  1.00  0.00    -0.260 OA
HETATM    3  C4  UNK     1      18.479   1.878  32.377  1.00  0.00     0.038 A 
HETATM    4  C7  UNK     1      19.064   0.726  31.847  1.00  0.00     0.101 A 
HETATM    5  C8  UNK     1      19.344   0.591  30.486  1.00  0.00     0.005 A 
HETATM    6  C9  UNK     1      18.162   2.931  31.525  1.00  0.00     0.076 A 
HETATM    7  C10 UNK     1      19.962  -0.657  30.017  1.00  0.00    -0.043 A 
HETATM    8  C11 UNK     1      19.017   1.663  29.645  1.00  0.00     0.017 A 
HETATM    9  C12 UNK     1      18.430   2.824  30.162  1.00  0.00     0.038 A 
HETATM   10  C13 UNK     1      20.234  -1.622  30.907  1.00  0.00     0.090 A 
HETATM   11  C14 UNK     1      19.943  -1.494  32.344  1.00  0.00     0.288 A 
HETATM   12  C15 UNK     1      20.275  -0.834  28.560  1.00  0.00     0.049 C 
ENDROOT
BRANCH   3  13
HETATM   13  C1  UNK     1      18.194   1.984  33.839  1.00  0.00     0.317 C 
BRANCH  13  14
HETATM   14  N1  UNK     1      17.986   0.677  34.459  1.00  0.00     0.097 N 
HETATM   15  C2  UNK     1      18.713   0.583  35.733  1.00  0.00     0.299 C 
HETATM   16  C5  UNK     1      18.471  -0.785  36.366  1.00  0.00     0.198 C 
HETATM   17  O1  UNK     1      17.074  -0.998  36.572  1.00  0.00    -0.388 OA
HETATM   18  C6  UNK     1      16.364  -0.939  35.335  1.00  0.00     0.198 C 
HETATM   19  C3  UNK     1      16.555   0.425  34.676  1.00  0.00     0.299 C 
ENDBRANCH  13  14
ENDBRANCH   3  13
BRANCH   6  20
HETATM   20  O3  UNK     1      17.589   4.070  32.004  1.00  0.00    -0.360 OA
HETATM   21  H17 UNK     1      17.084   3.858  32.808  1.00  0.00     0.217 HD
ENDBRANCH   6  20
TORSDOF 3
ENDMDL
MODEL 8
REMARK VINA RESULT:      -7.0     12.722     15.238
REMARK  3 active torsions:
REMARK  status: ('A' for Active; 'I' for Inactive)
REMARK    1  A    between atoms: C9_14  and  O3_3 
REMARK    2  A    between atoms: C1_6  and  N1_5 
REMARK    3  A    between atoms: C1_6  and  C4_9 
ROOT
HETATM    1  O2  UNK     1      30.462  -6.475  29.742  1.00  0.00    -0.274 OA
HETATM    2  O4  UNK     1      30.329  -4.439  30.775  1.00  0.00    -0.260 OA
HETATM    3  C4  UNK     1      30.605  -8.599  28.664  1.00  0.00     0.038 A 
HETATM    4  C7  UNK     1      29.821  -7.664  29.342  1.00  0.00     0.101 A 
HETATM    5  C8  UNK     1      28.469  -7.883  29.616  1.00  0.00     0.005 A 
HETATM    6  C9  UNK     1      30.026  -9.792  28.244  1.00  0.00     0.076 A 
HETATM    7  C10 UNK     1      27.720  -6.843  30.336  1.00  0.00    -0.043 A 
HETATM    8  C11 UNK     1      27.906  -9.091  29.184  1.00  0.00     0.017 A 
HETATM    9  C12 UNK     1      28.679 -10.038  28.502  1.00  0.00     0.038 A 
HETATM   10  C13 UNK     1      28.356  -5.722  30.704  1.00  0.00     0.090 A 
HETATM   11  C14 UNK     1      29.781  -5.477  30.422  1.00  0.00     0.288 A 
HETATM   12  C15 UNK     1      26.266  -7.048  30.645  1.00  0.00     0.049 C 
ENDROOT
BRANCH   3  13
HETATM   13  C1  UNK     1      32.048  -8.327  28.390  1.00  0.00     0.317 C 
BRANCH  13  14
HETATM   14  N1  UNK     1      32.843  -8.273  29.614  1.00  0.00     0.097 N 
HETATM   15  C2  UNK     1      33.238  -9.623  30.040  1.00  0.00     0.299 C 
HETATM   16  C5  UNK     1      34.077  -9.539  31.313  1.00  0.00     0.198 C 
HETATM   17  O1  UNK     1      35.232  -8.728  31.094  1.00  0.00    -0.388 OA
HETATM   18  C6  UNK     1      34.858  -7.405  30.710  1.00  0.00     0.198 C 
HETATM   19  C3  UNK     1      34.036  -7.437  29.424  1.00  0.00     0.299 C 
ENDBRANCH  13  14
ENDBRANCH   3  13
BRANCH   6  20
HETATM   20  O3  UNK     1      30.758 -10.728  27.577  1.00  0.00    -0.360 OA
HETATM   21  H17 UNK     1      30.581 -11.603  27.963  1.00  0.00     0.217 HD
ENDBRANCH   6  20
TORSDOF 3
ENDMDL
MODEL 9
REMARK VINA RESULT:      -7.0     24.428     26.463
REMARK  3 active torsions:
REMARK  status: ('A' for Active; 'I' for Inactive)
REMARK    1  A    between atoms: C9_14  and  O3_3 
REMARK    2  A    between atoms: C1_6  and  N1_5 
REMARK    3  A    between atoms: C1_6  and  C4_9 
ROOT
HETATM    1  O2  UNK     1      14.061   8.560   8.148  1.00  0.00    -0.274 OA
HETATM    2  O4  UNK     1      14.884  10.692   8.061  1.00  0.00    -0.260 OA
HETATM    3  C4  UNK     1      13.200   6.336   8.236  1.00  0.00     0.038 A 
HETATM    4  C7  UNK     1      14.159   7.254   8.668  1.00  0.00     0.101 A 
HETATM    5  C8  UNK     1      15.169   6.909   9.569  1.00  0.00     0.005 A 
HETATM    6  C9  UNK     1      13.246   5.031   8.716  1.00  0.00     0.076 A 
HETATM    7  C10 UNK     1      16.137   7.941   9.968  1.00  0.00    -0.043 A 
HETATM    8  C11 UNK     1      15.198   5.590  10.040  1.00  0.00     0.017 A 
HETATM    9  C12 UNK     1      14.242   4.659   9.617  1.00  0.00     0.038 A 
HETATM   10  C13 UNK     1      16.019   9.175   9.458  1.00  0.00     0.090 A 
HETATM   11  C14 UNK     1      14.960   9.553   8.507  1.00  0.00     0.288 A 
HETATM   12  C15 UNK     1      17.233   7.602  10.935  1.00  0.00     0.049 C 
ENDROOT
BRANCH   3  13
HETATM   13  C1  UNK     1      12.135   6.744   7.272  1.00  0.00     0.317 C 
BRANCH  13  14
HETATM   14  N1  UNK     1      10.793   6.572   7.824  1.00  0.00     0.097 N 
HETATM   15  C2  UNK     1      10.420   7.724   8.656  1.00  0.00     0.299 C 
HETATM   16  C5  UNK     1       9.011   7.527   9.211  1.00  0.00     0.198 C 
HETATM   17  O1  UNK     1       8.077   7.359   8.145  1.00  0.00    -0.388 OA
HETATM   18  C6  UNK     1       8.413   6.223   7.349  1.00  0.00     0.198 C 
HETATM   19  C3  UNK     1       9.808   6.387   6.750  1.00  0.00     0.299 C 
ENDBRANCH  13  14
ENDBRANCH   3  13
BRANCH   6  20
HETATM   20  O3  UNK     1      12.327   4.108   8.320  1.00  0.00    -0.360 OA
HETATM   21  H17 UNK     1      12.527   3.830   7.409  1.00  0.00     0.217 HD
ENDBRANCH   6  20
TORSDOF 3
ENDMDL
MODEL 10
REMARK VINA RESULT:      -7.0     24.658     26.301
REMARK  3 active torsions:
REMARK  status: ('A' for Active; 'I' for Inactive)
REMARK    1  A    between atoms: C9_14  and  O3_3 
REMARK    2  A    between atoms: C1_6  and  N1_5 
REMARK    3  A    between atoms: C1_6  and  C4_9 
ROOT
HETATM    1  O2  UNK     1      14.541   6.001   9.580  1.00  0.00    -0.274 OA
HETATM    2  O4  UNK     1      16.333   4.587   9.445  1.00  0.00    -0.260 OA
HETATM    3  C4  UNK     1      12.668   7.474   9.720  1.00  0.00     0.038 A 
HETATM    4  C7  UNK     1      14.054   7.310   9.765  1.00  0.00     0.101 A 
HETATM    5  C8  UNK     1      14.924   8.380   9.983  1.00  0.00     0.005 A 
HETATM    6  C9  UNK     1      12.129   8.744   9.896  1.00  0.00     0.076 A 
HETATM    7  C10 UNK     1      16.369   8.116  10.016  1.00  0.00    -0.043 A 
HETATM    8  C11 UNK     1      14.361   9.651  10.159  1.00  0.00     0.017 A 
HETATM    9  C12 UNK     1      12.973   9.831  10.114  1.00  0.00     0.038 A 
HETATM   10  C13 UNK     1      16.804   6.861   9.836  1.00  0.00     0.090 A 
HETATM   11  C14 UNK     1      15.899   5.722   9.605  1.00  0.00     0.288 A 
HETATM   12  C15 UNK     1      17.331   9.245  10.248  1.00  0.00     0.049 C 
ENDROOT
BRANCH   3  13
HETATM   13  C1  UNK     1      11.771   6.303   9.484  1.00  0.00     0.317 C 
BRANCH  13  14
HETATM   14  N1  UNK     1      10.891   6.503   8.334  1.00  0.00     0.097 N 
HETATM   15  C2  UNK     1      11.454   5.873   7.132  1.00  0.00     0.299 C 
HETATM   16  C5  UNK     1      10.513   6.084   5.948  1.00  0.00     0.198 C 
HETATM   17  O1  UNK     1       9.222   5.544   6.237  1.00  0.00    -0.388 OA
HETATM   18  C6  UNK     1       8.654   6.173   7.385  1.00  0.00     0.198 C 
HETATM   19  C3  UNK     1       9.551   5.965   8.604  1.00  0.00     0.299 C 
ENDBRANCH  13  14
ENDBRANCH   3  13
BRANCH   6  20
HETATM   20  O3  UNK     1      10.782   8.943   9.856  1.00  0.00    -0.360 OA
HETATM   21  H17 UNK     1      10.443   9.004  10.765  1.00  0.00     0.217 HD
ENDBRANCH   6  20
TORSDOF 3
ENDMDL
