MODEL 1
REMARK VINA RESULT:      -9.7      0.000      0.000
REMARK  5 active torsions:
REMARK  status: ('A' for Active; 'I' for Inactive)
REMARK    1  A    between atoms: C17_24  and  O1_1 
REMARK    2  A    between atoms: C4_11  and  O1_1 
REMARK    3  A    between atoms: C1_8  and  C15_22 
REMARK    4  A    between atoms: C16_23  and  C2_9 
REMARK    5  A    between atoms: C12_19  and  C17_24 
ROOT
HETATM    1  O3  UNK     1      30.179  -4.425  32.201  1.00  0.00    -0.293 OA
HETATM    2  N1  UNK     1      28.369  -8.645  33.340  1.00  0.00    -0.362 N 
HETATM    3  C1  UNK     1      30.122  -6.557  34.123  1.00  0.00     0.104 C 
HETATM    4  C2  UNK     1      28.432  -6.826  30.027  1.00  0.00     0.056 C 
HETATM    5  C3  UNK     1      29.380  -6.576  32.789  1.00  0.00     0.024 C 
HETATM    6  C5  UNK     1      27.836  -7.690  31.146  1.00  0.00     0.069 C 
HETATM    7  C6  UNK     1      28.572  -7.603  32.456  1.00  0.00     0.021 C 
HETATM    8  C9  UNK     1      28.807  -5.432  30.529  1.00  0.00     0.095 C 
HETATM    9  C12 UNK     1      29.697  -7.695  35.053  1.00  0.00     0.052 C 
HETATM   10  C13 UNK     1      29.525  -5.413  31.864  1.00  0.00     0.159 C 
HETATM   11  C14 UNK     1      28.879  -8.685  34.628  1.00  0.00     0.018 C 
HETATM   12  C18 UNK     1      28.447  -9.867  35.452  1.00  0.00     0.069 C 
HETATM   13  H16 UNK     1      27.751  -9.396  33.055  1.00  0.00     0.165 HD
ENDROOT
BRANCH   3  14
HETATM   14  C15 UNK     1      31.609  -6.601  33.898  1.00  0.00     0.029 A 
HETATM   15  C19 UNK     1      32.167  -7.692  33.060  1.00  0.00     0.194 A 
HETATM   16  O6  UNK     1      31.458  -8.550  32.551  1.00  0.00    -0.287 OA
HETATM   17  C22 UNK     1      33.630  -7.688  32.872  1.00  0.00     0.049 A 
HETATM   18  C23 UNK     1      34.389  -6.687  33.476  1.00  0.00     0.089 A 
HETATM   19  C26 UNK     1      34.252  -8.674  32.100  1.00  0.00     0.025 A 
HETATM   20  O4  UNK     1      33.832  -5.695  34.244  1.00  0.00    -0.321 OA
HETATM   21  C27 UNK     1      35.775  -6.664  33.312  1.00  0.00     0.039 A 
HETATM   22  C20 UNK     1      32.468  -5.711  34.411  1.00  0.00     0.154 A 
HETATM   23  C29 UNK     1      36.397  -7.645  32.542  1.00  0.00     0.009 A 
HETATM   24  C28 UNK     1      35.638  -8.648  31.937  1.00  0.00    -0.061 A 
HETATM   25  C30 UNK     1      36.310  -9.695  31.114  1.00  0.00     0.048 C 
ENDBRANCH   3  14
BRANCH   9  26
HETATM   26  C17 UNK     1      30.176  -7.629  36.443  1.00  0.00     0.292 C 
HETATM   27  O5  UNK     1      31.082  -8.319  36.872  1.00  0.00    -0.259 OA
BRANCH  26  28
HETATM   28  O1  UNK     1      29.446  -6.698  37.103  1.00  0.00    -0.312 OA
BRANCH  28  29
HETATM   29  C4  UNK     1      30.075  -6.141  38.253  1.00  0.00     0.132 C 
HETATM   30  C7  UNK     1      29.036  -5.424  39.121  1.00  0.00     0.032 C 
HETATM   31  C10 UNK     1      29.411  -3.944  39.090  1.00  0.00     0.002 C 
HETATM   32  C11 UNK     1      30.282  -3.785  37.854  1.00  0.00     0.002 C 
HETATM   33  C8  UNK     1      31.085  -5.077  37.832  1.00  0.00     0.032 C 
ENDBRANCH  28  29
ENDBRANCH  26  28
ENDBRANCH   9  26
BRANCH   4  34
HETATM   34  C16 UNK     1      29.544  -7.554  29.268  1.00  0.00     0.057 A 
HETATM   35  O2  UNK     1      29.219  -8.770  28.774  1.00  0.00    -0.327 OA
HETATM   36  C25 UNK     1      30.334  -9.233  28.149  1.00  0.00     0.142 A 
HETATM   37  C24 UNK     1      31.356  -8.319  28.247  1.00  0.00     0.027 A 
HETATM   38  C21 UNK     1      30.838  -7.224  28.980  1.00  0.00     0.035 A 
ENDBRANCH   4  34
TORSDOF 5
ENDMDL
MODEL 2
REMARK VINA RESULT:      -9.7      2.720      6.436
REMARK  5 active torsions:
REMARK  status: ('A' for Active; 'I' for Inactive)
REMARK    1  A    between atoms: C17_24  and  O1_1 
REMARK    2  A    between atoms: C4_11  and  O1_1 
REMARK    3  A    between atoms: C1_8  and  C15_22 
REMARK    4  A    between atoms: C16_23  and  C2_9 
REMARK    5  A    between atoms: C12_19  and  C17_24 
ROOT
HETATM    1  O3  UNK     1      32.199  -9.057  36.609  1.00  0.00    -0.293 OA
HETATM    2  N1  UNK     1      31.428  -4.846  38.622  1.00  0.00    -0.362 N 
HETATM    3  C1  UNK     1      30.236  -7.142  37.459  1.00  0.00     0.104 C 
HETATM    4  C2  UNK     1      34.584  -6.306  37.138  1.00  0.00     0.056 C 
HETATM    5  C3  UNK     1      31.745  -6.921  37.528  1.00  0.00     0.024 C 
HETATM    6  C5  UNK     1      33.737  -5.517  38.146  1.00  0.00     0.069 C 
HETATM    7  C6  UNK     1      32.261  -5.802  38.074  1.00  0.00     0.021 C 
HETATM    8  C9  UNK     1      34.155  -7.771  37.064  1.00  0.00     0.095 C 
HETATM    9  C12 UNK     1      29.447  -6.077  38.222  1.00  0.00     0.052 C 
HETATM   10  C13 UNK     1      32.656  -7.989  37.018  1.00  0.00     0.159 C 
HETATM   11  C14 UNK     1      30.054  -4.984  38.738  1.00  0.00     0.018 C 
HETATM   12  C18 UNK     1      29.357  -3.863  39.460  1.00  0.00     0.069 C 
HETATM   13  H16 UNK     1      31.855  -4.020  39.027  1.00  0.00     0.165 HD
ENDROOT
BRANCH   3  14
HETATM   14  C15 UNK     1      29.778  -7.198  36.027  1.00  0.00     0.029 A 
HETATM   15  C19 UNK     1      30.197  -6.112  35.106  1.00  0.00     0.194 A 
HETATM   16  O6  UNK     1      30.899  -5.179  35.475  1.00  0.00    -0.287 OA
HETATM   17  C22 UNK     1      29.719  -6.214  33.714  1.00  0.00     0.049 A 
HETATM   18  C23 UNK     1      28.921  -7.298  33.349  1.00  0.00     0.089 A 
HETATM   19  C26 UNK     1      30.060  -5.241  32.770  1.00  0.00     0.025 A 
HETATM   20  O4  UNK     1      28.558  -8.282  34.234  1.00  0.00    -0.321 OA
HETATM   21  C27 UNK     1      28.459  -7.416  32.038  1.00  0.00     0.039 A 
HETATM   22  C20 UNK     1      29.009  -8.173  35.527  1.00  0.00     0.154 A 
HETATM   23  C29 UNK     1      28.797  -6.447  31.094  1.00  0.00     0.009 A 
HETATM   24  C28 UNK     1      29.596  -5.361  31.459  1.00  0.00    -0.061 A 
HETATM   25  C30 UNK     1      29.955  -4.328  30.445  1.00  0.00     0.048 C 
ENDBRANCH   3  14
BRANCH   9  26
HETATM   26  C17 UNK     1      28.010  -6.328  38.415  1.00  0.00     0.292 C 
HETATM   27  O5  UNK     1      27.139  -5.702  37.841  1.00  0.00    -0.259 OA
BRANCH  26  28
HETATM   28  O1  UNK     1      27.868  -7.338  39.307  1.00  0.00    -0.312 OA
BRANCH  28  29
HETATM   29  C4  UNK     1      27.471  -8.586  38.748  1.00  0.00     0.132 C 
HETATM   30  C7  UNK     1      26.175  -9.066  39.409  1.00  0.00     0.032 C 
HETATM   31  C10 UNK     1      26.535 -10.342  40.167  1.00  0.00     0.002 C 
HETATM   32  C11 UNK     1      28.043 -10.276  40.352  1.00  0.00     0.002 C 
HETATM   33  C8  UNK     1      28.521  -9.652  39.048  1.00  0.00     0.032 C 
ENDBRANCH  28  29
ENDBRANCH  26  28
ENDBRANCH   9  26
BRANCH   4  34
HETATM   34  C16 UNK     1      34.675  -5.596  35.784  1.00  0.00     0.057 A 
HETATM   35  O2  UNK     1      35.155  -6.339  34.763  1.00  0.00    -0.327 OA
HETATM   36  C25 UNK     1      35.152  -5.527  33.673  1.00  0.00     0.142 A 
HETATM   37  C24 UNK     1      34.674  -4.280  34.001  1.00  0.00     0.027 A 
HETATM   38  C21 UNK     1      34.364  -4.328  35.381  1.00  0.00     0.035 A 
ENDBRANCH   4  34
TORSDOF 5
ENDMDL
MODEL 3
REMARK VINA RESULT:      -9.3      1.586      6.470
REMARK  5 active torsions:
REMARK  status: ('A' for Active; 'I' for Inactive)
REMARK    1  A    between atoms: C17_24  and  O1_1 
REMARK    2  A    between atoms: C4_11  and  O1_1 
REMARK    3  A    between atoms: C1_8  and  C15_22 
REMARK    4  A    between atoms: C16_23  and  C2_9 
REMARK    5  A    between atoms: C12_19  and  C17_24 
ROOT
HETATM    1  O3  UNK     1      30.961  -9.846  35.612  1.00  0.00    -0.293 OA
HETATM    2  N1  UNK     1      28.755  -6.223  33.516  1.00  0.00    -0.362 N 
HETATM    3  C1  UNK     1      30.822  -8.154  33.297  1.00  0.00     0.104 C 
HETATM    4  C2  UNK     1      28.728  -7.345  37.126  1.00  0.00     0.056 C 
HETATM    5  C3  UNK     1      29.959  -7.984  34.544  1.00  0.00     0.024 C 
HETATM    6  C5  UNK     1      28.139  -6.804  35.817  1.00  0.00     0.069 C 
HETATM    7  C6  UNK     1      29.002  -7.036  34.606  1.00  0.00     0.021 C 
HETATM    8  C9  UNK     1      29.321  -8.742  36.945  1.00  0.00     0.095 C 
HETATM    9  C12 UNK     1      30.350  -7.287  32.128  1.00  0.00     0.052 C 
HETATM   10  C13 UNK     1      30.159  -8.915  35.695  1.00  0.00     0.159 C 
HETATM   11  C14 UNK     1      29.377  -6.360  32.286  1.00  0.00     0.018 C 
HETATM   12  C18 UNK     1      28.882  -5.431  31.211  1.00  0.00     0.069 C 
HETATM   13  H16 UNK     1      28.024  -5.526  33.600  1.00  0.00     0.165 HD
ENDROOT
BRANCH   3  14
HETATM   14  C15 UNK     1      32.264  -7.858  33.610  1.00  0.00     0.029 A 
HETATM   15  C19 UNK     1      33.299  -8.824  33.163  1.00  0.00     0.194 A 
HETATM   16  O6  UNK     1      33.015  -9.847  32.554  1.00  0.00    -0.287 OA
HETATM   17  C22 UNK     1      34.696  -8.486  33.496  1.00  0.00     0.049 A 
HETATM   18  C23 UNK     1      34.960  -7.308  34.194  1.00  0.00     0.089 A 
HETATM   19  C26 UNK     1      35.743  -9.332  33.120  1.00  0.00     0.025 A 
HETATM   20  O4  UNK     1      33.972  -6.441  34.587  1.00  0.00    -0.321 OA
HETATM   21  C27 UNK     1      36.274  -6.968  34.519  1.00  0.00     0.039 A 
HETATM   22  C20 UNK     1      32.676  -6.769  34.271  1.00  0.00     0.154 A 
HETATM   23  C29 UNK     1      37.320  -7.809  34.145  1.00  0.00     0.009 A 
HETATM   24  C28 UNK     1      37.056  -8.989  33.447  1.00  0.00    -0.061 A 
HETATM   25  C30 UNK     1      38.180  -9.886  33.048  1.00  0.00     0.048 C 
ENDBRANCH   3  14
BRANCH   9  26
HETATM   26  C17 UNK     1      30.964  -7.551  30.817  1.00  0.00     0.292 C 
HETATM   27  O5  UNK     1      31.822  -6.842  30.326  1.00  0.00    -0.259 OA
BRANCH  26  28
HETATM   28  O1  UNK     1      30.410  -8.676  30.304  1.00  0.00    -0.312 OA
BRANCH  28  29
HETATM   29  C4  UNK     1      29.638  -8.484  29.123  1.00  0.00     0.132 C 
HETATM   30  C7  UNK     1      28.154  -8.709  29.427  1.00  0.00     0.032 C 
HETATM   31  C10 UNK     1      27.742  -9.944  28.628  1.00  0.00     0.002 C 
HETATM   32  C11 UNK     1      29.044 -10.666  28.324  1.00  0.00     0.002 C 
HETATM   33  C8  UNK     1      30.019  -9.525  28.074  1.00  0.00     0.032 C 
ENDBRANCH  28  29
ENDBRANCH  26  28
ENDBRANCH   9  26
BRANCH   4  34
HETATM   34  C16 UNK     1      29.664  -6.334  37.796  1.00  0.00     0.057 A 
HETATM   35  O2  UNK     1      29.128  -5.119  38.051  1.00  0.00    -0.327 OA
HETATM   36  C25 UNK     1      30.115  -4.389  38.636  1.00  0.00     0.142 A 
HETATM   37  C24 UNK     1      31.264  -5.135  38.750  1.00  0.00     0.027 A 
HETATM   38  C21 UNK     1      30.967  -6.404  38.200  1.00  0.00     0.035 A 
ENDBRANCH   4  34
TORSDOF 5
ENDMDL
MODEL 4
REMARK VINA RESULT:      -9.2      2.276      5.523
REMARK  5 active torsions:
REMARK  status: ('A' for Active; 'I' for Inactive)
REMARK    1  A    between atoms: C17_24  and  O1_1 
REMARK    2  A    between atoms: C4_11  and  O1_1 
REMARK    3  A    between atoms: C1_8  and  C15_22 
REMARK    4  A    between atoms: C16_23  and  C2_9 
REMARK    5  A    between atoms: C12_19  and  C17_24 
ROOT
HETATM    1  O3  UNK     1      30.372 -10.812  33.639  1.00  0.00    -0.293 OA
HETATM    2  N1  UNK     1      32.864  -6.999  32.362  1.00  0.00    -0.362 N 
HETATM    3  C1  UNK     1      31.980  -8.606  34.526  1.00  0.00     0.104 C 
HETATM    4  C2  UNK     1      30.301  -9.002  30.436  1.00  0.00     0.056 C 
HETATM    5  C3  UNK     1      31.561  -8.842  33.077  1.00  0.00     0.024 C 
HETATM    6  C5  UNK     1      31.595  -8.203  30.645  1.00  0.00     0.069 C 
HETATM    7  C6  UNK     1      31.994  -8.036  32.086  1.00  0.00     0.021 C 
HETATM    8  C9  UNK     1      30.254 -10.244  31.325  1.00  0.00     0.095 C 
HETATM    9  C12 UNK     1      33.047  -7.518  34.664  1.00  0.00     0.052 C 
HETATM   10  C13 UNK     1      30.691 -10.013  32.757  1.00  0.00     0.159 C 
HETATM   11  C14 UNK     1      33.419  -6.758  33.608  1.00  0.00     0.018 C 
HETATM   12  C18 UNK     1      34.420  -5.636  33.657  1.00  0.00     0.069 C 
HETATM   13  H16 UNK     1      33.171  -6.419  31.589  1.00  0.00     0.165 HD
ENDROOT
BRANCH   3  14
HETATM   14  C15 UNK     1      30.783  -8.265  35.371  1.00  0.00     0.029 A 
HETATM   15  C19 UNK     1      30.480  -9.117  36.548  1.00  0.00     0.194 A 
HETATM   16  O6  UNK     1      31.171 -10.082  36.849  1.00  0.00    -0.287 OA
HETATM   17  C22 UNK     1      29.295  -8.739  37.342  1.00  0.00     0.049 A 
HETATM   18  C23 UNK     1      28.544  -7.630  36.952  1.00  0.00     0.089 A 
HETATM   19  C26 UNK     1      28.926  -9.479  38.469  1.00  0.00     0.025 A 
HETATM   20  O4  UNK     1      28.861  -6.868  35.856  1.00  0.00    -0.321 OA
HETATM   21  C27 UNK     1      27.420  -7.254  37.689  1.00  0.00     0.039 A 
HETATM   22  C20 UNK     1      29.966  -7.233  35.126  1.00  0.00     0.154 A 
HETATM   23  C29 UNK     1      27.050  -7.990  38.813  1.00  0.00     0.009 A 
HETATM   24  C28 UNK     1      27.801  -9.100  39.203  1.00  0.00    -0.061 A 
HETATM   25  C30 UNK     1      27.401  -9.884  40.408  1.00  0.00     0.048 C 
ENDBRANCH   3  14
BRANCH   9  26
HETATM   26  C17 UNK     1      33.685  -7.379  35.982  1.00  0.00     0.292 C 
HETATM   27  O5  UNK     1      34.890  -7.413  36.149  1.00  0.00    -0.259 OA
BRANCH  26  28
HETATM   28  O1  UNK     1      32.713  -7.213  36.912  1.00  0.00    -0.312 OA
BRANCH  28  29
HETATM   29  C4  UNK     1      32.834  -6.039  37.708  1.00  0.00     0.132 C 
HETATM   30  C7  UNK     1      31.656  -5.946  38.683  1.00  0.00     0.032 C 
HETATM   31  C10 UNK     1      30.860  -4.711  38.268  1.00  0.00     0.002 C 
HETATM   32  C11 UNK     1      31.270  -4.446  36.828  1.00  0.00     0.002 C 
HETATM   33  C8  UNK     1      32.751  -4.798  36.823  1.00  0.00     0.032 C 
ENDBRANCH  28  29
ENDBRANCH  26  28
ENDBRANCH   9  26
BRANCH   4  34
HETATM   34  C16 UNK     1      29.057  -8.112  30.512  1.00  0.00     0.057 A 
HETATM   35  O2  UNK     1      29.256  -6.803  30.243  1.00  0.00    -0.327 OA
HETATM   36  C25 UNK     1      28.041  -6.205  30.367  1.00  0.00     0.142 A 
HETATM   37  C24 UNK     1      27.082  -7.128  30.711  1.00  0.00     0.027 A 
HETATM   38  C21 UNK     1      27.749  -8.373  30.806  1.00  0.00     0.035 A 
ENDBRANCH   4  34
TORSDOF 5
ENDMDL
MODEL 5
REMARK VINA RESULT:      -9.2      2.210      7.536
REMARK  5 active torsions:
REMARK  status: ('A' for Active; 'I' for Inactive)
REMARK    1  A    between atoms: C17_24  and  O1_1 
REMARK    2  A    between atoms: C4_11  and  O1_1 
REMARK    3  A    between atoms: C1_8  and  C15_22 
REMARK    4  A    between atoms: C16_23  and  C2_9 
REMARK    5  A    between atoms: C12_19  and  C17_24 
ROOT
HETATM    1  O3  UNK     1      31.121  -4.898  35.062  1.00  0.00    -0.293 OA
HETATM    2  N1  UNK     1      34.622  -8.072  35.293  1.00  0.00    -0.362 N 
HETATM    3  C1  UNK     1      32.877  -6.626  33.587  1.00  0.00     0.104 C 
HETATM    4  C2  UNK     1      32.286  -6.809  37.983  1.00  0.00     0.056 C 
HETATM    5  C3  UNK     1      32.812  -6.557  35.110  1.00  0.00     0.024 C 
HETATM    6  C5  UNK     1      33.620  -7.273  37.382  1.00  0.00     0.069 C 
HETATM    7  C6  UNK     1      33.653  -7.280  35.877  1.00  0.00     0.021 C 
HETATM    8  C9  UNK     1      31.740  -5.576  37.263  1.00  0.00     0.095 C 
HETATM    9  C12 UNK     1      34.078  -7.426  33.081  1.00  0.00     0.052 C 
HETATM   10  C13 UNK     1      31.825  -5.637  35.752  1.00  0.00     0.159 C 
HETATM   11  C14 UNK     1      34.869  -8.122  33.930  1.00  0.00     0.018 C 
HETATM   12  C18 UNK     1      36.040  -8.975  33.523  1.00  0.00     0.069 C 
HETATM   13  H16 UNK     1      35.239  -8.596  35.903  1.00  0.00     0.165 HD
ENDROOT
BRANCH   3  14
HETATM   14  C15 UNK     1      31.602  -7.201  33.032  1.00  0.00     0.029 A 
HETATM   15  C19 UNK     1      30.722  -6.324  32.219  1.00  0.00     0.194 A 
HETATM   16  O6  UNK     1      31.002  -5.154  31.990  1.00  0.00    -0.287 OA
HETATM   17  C22 UNK     1      29.486  -6.938  31.700  1.00  0.00     0.049 A 
HETATM   18  C23 UNK     1      29.218  -8.275  31.994  1.00  0.00     0.089 A 
HETATM   19  C26 UNK     1      28.591  -6.194  30.925  1.00  0.00     0.025 A 
HETATM   20  O4  UNK     1      30.060  -9.051  32.749  1.00  0.00    -0.321 OA
HETATM   21  C27 UNK     1      28.054  -8.876  31.513  1.00  0.00     0.039 A 
HETATM   22  C20 UNK     1      31.207  -8.466  33.226  1.00  0.00     0.154 A 
HETATM   23  C29 UNK     1      27.161  -8.137  30.739  1.00  0.00     0.009 A 
HETATM   24  C28 UNK     1      27.429  -6.798  30.445  1.00  0.00    -0.061 A 
HETATM   25  C30 UNK     1      26.470  -6.013  29.616  1.00  0.00     0.048 C 
ENDBRANCH   3  14
BRANCH   9  26
HETATM   26  C17 UNK     1      34.362  -7.355  31.639  1.00  0.00     0.292 C 
HETATM   27  O5  UNK     1      35.202  -6.618  31.159  1.00  0.00    -0.259 OA
BRANCH  26  28
HETATM   28  O1  UNK     1      33.547  -8.228  31.000  1.00  0.00    -0.312 OA
BRANCH  28  29
HETATM   29  C4  UNK     1      33.416  -8.015  29.598  1.00  0.00     0.132 C 
HETATM   30  C7  UNK     1      32.553  -6.777  29.336  1.00  0.00     0.032 C 
HETATM   31  C10 UNK     1      31.288  -7.283  28.646  1.00  0.00     0.002 C 
HETATM   32  C11 UNK     1      31.219  -8.762  28.988  1.00  0.00     0.002 C 
HETATM   33  C8  UNK     1      32.680  -9.189  28.957  1.00  0.00     0.032 C 
ENDBRANCH  28  29
ENDBRANCH  26  28
ENDBRANCH   9  26
BRANCH   4  34
HETATM   34  C16 UNK     1      31.288  -7.961  38.124  1.00  0.00     0.057 A 
HETATM   35  O2  UNK     1      31.829  -9.189  38.294  1.00  0.00    -0.327 OA
HETATM   36  C25 UNK     1      30.782 -10.050  38.395  1.00  0.00     0.142 A 
HETATM   37  C24 UNK     1      29.589  -9.375  38.290  1.00  0.00     0.027 A 
HETATM   38  C21 UNK     1      29.923  -8.011  38.112  1.00  0.00     0.035 A 
ENDBRANCH   4  34
TORSDOF 5
ENDMDL
MODEL 6
REMARK VINA RESULT:      -9.2      2.604      6.115
REMARK  5 active torsions:
REMARK  status: ('A' for Active; 'I' for Inactive)
REMARK    1  A    between atoms: C17_24  and  O1_1 
REMARK    2  A    between atoms: C4_11  and  O1_1 
REMARK    3  A    between atoms: C1_8  and  C15_22 
REMARK    4  A    between atoms: C16_23  and  C2_9 
REMARK    5  A    between atoms: C12_19  and  C17_24 
ROOT
HETATM    1  O3  UNK     1      32.352  -8.953  35.211  1.00  0.00    -0.293 OA
HETATM    2  N1  UNK     1      31.004  -5.404  38.035  1.00  0.00    -0.362 N 
HETATM    3  C1  UNK     1      30.154  -7.390  36.196  1.00  0.00     0.104 C 
HETATM    4  C2  UNK     1      34.430  -6.321  36.725  1.00  0.00     0.056 C 
HETATM    5  C3  UNK     1      31.619  -7.131  36.537  1.00  0.00     0.024 C 
HETATM    6  C5  UNK     1      33.400  -5.841  37.757  1.00  0.00     0.069 C 
HETATM    7  C6  UNK     1      31.972  -6.160  37.403  1.00  0.00     0.021 C 
HETATM    8  C9  UNK     1      34.127  -7.739  36.242  1.00  0.00     0.095 C 
HETATM    9  C12 UNK     1      29.192  -6.580  37.067  1.00  0.00     0.052 C 
HETATM   10  C13 UNK     1      32.669  -8.000  35.926  1.00  0.00     0.159 C 
HETATM   11  C14 UNK     1      29.641  -5.623  37.912  1.00  0.00     0.018 C 
HETATM   12  C18 UNK     1      28.772  -4.745  38.769  1.00  0.00     0.069 C 
HETATM   13  H16 UNK     1      31.309  -4.687  38.684  1.00  0.00     0.165 HD
ENDROOT
BRANCH   3  14
HETATM   14  C15 UNK     1      29.894  -7.109  34.741  1.00  0.00     0.029 A 
HETATM   15  C19 UNK     1      29.339  -8.197  33.897  1.00  0.00     0.194 A 
HETATM   16  O6  UNK     1      29.089  -9.308  34.348  1.00  0.00    -0.287 OA
HETATM   17  C22 UNK     1      29.104  -7.869  32.478  1.00  0.00     0.049 A 
HETATM   18  C23 UNK     1      29.408  -6.588  32.019  1.00  0.00     0.089 A 
HETATM   19  C26 UNK     1      28.584  -8.826  31.602  1.00  0.00     0.025 A 
HETATM   20  O4  UNK     1      29.920  -5.610  32.835  1.00  0.00    -0.321 OA
HETATM   21  C27 UNK     1      29.193  -6.256  30.681  1.00  0.00     0.039 A 
HETATM   22  C20 UNK     1      30.134  -5.931  34.153  1.00  0.00     0.154 A 
HETATM   23  C29 UNK     1      28.674  -7.208  29.805  1.00  0.00     0.009 A 
HETATM   24  C28 UNK     1      28.370  -8.491  30.264  1.00  0.00    -0.061 A 
HETATM   25  C30 UNK     1      27.814  -9.505  29.323  1.00  0.00     0.048 C 
ENDBRANCH   3  14
BRANCH   9  26
HETATM   26  C17 UNK     1      27.765  -6.930  36.981  1.00  0.00     0.292 C 
HETATM   27  O5  UNK     1      27.100  -6.783  35.973  1.00  0.00    -0.259 OA
BRANCH  26  28
HETATM   28  O1  UNK     1      27.373  -7.420  38.182  1.00  0.00    -0.312 OA
BRANCH  28  29
HETATM   29  C4  UNK     1      26.918  -8.769  38.164  1.00  0.00     0.132 C 
HETATM   30  C7  UNK     1      26.233  -9.108  39.491  1.00  0.00     0.032 C 
HETATM   31  C10 UNK     1      27.106 -10.170  40.157  1.00  0.00     0.002 C 
HETATM   32  C11 UNK     1      28.464 -10.037  39.489  1.00  0.00     0.002 C 
HETATM   33  C8  UNK     1      28.107  -9.719  38.044  1.00  0.00     0.032 C 
ENDBRANCH  28  29
ENDBRANCH  26  28
ENDBRANCH   9  26
BRANCH   4  34
HETATM   34  C16 UNK     1      34.644  -5.295  35.609  1.00  0.00     0.057 A 
HETATM   35  O2  UNK     1      35.226  -5.767  34.483  1.00  0.00    -0.327 OA
HETATM   36  C25 UNK     1      35.321  -4.708  33.637  1.00  0.00     0.142 A 
HETATM   37  C24 UNK     1      34.805  -3.575  34.222  1.00  0.00     0.027 A 
HETATM   38  C21 UNK     1      34.365  -3.962  35.510  1.00  0.00     0.035 A 
ENDBRANCH   4  34
TORSDOF 5
ENDMDL
MODEL 7
REMARK VINA RESULT:      -9.2      2.346      5.959
REMARK  5 active torsions:
REMARK  status: ('A' for Active; 'I' for Inactive)
REMARK    1  A    between atoms: C17_24  and  O1_1 
REMARK    2  A    between atoms: C4_11  and  O1_1 
REMARK    3  A    between atoms: C1_8  and  C15_22 
REMARK    4  A    between atoms: C16_23  and  C2_9 
REMARK    5  A    between atoms: C12_19  and  C17_24 
ROOT
HETATM    1  O3  UNK     1      31.259 -11.756  30.776  1.00  0.00    -0.293 OA
HETATM    2  N1  UNK     1      33.065  -7.757  29.008  1.00  0.00    -0.362 N 
HETATM    3  C1  UNK     1      33.332  -9.780  30.978  1.00  0.00     0.104 C 
HETATM    4  C2  UNK     1      29.656  -9.320  28.533  1.00  0.00     0.056 C 
HETATM    5  C3  UNK     1      32.165  -9.710  29.997  1.00  0.00     0.024 C 
HETATM    6  C5  UNK     1      30.935  -8.580  28.118  1.00  0.00     0.069 C 
HETATM    7  C6  UNK     1      32.074  -8.715  29.092  1.00  0.00     0.021 C 
HETATM    8  C9  UNK     1      29.961 -10.719  29.065  1.00  0.00     0.095 C 
HETATM    9  C12 UNK     1      34.417  -8.743  30.682  1.00  0.00     0.052 C 
HETATM   10  C13 UNK     1      31.134 -10.790  30.022  1.00  0.00     0.159 C 
HETATM   11  C14 UNK     1      34.235  -7.779  29.750  1.00  0.00     0.018 C 
HETATM   12  C18 UNK     1      35.221  -6.691  29.424  1.00  0.00     0.069 C 
HETATM   13  H16 UNK     1      32.963  -7.028  28.311  1.00  0.00     0.165 HD
ENDROOT
BRANCH   3  14
HETATM   14  C15 UNK     1      32.841  -9.624  32.392  1.00  0.00     0.029 A 
HETATM   15  C19 UNK     1      32.188  -8.348  32.779  1.00  0.00     0.194 A 
HETATM   16  O6  UNK     1      32.039  -7.426  31.988  1.00  0.00    -0.287 OA
HETATM   17  C22 UNK     1      31.726  -8.248  34.176  1.00  0.00     0.049 A 
HETATM   18  C23 UNK     1      31.922  -9.329  35.035  1.00  0.00     0.089 A 
HETATM   19  C26 UNK     1      31.099  -7.087  34.639  1.00  0.00     0.025 A 
HETATM   20  O4  UNK     1      32.530 -10.493  34.635  1.00  0.00    -0.321 OA
HETATM   21  C27 UNK     1      31.493  -9.257  36.361  1.00  0.00     0.039 A 
HETATM   22  C20 UNK     1      32.956 -10.571  33.331  1.00  0.00     0.154 A 
HETATM   23  C29 UNK     1      30.867  -8.100  36.824  1.00  0.00     0.009 A 
HETATM   24  C28 UNK     1      30.670  -7.017  35.965  1.00  0.00    -0.061 A 
HETATM   25  C30 UNK     1      30.000  -5.782  36.466  1.00  0.00     0.048 C 
ENDBRANCH   3  14
BRANCH   9  26
HETATM   26  C17 UNK     1      35.684  -8.881  31.418  1.00  0.00     0.292 C 
HETATM   27  O5  UNK     1      36.710  -9.292  30.912  1.00  0.00    -0.259 OA
BRANCH  26  28
HETATM   28  O1  UNK     1      35.482  -8.477  32.696  1.00  0.00    -0.312 OA
BRANCH  28  29
HETATM   29  C4  UNK     1      36.188  -7.301  33.076  1.00  0.00     0.132 C 
HETATM   30  C7  UNK     1      36.767  -7.471  34.484  1.00  0.00     0.032 C 
HETATM   31  C10 UNK     1      36.046  -6.451  35.363  1.00  0.00     0.002 C 
HETATM   32  C11 UNK     1      34.774  -6.109  34.604  1.00  0.00     0.002 C 
HETATM   33  C8  UNK     1      35.229  -6.116  33.151  1.00  0.00     0.032 C 
ENDBRANCH  28  29
ENDBRANCH  26  28
ENDBRANCH   9  26
BRANCH   4  34
HETATM   34  C16 UNK     1      28.769  -8.467  29.445  1.00  0.00     0.057 A 
HETATM   35  O2  UNK     1      29.087  -7.155  29.512  1.00  0.00    -0.327 OA
HETATM   36  C25 UNK     1      28.188  -6.594  30.364  1.00  0.00     0.142 A 
HETATM   37  C24 UNK     1      27.309  -7.542  30.831  1.00  0.00     0.027 A 
HETATM   38  C21 UNK     1      27.692  -8.765  30.230  1.00  0.00     0.035 A 
ENDBRANCH   4  34
TORSDOF 5
ENDMDL
MODEL 8
REMARK VINA RESULT:      -9.1      2.399      5.446
REMARK  5 active torsions:
REMARK  status: ('A' for Active; 'I' for Inactive)
REMARK    1  A    between atoms: C17_24  and  O1_1 
REMARK    2  A    between atoms: C4_11  and  O1_1 
REMARK    3  A    between atoms: C1_8  and  C15_22 
REMARK    4  A    between atoms: C16_23  and  C2_9 
REMARK    5  A    between atoms: C12_19  and  C17_24 
ROOT
HETATM    1  O3  UNK     1      32.949 -11.124  32.958  1.00  0.00    -0.293 OA
HETATM    2  N1  UNK     1      35.190  -7.662  35.277  1.00  0.00    -0.362 N 
HETATM    3  C1  UNK     1      32.773  -9.123  35.009  1.00  0.00     0.104 C 
HETATM    4  C2  UNK     1      36.032  -9.356  32.004  1.00  0.00     0.056 C 
HETATM    5  C3  UNK     1      33.981  -9.322  34.098  1.00  0.00     0.024 C 
HETATM    6  C5  UNK     1      36.313  -8.720  33.372  1.00  0.00     0.069 C 
HETATM    7  C6  UNK     1      35.101  -8.587  34.254  1.00  0.00     0.021 C 
HETATM    8  C9  UNK     1      35.115 -10.572  32.124  1.00  0.00     0.095 C 
HETATM    9  C12 UNK     1      33.060  -8.174  36.173  1.00  0.00     0.052 C 
HETATM   10  C13 UNK     1      33.928 -10.380  33.045  1.00  0.00     0.159 C 
HETATM   11  C14 UNK     1      34.218  -7.477  36.247  1.00  0.00     0.018 C 
HETATM   12  C18 UNK     1      34.568  -6.487  37.324  1.00  0.00     0.069 C 
HETATM   13  H16 UNK     1      36.050  -7.133  35.365  1.00  0.00     0.165 HD
ENDROOT
BRANCH   3  14
HETATM   14  C15 UNK     1      31.593  -8.627  34.217  1.00  0.00     0.029 A 
HETATM   15  C19 UNK     1      31.714  -7.332  33.500  1.00  0.00     0.194 A 
HETATM   16  O6  UNK     1      32.738  -6.661  33.536  1.00  0.00    -0.287 OA
HETATM   17  C22 UNK     1      30.529  -6.893  32.740  1.00  0.00     0.049 A 
HETATM   18  C23 UNK     1      29.390  -7.697  32.736  1.00  0.00     0.089 A 
HETATM   19  C26 UNK     1      30.543  -5.687  32.032  1.00  0.00     0.025 A 
HETATM   20  O4  UNK     1      29.321  -8.889  33.412  1.00  0.00    -0.321 OA
HETATM   21  C27 UNK     1      28.257  -7.301  32.024  1.00  0.00     0.039 A 
HETATM   22  C20 UNK     1      30.432  -9.285  34.117  1.00  0.00     0.154 A 
HETATM   23  C29 UNK     1      28.268  -6.100  31.316  1.00  0.00     0.009 A 
HETATM   24  C28 UNK     1      29.409  -5.294  31.320  1.00  0.00    -0.061 A 
HETATM   25  C30 UNK     1      29.415  -4.010  30.561  1.00  0.00     0.048 C 
ENDBRANCH   3  14
BRANCH   9  26
HETATM   26  C17 UNK     1      32.043  -8.099  37.234  1.00  0.00     0.292 C 
HETATM   27  O5  UNK     1      31.871  -8.977  38.059  1.00  0.00    -0.259 OA
BRANCH  26  28
HETATM   28  O1  UNK     1      31.381  -6.923  37.110  1.00  0.00    -0.312 OA
BRANCH  28  29
HETATM   29  C4  UNK     1      31.029  -6.296  38.338  1.00  0.00     0.132 C 
HETATM   30  C7  UNK     1      29.508  -6.320  38.520  1.00  0.00     0.032 C 
HETATM   31  C10 UNK     1      29.055  -4.862  38.480  1.00  0.00     0.002 C 
HETATM   32  C11 UNK     1      30.185  -4.119  37.786  1.00  0.00     0.002 C 
HETATM   33  C8  UNK     1      31.429  -4.823  38.307  1.00  0.00     0.032 C 
ENDBRANCH  28  29
ENDBRANCH  26  28
ENDBRANCH   9  26
BRANCH   4  34
HETATM   34  C16 UNK     1      35.588  -8.318  30.968  1.00  0.00     0.057 A 
HETATM   35  O2  UNK     1      35.729  -8.684  29.674  1.00  0.00    -0.327 OA
HETATM   36  C25 UNK     1      35.284  -7.632  28.936  1.00  0.00     0.142 A 
HETATM   37  C24 UNK     1      34.864  -6.611  29.756  1.00  0.00     0.027 A 
HETATM   38  C21 UNK     1      35.066  -7.061  31.082  1.00  0.00     0.035 A 
ENDBRANCH   4  34
TORSDOF 5
ENDMDL
MODEL 9
REMARK VINA RESULT:      -9.1      2.792      6.989
REMARK  5 active torsions:
REMARK  status: ('A' for Active; 'I' for Inactive)
REMARK    1  A    between atoms: C17_24  and  O1_1 
REMARK    2  A    between atoms: C4_11  and  O1_1 
REMARK    3  A    between atoms: C1_8  and  C15_22 
REMARK    4  A    between atoms: C16_23  and  C2_9 
REMARK    5  A    between atoms: C12_19  and  C17_24 
ROOT
HETATM    1  O3  UNK     1      28.529  -6.784  34.905  1.00  0.00    -0.293 OA
HETATM    2  N1  UNK     1      32.094  -6.287  37.975  1.00  0.00    -0.362 N 
HETATM    3  C1  UNK     1      31.370  -6.896  35.301  1.00  0.00     0.104 C 
HETATM    4  C2  UNK     1      28.385  -6.699  38.580  1.00  0.00     0.056 C 
HETATM    5  C3  UNK     1      30.353  -6.638  36.409  1.00  0.00     0.024 C 
HETATM    6  C5  UNK     1      29.794  -6.134  38.809  1.00  0.00     0.069 C 
HETATM    7  C6  UNK     1      30.749  -6.372  37.670  1.00  0.00     0.021 C 
HETATM    8  C9  UNK     1      27.881  -6.404  37.168  1.00  0.00     0.095 C 
HETATM    9  C12 UNK     1      32.810  -6.635  35.746  1.00  0.00     0.052 C 
HETATM   10  C13 UNK     1      28.899  -6.641  36.072  1.00  0.00     0.159 C 
HETATM   11  C14 UNK     1      33.112  -6.373  37.039  1.00  0.00     0.018 C 
HETATM   12  C18 UNK     1      34.499  -6.152  37.579  1.00  0.00     0.069 C 
HETATM   13  H16 UNK     1      32.352  -6.080  38.934  1.00  0.00     0.165 HD
ENDROOT
BRANCH   3  14
HETATM   14  C15 UNK     1      31.238  -8.303  34.783  1.00  0.00     0.029 A 
HETATM   15  C19 UNK     1      30.950  -8.503  33.340  1.00  0.00     0.194 A 
HETATM   16  O6  UNK     1      30.818  -7.563  32.566  1.00  0.00    -0.287 OA
HETATM   17  C22 UNK     1      30.829  -9.900  32.885  1.00  0.00     0.049 A 
HETATM   18  C23 UNK     1      30.988 -10.931  33.811  1.00  0.00     0.089 A 
HETATM   19  C26 UNK     1      30.559 -10.193  31.544  1.00  0.00     0.025 A 
HETATM   20  O4  UNK     1      31.255 -10.702  35.137  1.00  0.00    -0.321 OA
HETATM   21  C27 UNK     1      30.878 -12.261  33.402  1.00  0.00     0.039 A 
HETATM   22  C20 UNK     1      31.363  -9.395  35.546  1.00  0.00     0.154 A 
HETATM   23  C29 UNK     1      30.610 -12.556  32.066  1.00  0.00     0.009 A 
HETATM   24  C28 UNK     1      30.450 -11.524  31.139  1.00  0.00    -0.061 A 
HETATM   25  C30 UNK     1      30.164 -11.845  29.711  1.00  0.00     0.048 C 
ENDBRANCH   3  14
BRANCH   9  26
HETATM   26  C17 UNK     1      33.839  -6.626  34.694  1.00  0.00     0.292 C 
HETATM   27  O5  UNK     1      34.055  -5.667  33.978  1.00  0.00    -0.259 OA
BRANCH  26  28
HETATM   28  O1  UNK     1      34.456  -7.833  34.690  1.00  0.00    -0.312 OA
BRANCH  28  29
HETATM   29  C4  UNK     1      34.689  -8.387  33.399  1.00  0.00     0.132 C 
HETATM   30  C7  UNK     1      34.509  -9.908  33.444  1.00  0.00     0.032 C 
HETATM   31  C10 UNK     1      35.885 -10.504  33.155  1.00  0.00     0.002 C 
HETATM   32  C11 UNK     1      36.869  -9.387  33.460  1.00  0.00     0.002 C 
HETATM   33  C8  UNK     1      36.135  -8.143  32.979  1.00  0.00     0.032 C 
ENDBRANCH  28  29
ENDBRANCH  26  28
ENDBRANCH   9  26
BRANCH   4  34
HETATM   34  C16 UNK     1      28.279  -8.166  39.006  1.00  0.00     0.057 A 
HETATM   35  O2  UNK     1      27.252  -8.464  39.833  1.00  0.00    -0.327 OA
HETATM   36  C25 UNK     1      27.344  -9.797  40.082  1.00  0.00     0.142 A 
HETATM   37  C24 UNK     1      28.419 -10.339  39.417  1.00  0.00     0.027 A 
HETATM   38  C21 UNK     1      29.028  -9.271  38.717  1.00  0.00     0.035 A 
ENDBRANCH   4  34
TORSDOF 5
ENDMDL
MODEL 10
REMARK VINA RESULT:      -9.1      2.580      5.843
REMARK  5 active torsions:
REMARK  status: ('A' for Active; 'I' for Inactive)
REMARK    1  A    between atoms: C17_24  and  O1_1 
REMARK    2  A    between atoms: C4_11  and  O1_1 
REMARK    3  A    between atoms: C1_8  and  C15_22 
REMARK    4  A    between atoms: C16_23  and  C2_9 
REMARK    5  A    between atoms: C12_19  and  C17_24 
ROOT
HETATM    1  O3  UNK     1      31.961 -11.723  34.734  1.00  0.00    -0.293 OA
HETATM    2  N1  UNK     1      34.004  -7.906  32.825  1.00  0.00    -0.362 N 
HETATM    3  C1  UNK     1      32.766  -8.996  35.133  1.00  0.00     0.104 C 
HETATM    4  C2  UNK     1      32.617 -11.016  31.183  1.00  0.00     0.056 C 
HETATM    5  C3  UNK     1      32.893  -9.750  33.812  1.00  0.00     0.024 C 
HETATM    6  C5  UNK     1      33.605  -9.862  31.402  1.00  0.00     0.069 C 
HETATM    7  C6  UNK     1      33.473  -9.179  32.737  1.00  0.00     0.021 C 
HETATM    8  C9  UNK     1      32.506 -11.907  32.419  1.00  0.00     0.095 C 
HETATM    9  C12 UNK     1      33.514  -7.662  35.128  1.00  0.00     0.052 C 
HETATM   10  C13 UNK     1      32.402 -11.158  33.731  1.00  0.00     0.159 C 
HETATM   11  C14 UNK     1      34.067  -7.168  33.996  1.00  0.00     0.018 C 
HETATM   12  C18 UNK     1      34.778  -5.847  33.883  1.00  0.00     0.069 C 
HETATM   13  H16 UNK     1      34.436  -7.513  31.997  1.00  0.00     0.165 HD
ENDROOT
BRANCH   3  14
HETATM   14  C15 UNK     1      31.317  -8.774  35.474  1.00  0.00     0.029 A 
HETATM   15  C19 UNK     1      30.814  -9.260  36.784  1.00  0.00     0.194 A 
HETATM   16  O6  UNK     1      31.539  -9.832  37.588  1.00  0.00    -0.287 OA
HETATM   17  C22 UNK     1      29.387  -9.017  37.067  1.00  0.00     0.049 A 
HETATM   18  C23 UNK     1      28.609  -8.361  36.114  1.00  0.00     0.089 A 
HETATM   19  C26 UNK     1      28.819  -9.437  38.274  1.00  0.00     0.025 A 
HETATM   20  O4  UNK     1      29.114  -7.927  34.915  1.00  0.00    -0.321 OA
HETATM   21  C27 UNK     1      27.256  -8.121  36.362  1.00  0.00     0.039 A 
HETATM   22  C20 UNK     1      30.445  -8.161  34.664  1.00  0.00     0.154 A 
HETATM   23  C29 UNK     1      26.687  -8.538  37.564  1.00  0.00     0.009 A 
HETATM   24  C28 UNK     1      27.466  -9.194  38.518  1.00  0.00    -0.061 A 
HETATM   25  C30 UNK     1      26.852  -9.638  39.803  1.00  0.00     0.048 C 
ENDBRANCH   3  14
BRANCH   9  26
HETATM   26  C17 UNK     1      33.650  -6.973  36.421  1.00  0.00     0.292 C 
HETATM   27  O5  UNK     1      34.378  -7.364  37.314  1.00  0.00    -0.259 OA
BRANCH  26  28
HETATM   28  O1  UNK     1      32.847  -5.881  36.410  1.00  0.00    -0.312 OA
BRANCH  28  29
HETATM   29  C4  UNK     1      32.474  -5.394  37.695  1.00  0.00     0.132 C 
HETATM   30  C7  UNK     1      31.583  -6.419  38.403  1.00  0.00     0.032 C 
HETATM   31  C10 UNK     1      30.215  -5.757  38.552  1.00  0.00     0.002 C 
HETATM   32  C11 UNK     1      30.202  -4.646  37.516  1.00  0.00     0.002 C 
HETATM   33  C8  UNK     1      31.633  -4.129  37.549  1.00  0.00     0.032 C 
ENDBRANCH  28  29
ENDBRANCH  26  28
ENDBRANCH   9  26
BRANCH   4  34
HETATM   34  C16 UNK     1      31.278 -10.528  30.623  1.00  0.00     0.057 A 
HETATM   35  O2  UNK     1      31.077 -10.752  29.305  1.00  0.00    -0.327 OA
HETATM   36  C25 UNK     1      29.847 -10.246  29.022  1.00  0.00     0.142 A 
HETATM   37  C24 UNK     1      29.275  -9.708  30.150  1.00  0.00     0.027 A 
HETATM   38  C21 UNK     1      30.213  -9.892  31.194  1.00  0.00     0.035 A 
ENDBRANCH   4  34
TORSDOF 5
ENDMDL
