MODEL 1
REMARK VINA RESULT:      -9.3      0.000      0.000
REMARK  5 active torsions:
REMARK  status: ('A' for Active; 'I' for Inactive)
REMARK    1  A    between atoms: C13_21  and  O1_3 
REMARK    2  A    between atoms: C25_33  and  O1_3 
REMARK       I    between atoms: C17_25  and  N1_8 
REMARK    3  A    between atoms: C6_14  and  N1_8 
REMARK    4  A    between atoms: C13_21  and  C4_12 
REMARK    5  A    between atoms: C16_24  and  C17_25 
ROOT
HETATM    1  S1  UNK     1      19.527  -3.217  36.891  1.00  0.00    -0.082 SA
HETATM    2  C1  UNK     1      20.077  -6.913  38.150  1.00  0.00    -0.013 A 
HETATM    3  C2  UNK     1      19.946  -5.703  37.380  1.00  0.00     0.001 A 
HETATM    4  C3  UNK     1      21.300  -7.323  38.711  1.00  0.00    -0.015 A 
HETATM    5  C4  UNK     1      20.106  -5.545  35.973  1.00  0.00     0.085 A 
HETATM    6  C5  UNK     1      21.353  -8.525  39.455  1.00  0.00    -0.025 A 
HETATM    7  C6  UNK     1      19.904  -4.255  35.599  1.00  0.00     0.094 A 
HETATM    8  C7  UNK     1      18.924  -7.682  38.325  1.00  0.00     0.013 A 
HETATM    9  C8  UNK     1      19.629  -4.516  38.002  1.00  0.00     0.065 A 
HETATM   10  C9  UNK     1      22.469  -6.564  38.546  1.00  0.00     0.013 A 
HETATM   11  C10 UNK     1      20.183  -9.283  39.619  1.00  0.00     0.012 A 
HETATM   12  C11 UNK     1      18.977  -8.864  39.058  1.00  0.00     0.002 A 
HETATM   13  C12 UNK     1      22.576  -8.932  40.014  1.00  0.00     0.012 A 
HETATM   14  C14 UNK     1      23.676  -6.985  39.108  1.00  0.00     0.001 A 
HETATM   15  C15 UNK     1      23.729  -8.166  39.840  1.00  0.00     0.001 A 
ENDROOT
BRANCH   7  16
HETATM   16  N1  UNK     1      19.959  -3.657  34.336  1.00  0.00    -0.316 N 
HETATM   17  C17 UNK     1      20.853  -2.675  33.935  1.00  0.00     0.262 C 
HETATM   18  O4  UNK     1      21.753  -2.145  34.583  1.00  0.00    -0.267 OA
HETATM   19  H7  UNK     1      19.250  -3.985  33.687  1.00  0.00     0.169 HD
BRANCH  17  20
HETATM   20  C16 UNK     1      20.631  -2.270  32.541  1.00  0.00     0.108 A 
HETATM   21  C19 UNK     1      20.049  -1.079  32.357  1.00  0.00     0.037 A 
HETATM   22  C18 UNK     1      19.787  -0.590  31.013  1.00  0.00     0.000 A 
HETATM   23  C20 UNK     1      20.151  -1.381  29.927  1.00  0.00     0.089 A 
HETATM   24  C22 UNK     1      19.182   0.646  30.773  1.00  0.00     0.033 A 
HETATM   25  O2  UNK     1      20.763  -2.634  30.127  1.00  0.00    -0.274 OA
HETATM   26  C23 UNK     1      19.927  -0.971  28.613  1.00  0.00     0.039 A 
HETATM   27  C21 UNK     1      21.026  -3.127  31.402  1.00  0.00     0.304 A 
HETATM   28  O5  UNK     1      21.560  -4.219  31.567  1.00  0.00    -0.259 OA
HETATM   29  C26 UNK     1      19.323   0.262  28.384  1.00  0.00     0.022 A 
HETATM   30  C24 UNK     1      18.951   1.070  29.461  1.00  0.00     0.011 A 
HETATM   31 Br1  UNK     1      18.133   2.744  29.143  1.00  0.00    -0.051 Br
ENDBRANCH  17  20
ENDBRANCH   7  16
BRANCH   5  32
HETATM   32  C13 UNK     1      20.437  -6.596  35.042  1.00  0.00     0.297 C 
HETATM   33  O3  UNK     1      19.865  -6.761  33.956  1.00  0.00    -0.259 OA
BRANCH  32  34
HETATM   34  O1  UNK     1      21.459  -7.417  35.467  1.00  0.00    -0.318 OA
BRANCH  34  35
HETATM   35  C25 UNK     1      21.308  -8.819  35.217  1.00  0.00     0.174 C 
HETATM   36  C27 UNK     1      22.326  -9.579  36.041  1.00  0.00     0.034 C 
ENDBRANCH  34  35
ENDBRANCH  32  34
ENDBRANCH   5  32
TORSDOF 5
ENDMDL
MODEL 2
REMARK VINA RESULT:      -9.1      2.360      3.559
REMARK  5 active torsions:
REMARK  status: ('A' for Active; 'I' for Inactive)
REMARK    1  A    between atoms: C13_21  and  O1_3 
REMARK    2  A    between atoms: C25_33  and  O1_3 
REMARK       I    between atoms: C17_25  and  N1_8 
REMARK    3  A    between atoms: C6_14  and  N1_8 
REMARK    4  A    between atoms: C13_21  and  C4_12 
REMARK    5  A    between atoms: C16_24  and  C17_25 
ROOT
HETATM    1  S1  UNK     1      21.292  -4.550  37.924  1.00  0.00    -0.082 SA
HETATM    2  C1  UNK     1      20.239  -8.343  37.679  1.00  0.00    -0.013 A 
HETATM    3  C2  UNK     1      20.423  -6.927  37.486  1.00  0.00     0.001 A 
HETATM    4  C3  UNK     1      21.080  -9.301  37.087  1.00  0.00    -0.015 A 
HETATM    5  C4  UNK     1      19.859  -6.107  36.467  1.00  0.00     0.085 A 
HETATM    6  C5  UNK     1      20.838 -10.676  37.320  1.00  0.00    -0.025 A 
HETATM    7  C6  UNK     1      20.256  -4.815  36.603  1.00  0.00     0.094 A 
HETATM    8  C7  UNK     1      19.173  -8.739  38.490  1.00  0.00     0.013 A 
HETATM    9  C8  UNK     1      21.222  -6.208  38.347  1.00  0.00     0.065 A 
HETATM   10  C9  UNK     1      22.156  -8.923  36.268  1.00  0.00     0.013 A 
HETATM   11  C10 UNK     1      19.762 -11.054  38.139  1.00  0.00     0.012 A 
HETATM   12  C11 UNK     1      18.936 -10.091  38.720  1.00  0.00     0.002 A 
HETATM   13  C12 UNK     1      21.680 -11.632  36.729  1.00  0.00     0.012 A 
HETATM   14  C14 UNK     1      22.982  -9.887  35.688  1.00  0.00     0.001 A 
HETATM   15  C15 UNK     1      22.744 -11.238  35.917  1.00  0.00     0.001 A 
ENDROOT
BRANCH   7  16
HETATM   16  N1  UNK     1      19.950  -3.686  35.837  1.00  0.00    -0.316 N 
HETATM   17  C17 UNK     1      19.277  -2.557  36.278  1.00  0.00     0.262 C 
HETATM   18  O4  UNK     1      18.825  -2.319  37.397  1.00  0.00    -0.267 OA
HETATM   19  H7  UNK     1      20.249  -3.746  34.867  1.00  0.00     0.169 HD
BRANCH  17  20
HETATM   20  C16 UNK     1      19.124  -1.559  35.211  1.00  0.00     0.108 A 
HETATM   21  C19 UNK     1      19.548  -1.925  33.995  1.00  0.00     0.037 A 
HETATM   22  C18 UNK     1      19.440  -1.005  32.874  1.00  0.00     0.000 A 
HETATM   23  C20 UNK     1      18.889   0.255  33.087  1.00  0.00     0.089 A 
HETATM   24  C22 UNK     1      19.869  -1.344  31.587  1.00  0.00     0.033 A 
HETATM   25  O2  UNK     1      18.444   0.633  34.369  1.00  0.00    -0.274 OA
HETATM   26  C23 UNK     1      18.757   1.182  32.055  1.00  0.00     0.039 A 
HETATM   27  C21 UNK     1      18.536  -0.225  35.461  1.00  0.00     0.304 A 
HETATM   28  O5  UNK     1      18.145   0.113  36.574  1.00  0.00    -0.259 OA
HETATM   29  C26 UNK     1      19.188   0.837  30.777  1.00  0.00     0.022 A 
HETATM   30  C24 UNK     1      19.743  -0.423  30.543  1.00  0.00     0.011 A 
HETATM   31 Br1  UNK     1      20.326  -0.886  28.805  1.00  0.00    -0.051 Br
ENDBRANCH  17  20
ENDBRANCH   7  16
BRANCH   5  32
HETATM   32  C13 UNK     1      18.979  -6.558  35.416  1.00  0.00     0.297 C 
HETATM   33  O3  UNK     1      19.365  -6.892  34.288  1.00  0.00    -0.259 OA
BRANCH  32  34
HETATM   34  O1  UNK     1      17.650  -6.587  35.777  1.00  0.00    -0.318 OA
BRANCH  34  35
HETATM   35  C25 UNK     1      16.826  -7.562  35.128  1.00  0.00     0.174 C 
HETATM   36  C27 UNK     1      15.441  -6.983  34.929  1.00  0.00     0.034 C 
ENDBRANCH  34  35
ENDBRANCH  32  34
ENDBRANCH   5  32
TORSDOF 5
ENDMDL
MODEL 3
REMARK VINA RESULT:      -8.9      8.288     11.657
REMARK  5 active torsions:
REMARK  status: ('A' for Active; 'I' for Inactive)
REMARK    1  A    between atoms: C13_21  and  O1_3 
REMARK    2  A    between atoms: C25_33  and  O1_3 
REMARK       I    between atoms: C17_25  and  N1_8 
REMARK    3  A    between atoms: C6_14  and  N1_8 
REMARK    4  A    between atoms: C13_21  and  C4_12 
REMARK    5  A    between atoms: C16_24  and  C17_25 
ROOT
HETATM    1  S1  UNK     1      29.757  -9.648  38.473  1.00  0.00    -0.082 SA
HETATM    2  C1  UNK     1      32.291  -8.934  35.536  1.00  0.00    -0.013 A 
HETATM    3  C2  UNK     1      31.171  -8.960  36.442  1.00  0.00     0.001 A 
HETATM    4  C3  UNK     1      33.375  -8.053  35.701  1.00  0.00    -0.015 A 
HETATM    5  C4  UNK     1      29.965  -8.206  36.357  1.00  0.00     0.085 A 
HETATM    6  C5  UNK     1      34.440  -8.083  34.770  1.00  0.00    -0.025 A 
HETATM    7  C6  UNK     1      29.133  -8.495  37.392  1.00  0.00     0.094 A 
HETATM    8  C7  UNK     1      32.263  -9.831  34.467  1.00  0.00     0.013 A 
HETATM    9  C8  UNK     1      31.189  -9.785  37.545  1.00  0.00     0.065 A 
HETATM   10  C9  UNK     1      33.421  -7.143  36.769  1.00  0.00     0.013 A 
HETATM   11  C10 UNK     1      34.393  -8.994  33.702  1.00  0.00     0.012 A 
HETATM   12  C11 UNK     1      33.311  -9.862  33.553  1.00  0.00     0.002 A 
HETATM   13  C12 UNK     1      35.522  -7.203  34.936  1.00  0.00     0.012 A 
HETATM   14  C14 UNK     1      34.504  -6.275  36.918  1.00  0.00     0.001 A 
HETATM   15  C15 UNK     1      35.552  -6.305  36.003  1.00  0.00     0.001 A 
ENDROOT
BRANCH   7  16
HETATM   16  N1  UNK     1      27.864  -7.996  37.702  1.00  0.00    -0.316 N 
HETATM   17  C17 UNK     1      27.508  -7.337  38.869  1.00  0.00     0.262 C 
HETATM   18  O4  UNK     1      28.209  -7.063  39.842  1.00  0.00    -0.267 OA
HETATM   19  H7  UNK     1      27.161  -8.169  36.989  1.00  0.00     0.169 HD
BRANCH  17  20
HETATM   20  C16 UNK     1      26.092  -6.949  38.867  1.00  0.00     0.108 A 
HETATM   21  C19 UNK     1      25.204  -7.950  38.895  1.00  0.00     0.037 A 
HETATM   22  C18 UNK     1      23.778  -7.665  38.895  1.00  0.00     0.000 A 
HETATM   23  C20 UNK     1      23.355  -6.340  38.866  1.00  0.00     0.089 A 
HETATM   24  C22 UNK     1      22.815  -8.678  38.922  1.00  0.00     0.033 A 
HETATM   25  O2  UNK     1      24.296  -5.290  38.838  1.00  0.00    -0.274 OA
HETATM   26  C23 UNK     1      22.004  -5.999  38.864  1.00  0.00     0.039 A 
HETATM   27  C21 UNK     1      25.666  -5.532  38.837  1.00  0.00     0.304 A 
HETATM   28  O5  UNK     1      26.477  -4.612  38.812  1.00  0.00    -0.259 OA
HETATM   29  C26 UNK     1      21.052  -7.015  38.892  1.00  0.00     0.022 A 
HETATM   30  C24 UNK     1      21.456  -8.351  38.921  1.00  0.00     0.011 A 
HETATM   31 Br1  UNK     1      20.158  -9.726  38.958  1.00  0.00    -0.051 Br
ENDBRANCH  17  20
ENDBRANCH   7  16
BRANCH   5  32
HETATM   32  C13 UNK     1      29.639  -7.256  35.321  1.00  0.00     0.297 C 
HETATM   33  O3  UNK     1      29.598  -7.537  34.115  1.00  0.00    -0.259 OA
BRANCH  32  34
HETATM   34  O1  UNK     1      29.373  -5.988  35.791  1.00  0.00    -0.318 OA
BRANCH  34  35
HETATM   35  C25 UNK     1      30.440  -5.314  36.467  1.00  0.00     0.174 C 
HETATM   36  C27 UNK     1      29.894  -4.655  37.716  1.00  0.00     0.034 C 
ENDBRANCH  34  35
ENDBRANCH  32  34
ENDBRANCH   5  32
TORSDOF 5
ENDMDL
MODEL 4
REMARK VINA RESULT:      -8.8     28.637     32.247
REMARK  5 active torsions:
REMARK  status: ('A' for Active; 'I' for Inactive)
REMARK    1  A    between atoms: C13_21  and  O1_3 
REMARK    2  A    between atoms: C25_33  and  O1_3 
REMARK       I    between atoms: C17_25  and  N1_8 
REMARK    3  A    between atoms: C6_14  and  N1_8 
REMARK    4  A    between atoms: C13_21  and  C4_12 
REMARK    5  A    between atoms: C16_24  and  C17_25 
ROOT
HETATM    1  S1  UNK     1      15.168  13.224   7.655  1.00  0.00    -0.082 SA
HETATM    2  C1  UNK     1      19.007  14.111   7.473  1.00  0.00    -0.013 A 
HETATM    3  C2  UNK     1      17.725  13.475   7.634  1.00  0.00     0.001 A 
HETATM    4  C3  UNK     1      19.703  14.108   6.252  1.00  0.00    -0.015 A 
HETATM    5  C4  UNK     1      17.463  12.130   8.026  1.00  0.00     0.085 A 
HETATM    6  C5  UNK     1      20.960  14.754   6.169  1.00  0.00    -0.025 A 
HETATM    7  C6  UNK     1      16.127  11.885   8.071  1.00  0.00     0.094 A 
HETATM    8  C7  UNK     1      19.546  14.743   8.596  1.00  0.00     0.013 A 
HETATM    9  C8  UNK     1      16.566  14.181   7.402  1.00  0.00     0.065 A 
HETATM   10  C9  UNK     1      19.178  13.478   5.113  1.00  0.00     0.013 A 
HETATM   11  C10 UNK     1      21.485  15.384   7.308  1.00  0.00     0.012 A 
HETATM   12  C11 UNK     1      20.782  15.379   8.513  1.00  0.00     0.002 A 
HETATM   13  C12 UNK     1      21.654  14.750   4.948  1.00  0.00     0.012 A 
HETATM   14  C14 UNK     1      19.882  13.484   3.908  1.00  0.00     0.001 A 
HETATM   15  C15 UNK     1      21.117  14.118   3.825  1.00  0.00     0.001 A 
ENDROOT
BRANCH   7  16
HETATM   16  N1  UNK     1      15.430  10.718   8.401  1.00  0.00    -0.316 N 
HETATM   17  C17 UNK     1      15.045  10.329   9.676  1.00  0.00     0.262 C 
HETATM   18  O4  UNK     1      15.230  10.909  10.745  1.00  0.00    -0.267 OA
HETATM   19  H7  UNK     1      15.221  10.118   7.609  1.00  0.00     0.169 HD
BRANCH  17  20
HETATM   20  C16 UNK     1      14.329   9.048   9.663  1.00  0.00     0.108 A 
HETATM   21  C19 UNK     1      13.311   8.948   8.800  1.00  0.00     0.037 A 
HETATM   22  C18 UNK     1      12.540   7.718   8.714  1.00  0.00     0.000 A 
HETATM   23  C20 UNK     1      12.879   6.652   9.541  1.00  0.00     0.089 A 
HETATM   24  C22 UNK     1      11.469   7.569   7.828  1.00  0.00     0.033 A 
HETATM   25  O2  UNK     1      13.953   6.763  10.448  1.00  0.00    -0.274 OA
HETATM   26  C23 UNK     1      12.181   5.446   9.509  1.00  0.00     0.039 A 
HETATM   27  C21 UNK     1      14.707   7.927  10.552  1.00  0.00     0.304 A 
HETATM   28  O5  UNK     1      15.641   8.015  11.344  1.00  0.00    -0.259 OA
HETATM   29  C26 UNK     1      11.115   5.306   8.623  1.00  0.00     0.022 A 
HETATM   30  C24 UNK     1      10.760   6.365   7.785  1.00  0.00     0.011 A 
HETATM   31 Br1  UNK     1       9.312   6.169   6.584  1.00  0.00    -0.051 Br
ENDBRANCH  17  20
ENDBRANCH   7  16
BRANCH   5  32
HETATM   32  C13 UNK     1      18.461  11.138   8.341  1.00  0.00     0.297 C 
HETATM   33  O3  UNK     1      19.254  10.669   7.513  1.00  0.00    -0.259 OA
BRANCH  32  34
HETATM   34  O1  UNK     1      18.461  10.746   9.662  1.00  0.00    -0.318 OA
BRANCH  34  35
HETATM   35  C25 UNK     1      18.906  11.712  10.621  1.00  0.00     0.174 C 
HETATM   36  C27 UNK     1      20.417  11.795  10.572  1.00  0.00     0.034 C 
ENDBRANCH  34  35
ENDBRANCH  32  34
ENDBRANCH   5  32
TORSDOF 5
ENDMDL
MODEL 5
REMARK VINA RESULT:      -8.7      7.675     11.096
REMARK  5 active torsions:
REMARK  status: ('A' for Active; 'I' for Inactive)
REMARK    1  A    between atoms: C13_21  and  O1_3 
REMARK    2  A    between atoms: C25_33  and  O1_3 
REMARK       I    between atoms: C17_25  and  N1_8 
REMARK    3  A    between atoms: C6_14  and  N1_8 
REMARK    4  A    between atoms: C13_21  and  C4_12 
REMARK    5  A    between atoms: C16_24  and  C17_25 
ROOT
HETATM    1  S1  UNK     1      28.381  -5.867  38.855  1.00  0.00    -0.082 SA
HETATM    2  C1  UNK     1      32.018  -6.517  37.474  1.00  0.00    -0.013 A 
HETATM    3  C2  UNK     1      30.605  -6.532  37.754  1.00  0.00     0.001 A 
HETATM    4  C3  UNK     1      32.582  -5.698  36.479  1.00  0.00    -0.015 A 
HETATM    5  C4  UNK     1      29.609  -7.363  37.165  1.00  0.00     0.085 A 
HETATM    6  C5  UNK     1      33.980  -5.738  36.259  1.00  0.00    -0.025 A 
HETATM    7  C6  UNK     1      28.381  -7.095  37.680  1.00  0.00     0.094 A 
HETATM    8  C7  UNK     1      32.825  -7.362  38.239  1.00  0.00     0.013 A 
HETATM    9  C8  UNK     1      30.075  -5.671  38.690  1.00  0.00     0.065 A 
HETATM   10  C9  UNK     1      31.787  -4.843  35.700  1.00  0.00     0.013 A 
HETATM   11  C10 UNK     1      34.773  -6.593  37.039  1.00  0.00     0.012 A 
HETATM   12  C11 UNK     1      34.199  -7.399  38.022  1.00  0.00     0.002 A 
HETATM   13  C12 UNK     1      34.541  -4.919  35.266  1.00  0.00     0.012 A 
HETATM   14  C14 UNK     1      32.363  -4.037  34.717  1.00  0.00     0.001 A 
HETATM   15  C15 UNK     1      33.736  -4.075  34.500  1.00  0.00     0.001 A 
ENDROOT
BRANCH   7  16
HETATM   16  N1  UNK     1      27.135  -7.662  37.396  1.00  0.00    -0.316 N 
HETATM   17  C17 UNK     1      26.384  -8.455  38.252  1.00  0.00     0.262 C 
HETATM   18  O4  UNK     1      26.647  -8.810  39.399  1.00  0.00    -0.267 OA
HETATM   19  H7  UNK     1      26.791  -7.469  36.460  1.00  0.00     0.169 HD
BRANCH  17  20
HETATM   20  C16 UNK     1      25.123  -8.884  37.634  1.00  0.00     0.108 A 
HETATM   21  C19 UNK     1      24.028  -8.202  37.989  1.00  0.00     0.037 A 
HETATM   22  C18 UNK     1      22.731  -8.554  37.431  1.00  0.00     0.000 A 
HETATM   23  C20 UNK     1      22.652  -9.606  36.524  1.00  0.00     0.089 A 
HETATM   24  C22 UNK     1      21.562  -7.870  37.774  1.00  0.00     0.033 A 
HETATM   25  O2  UNK     1      23.810 -10.320  36.153  1.00  0.00    -0.274 OA
HETATM   26  C23 UNK     1      21.441  -9.993  35.953  1.00  0.00     0.039 A 
HETATM   27  C21 UNK     1      25.062 -10.006  36.672  1.00  0.00     0.304 A 
HETATM   28  O5  UNK     1      26.065 -10.633  36.342  1.00  0.00    -0.259 OA
HETATM   29  C26 UNK     1      20.280  -9.307  36.300  1.00  0.00     0.022 A 
HETATM   30  C24 UNK     1      20.340  -8.248  37.208  1.00  0.00     0.011 A 
HETATM   31 Br1  UNK     1      18.760  -7.319  37.676  1.00  0.00    -0.051 Br
ENDBRANCH  17  20
ENDBRANCH   7  16
BRANCH   5  32
HETATM   32  C13 UNK     1      29.843  -8.367  36.156  1.00  0.00     0.297 C 
HETATM   33  O3  UNK     1      29.675  -9.580  36.338  1.00  0.00    -0.259 OA
BRANCH  32  34
HETATM   34  O1  UNK     1      30.276  -7.856  34.951  1.00  0.00    -0.318 OA
BRANCH  34  35
HETATM   35  C25 UNK     1      31.021  -8.740  34.106  1.00  0.00     0.174 C 
HETATM   36  C27 UNK     1      32.472  -8.727  34.538  1.00  0.00     0.034 C 
ENDBRANCH  34  35
ENDBRANCH  32  34
ENDBRANCH   5  32
TORSDOF 5
ENDMDL
MODEL 6
REMARK VINA RESULT:      -8.7     18.056     22.796
REMARK  5 active torsions:
REMARK  status: ('A' for Active; 'I' for Inactive)
REMARK    1  A    between atoms: C13_21  and  O1_3 
REMARK    2  A    between atoms: C25_33  and  O1_3 
REMARK       I    between atoms: C17_25  and  N1_8 
REMARK    3  A    between atoms: C6_14  and  N1_8 
REMARK    4  A    between atoms: C13_21  and  C4_12 
REMARK    5  A    between atoms: C16_24  and  C17_25 
ROOT
HETATM    1  S1  UNK     1      19.390  -5.864  14.650  1.00  0.00    -0.082 SA
HETATM    2  C1  UNK     1      19.409  -7.002  10.873  1.00  0.00    -0.013 A 
HETATM    3  C2  UNK     1      19.399  -6.268  12.113  1.00  0.00     0.001 A 
HETATM    4  C3  UNK     1      20.600  -7.372  10.225  1.00  0.00    -0.015 A 
HETATM    5  C4  UNK     1      19.381  -4.855  12.287  1.00  0.00     0.085 A 
HETATM    6  C5  UNK     1      20.533  -8.092   9.008  1.00  0.00    -0.025 A 
HETATM    7  C6  UNK     1      19.374  -4.524  13.605  1.00  0.00     0.094 A 
HETATM    8  C7  UNK     1      18.169  -7.340  10.327  1.00  0.00     0.013 A 
HETATM    9  C8  UNK     1      19.405  -6.938  13.316  1.00  0.00     0.065 A 
HETATM   10  C9  UNK     1      21.856  -7.041  10.759  1.00  0.00     0.013 A 
HETATM   11  C10 UNK     1      19.276  -8.422   8.475  1.00  0.00     0.012 A 
HETATM   12  C11 UNK     1      18.103  -8.049   9.131  1.00  0.00     0.002 A 
HETATM   13  C12 UNK     1      21.724  -8.460   8.362  1.00  0.00     0.012 A 
HETATM   14  C14 UNK     1      23.029  -7.415  10.102  1.00  0.00     0.001 A 
HETATM   15  C15 UNK     1      22.963  -8.123   8.906  1.00  0.00     0.001 A 
ENDROOT
BRANCH   7  16
HETATM   16  N1  UNK     1      19.358  -3.271  14.226  1.00  0.00    -0.316 N 
HETATM   17  C17 UNK     1      18.467  -2.855  15.204  1.00  0.00     0.262 C 
HETATM   18  O4  UNK     1      17.537  -3.480  15.713  1.00  0.00    -0.267 OA
HETATM   19  H7  UNK     1      20.069  -2.628  13.889  1.00  0.00     0.169 HD
BRANCH  17  20
HETATM   20  C16 UNK     1      18.735  -1.478  15.638  1.00  0.00     0.108 A 
HETATM   21  C19 UNK     1      18.705  -1.258  16.958  1.00  0.00     0.037 A 
HETATM   22  C18 UNK     1      18.957   0.074  17.484  1.00  0.00     0.000 A 
HETATM   23  C20 UNK     1      19.229   1.110  16.595  1.00  0.00     0.089 A 
HETATM   24  C22 UNK     1      18.936   0.351  18.854  1.00  0.00     0.033 A 
HETATM   25  O2  UNK     1      19.259   0.871  15.206  1.00  0.00    -0.274 OA
HETATM   26  C23 UNK     1      19.479   2.408  17.035  1.00  0.00     0.039 A 
HETATM   27  C21 UNK     1      19.021  -0.393  14.674  1.00  0.00     0.304 A 
HETATM   28  O5  UNK     1      19.050  -0.592  13.464  1.00  0.00    -0.259 OA
HETATM   29  C26 UNK     1      19.456   2.675  18.401  1.00  0.00     0.022 A 
HETATM   30  C24 UNK     1      19.185   1.649  19.309  1.00  0.00     0.011 A 
HETATM   31 Br1  UNK     1      19.156   2.018  21.164  1.00  0.00    -0.051 Br
ENDBRANCH  17  20
ENDBRANCH   7  16
BRANCH   5  32
HETATM   32  C13 UNK     1      19.370  -3.877  11.226  1.00  0.00     0.297 C 
HETATM   33  O3  UNK     1      18.376  -3.623  10.533  1.00  0.00    -0.259 OA
BRANCH  32  34
HETATM   34  O1  UNK     1      20.577  -3.238  11.044  1.00  0.00    -0.318 OA
BRANCH  34  35
HETATM   35  C25 UNK     1      20.890  -2.817   9.712  1.00  0.00     0.174 C 
HETATM   36  C27 UNK     1      21.656  -3.920   9.013  1.00  0.00     0.034 C 
ENDBRANCH  34  35
ENDBRANCH  32  34
ENDBRANCH   5  32
TORSDOF 5
ENDMDL
MODEL 7
REMARK VINA RESULT:      -8.7      6.223     11.968
REMARK  5 active torsions:
REMARK  status: ('A' for Active; 'I' for Inactive)
REMARK    1  A    between atoms: C13_21  and  O1_3 
REMARK    2  A    between atoms: C25_33  and  O1_3 
REMARK       I    between atoms: C17_25  and  N1_8 
REMARK    3  A    between atoms: C6_14  and  N1_8 
REMARK    4  A    between atoms: C13_21  and  C4_12 
REMARK    5  A    between atoms: C16_24  and  C17_25 
ROOT
HETATM    1  S1  UNK     1      19.137   5.011  29.582  1.00  0.00    -0.082 SA
HETATM    2  C1  UNK     1      17.549   7.354  32.328  1.00  0.00    -0.013 A 
HETATM    3  C2  UNK     1      18.102   6.258  31.575  1.00  0.00     0.001 A 
HETATM    4  C3  UNK     1      18.345   8.209  33.113  1.00  0.00    -0.015 A 
HETATM    5  C4  UNK     1      18.294   4.914  32.006  1.00  0.00     0.085 A 
HETATM    6  C5  UNK     1      17.731   9.265  33.827  1.00  0.00    -0.025 A 
HETATM    7  C6  UNK     1      18.841   4.157  31.020  1.00  0.00     0.094 A 
HETATM    8  C7  UNK     1      16.168   7.543  32.252  1.00  0.00     0.013 A 
HETATM    9  C8  UNK     1      18.518   6.449  30.276  1.00  0.00     0.065 A 
HETATM   10  C9  UNK     1      19.735   8.034  33.202  1.00  0.00     0.013 A 
HETATM   11  C10 UNK     1      16.341   9.438  33.737  1.00  0.00     0.012 A 
HETATM   12  C11 UNK     1      15.565   8.583  32.954  1.00  0.00     0.002 A 
HETATM   13  C12 UNK     1      18.527  10.117  34.610  1.00  0.00     0.012 A 
HETATM   14  C14 UNK     1      20.510   8.891  33.986  1.00  0.00     0.001 A 
HETATM   15  C15 UNK     1      19.908   9.930  34.688  1.00  0.00     0.001 A 
ENDROOT
BRANCH   7  16
HETATM   16  N1  UNK     1      19.195   2.804  31.006  1.00  0.00    -0.316 N 
HETATM   17  C17 UNK     1      18.590   1.809  30.252  1.00  0.00     0.262 C 
HETATM   18  O4  UNK     1      17.649   1.906  29.465  1.00  0.00    -0.267 OA
HETATM   19  H7  UNK     1      19.957   2.564  31.633  1.00  0.00     0.169 HD
BRANCH  17  20
HETATM   20  C16 UNK     1      19.211   0.498  30.478  1.00  0.00     0.108 A 
HETATM   21  C19 UNK     1      19.196   0.046  31.737  1.00  0.00     0.037 A 
HETATM   22  C18 UNK     1      19.788  -1.243  32.061  1.00  0.00     0.000 A 
HETATM   23  C20 UNK     1      20.366  -1.993  31.042  1.00  0.00     0.089 A 
HETATM   24  C22 UNK     1      19.796  -1.754  33.362  1.00  0.00     0.033 A 
HETATM   25  O2  UNK     1      20.377  -1.512  29.717  1.00  0.00    -0.274 OA
HETATM   26  C23 UNK     1      20.949  -3.235  31.285  1.00  0.00     0.039 A 
HETATM   27  C21 UNK     1      19.820  -0.283  29.379  1.00  0.00     0.304 A 
HETATM   28  O5  UNK     1      19.834   0.128  28.222  1.00  0.00    -0.259 OA
HETATM   29  C26 UNK     1      20.953  -3.737  32.584  1.00  0.00     0.022 A 
HETATM   30  C24 UNK     1      20.378  -2.999  33.620  1.00  0.00     0.011 A 
HETATM   31 Br1  UNK     1      20.385  -3.686  35.382  1.00  0.00    -0.051 Br
ENDBRANCH  17  20
ENDBRANCH   7  16
BRANCH   5  32
HETATM   32  C13 UNK     1      17.959   4.395  33.310  1.00  0.00     0.297 C 
HETATM   33  O3  UNK     1      17.834   5.098  34.322  1.00  0.00    -0.259 OA
BRANCH  32  34
HETATM   34  O1  UNK     1      17.788   3.028  33.338  1.00  0.00    -0.318 OA
BRANCH  34  35
HETATM   35  C25 UNK     1      18.249   2.344  34.509  1.00  0.00     0.174 C 
HETATM   36  C27 UNK     1      17.415   1.096  34.711  1.00  0.00     0.034 C 
ENDBRANCH  34  35
ENDBRANCH  32  34
ENDBRANCH   5  32
TORSDOF 5
ENDMDL
MODEL 8
REMARK VINA RESULT:      -8.7      9.050     14.438
REMARK  5 active torsions:
REMARK  status: ('A' for Active; 'I' for Inactive)
REMARK    1  A    between atoms: C13_21  and  O1_3 
REMARK    2  A    between atoms: C25_33  and  O1_3 
REMARK       I    between atoms: C17_25  and  N1_8 
REMARK    3  A    between atoms: C6_14  and  N1_8 
REMARK    4  A    between atoms: C13_21  and  C4_12 
REMARK    5  A    between atoms: C16_24  and  C17_25 
ROOT
HETATM    1  S1  UNK     1      15.573   7.710  31.407  1.00  0.00    -0.082 SA
HETATM    2  C1  UNK     1      15.553  10.271  34.406  1.00  0.00    -0.013 A 
HETATM    3  C2  UNK     1      15.726   9.134  33.539  1.00  0.00     0.001 A 
HETATM    4  C3  UNK     1      16.501  11.306  34.493  1.00  0.00    -0.015 A 
HETATM    5  C4  UNK     1      16.357   7.894  33.846  1.00  0.00     0.085 A 
HETATM    6  C5  UNK     1      16.263  12.392  35.368  1.00  0.00    -0.025 A 
HETATM    7  C6  UNK     1      16.333   7.055  32.778  1.00  0.00     0.094 A 
HETATM    8  C7  UNK     1      14.386  10.312  35.172  1.00  0.00     0.013 A 
HETATM    9  C8  UNK     1      15.254   9.168  32.246  1.00  0.00     0.065 A 
HETATM   10  C9  UNK     1      17.680  11.282  33.731  1.00  0.00     0.013 A 
HETATM   11  C10 UNK     1      15.084  12.415  36.130  1.00  0.00     0.012 A 
HETATM   12  C11 UNK     1      14.152  11.381  36.032  1.00  0.00     0.002 A 
HETATM   13  C12 UNK     1      17.211  13.425  35.454  1.00  0.00     0.012 A 
HETATM   14  C14 UNK     1      18.611  12.317  33.830  1.00  0.00     0.001 A 
HETATM   15  C15 UNK     1      18.378  13.385  34.690  1.00  0.00     0.001 A 
ENDROOT
BRANCH   7  16
HETATM   16  N1  UNK     1      16.830   5.755  32.634  1.00  0.00    -0.316 N 
HETATM   17  C17 UNK     1      17.993   5.395  31.970  1.00  0.00     0.262 C 
HETATM   18  O4  UNK     1      18.803   6.117  31.391  1.00  0.00    -0.267 OA
HETATM   19  H7  UNK     1      16.246   5.036  33.051  1.00  0.00     0.169 HD
BRANCH  17  20
HETATM   20  C16 UNK     1      18.217   3.944  32.010  1.00  0.00     0.108 A 
HETATM   21  C19 UNK     1      18.080   3.357  33.204  1.00  0.00     0.037 A 
HETATM   22  C18 UNK     1      18.282   1.923  33.344  1.00  0.00     0.000 A 
HETATM   23  C20 UNK     1      18.619   1.178  32.219  1.00  0.00     0.089 A 
HETATM   24  C22 UNK     1      18.150   1.268  34.571  1.00  0.00     0.033 A 
HETATM   25  O2  UNK     1      18.761   1.802  30.963  1.00  0.00    -0.274 OA
HETATM   26  C23 UNK     1      18.827  -0.199  32.285  1.00  0.00     0.039 A 
HETATM   27  C21 UNK     1      18.574   3.172  30.799  1.00  0.00     0.304 A 
HETATM   28  O5  UNK     1      18.700   3.706  29.702  1.00  0.00    -0.259 OA
HETATM   29  C26 UNK     1      18.693  -0.844  33.512  1.00  0.00     0.022 A 
HETATM   30  C24 UNK     1      18.356  -0.113  34.653  1.00  0.00     0.011 A 
HETATM   31 Br1  UNK     1      18.175  -0.994  36.316  1.00  0.00    -0.051 Br
ENDBRANCH  17  20
ENDBRANCH   7  16
BRANCH   5  32
HETATM   32  C13 UNK     1      16.952   7.545  35.114  1.00  0.00     0.297 C 
HETATM   33  O3  UNK     1      16.370   7.654  36.202  1.00  0.00    -0.259 OA
BRANCH  32  34
HETATM   34  O1  UNK     1      18.242   7.072  35.013  1.00  0.00    -0.318 OA
BRANCH  34  35
HETATM   35  C25 UNK     1      19.294   8.035  35.139  1.00  0.00     0.174 C 
HETATM   36  C27 UNK     1      20.078   8.081  33.844  1.00  0.00     0.034 C 
ENDBRANCH  34  35
ENDBRANCH  32  34
ENDBRANCH   5  32
TORSDOF 5
ENDMDL
MODEL 9
REMARK VINA RESULT:      -8.6     12.419     14.739
REMARK  5 active torsions:
REMARK  status: ('A' for Active; 'I' for Inactive)
REMARK    1  A    between atoms: C13_21  and  O1_3 
REMARK    2  A    between atoms: C25_33  and  O1_3 
REMARK       I    between atoms: C17_25  and  N1_8 
REMARK    3  A    between atoms: C6_14  and  N1_8 
REMARK    4  A    between atoms: C13_21  and  C4_12 
REMARK    5  A    between atoms: C16_24  and  C17_25 
ROOT
HETATM    1  S1  UNK     1      30.779  -7.216  32.444  1.00  0.00    -0.082 SA
HETATM    2  C1  UNK     1      29.537  -7.432  36.181  1.00  0.00    -0.013 A 
HETATM    3  C2  UNK     1      30.268  -7.520  34.943  1.00  0.00     0.001 A 
HETATM    4  C3  UNK     1      29.672  -6.346  37.063  1.00  0.00    -0.015 A 
HETATM    5  C4  UNK     1      31.547  -8.108  34.727  1.00  0.00     0.085 A 
HETATM    6  C5  UNK     1      28.921  -6.329  38.263  1.00  0.00    -0.025 A 
HETATM    7  C6  UNK     1      31.920  -8.004  33.425  1.00  0.00     0.094 A 
HETATM    8  C7  UNK     1      28.671  -8.486  36.481  1.00  0.00     0.013 A 
HETATM    9  C8  UNK     1      29.736  -6.997  33.785  1.00  0.00     0.065 A 
HETATM   10  C9  UNK     1      30.537  -5.277  36.778  1.00  0.00     0.013 A 
HETATM   11  C10 UNK     1      28.056  -7.398  38.546  1.00  0.00     0.012 A 
HETATM   12  C11 UNK     1      27.932  -8.469  37.661  1.00  0.00     0.002 A 
HETATM   13  C12 UNK     1      29.057  -5.243  39.142  1.00  0.00     0.012 A 
HETATM   14  C14 UNK     1      30.660  -4.206  37.665  1.00  0.00     0.001 A 
HETATM   15  C15 UNK     1      29.922  -4.189  38.844  1.00  0.00     0.001 A 
ENDROOT
BRANCH   7  16
HETATM   16  N1  UNK     1      33.081  -8.438  32.777  1.00  0.00    -0.316 N 
HETATM   17  C17 UNK     1      34.280  -7.744  32.697  1.00  0.00     0.262 C 
HETATM   18  O4  UNK     1      34.563  -6.642  33.165  1.00  0.00    -0.267 OA
HETATM   19  H7  UNK     1      32.992  -9.340  32.318  1.00  0.00     0.169 HD
BRANCH  17  20
HETATM   20  C16 UNK     1      35.294  -8.490  31.941  1.00  0.00     0.108 A 
HETATM   21  C19 UNK     1      36.285  -9.034  32.658  1.00  0.00     0.037 A 
HETATM   22  C18 UNK     1      37.337  -9.791  31.998  1.00  0.00     0.000 A 
HETATM   23  C20 UNK     1      37.294  -9.939  30.615  1.00  0.00     0.089 A 
HETATM   24  C22 UNK     1      38.391 -10.375  32.705  1.00  0.00     0.033 A 
HETATM   25  O2  UNK     1      36.247  -9.365  29.866  1.00  0.00    -0.274 OA
HETATM   26  C23 UNK     1      38.270 -10.652  29.922  1.00  0.00     0.039 A 
HETATM   27  C21 UNK     1      35.227  -8.635  30.470  1.00  0.00     0.304 A 
HETATM   28  O5  UNK     1      34.320  -8.138  29.810  1.00  0.00    -0.259 OA
HETATM   29  C26 UNK     1      39.317 -11.231  30.635  1.00  0.00     0.022 A 
HETATM   30  C24 UNK     1      39.377 -11.093  32.023  1.00  0.00     0.011 A 
HETATM   31 Br1  UNK     1      40.801 -11.883  32.986  1.00  0.00    -0.051 Br
ENDBRANCH  17  20
ENDBRANCH   7  16
BRANCH   5  32
HETATM   32  C13 UNK     1      32.362  -8.740  35.736  1.00  0.00     0.297 C 
HETATM   33  O3  UNK     1      32.080  -9.820  36.274  1.00  0.00    -0.259 OA
BRANCH  32  34
HETATM   34  O1  UNK     1      33.499  -8.032  36.058  1.00  0.00    -0.318 OA
BRANCH  34  35
HETATM   35  C25 UNK     1      33.572  -7.497  37.384  1.00  0.00     0.174 C 
HETATM   36  C27 UNK     1      34.187  -6.114  37.325  1.00  0.00     0.034 C 
ENDBRANCH  34  35
ENDBRANCH  32  34
ENDBRANCH   5  32
TORSDOF 5
ENDMDL
MODEL 10
REMARK VINA RESULT:      -8.6     11.844     14.246
REMARK  5 active torsions:
REMARK  status: ('A' for Active; 'I' for Inactive)
REMARK    1  A    between atoms: C13_21  and  O1_3 
REMARK    2  A    between atoms: C25_33  and  O1_3 
REMARK       I    between atoms: C17_25  and  N1_8 
REMARK    3  A    between atoms: C6_14  and  N1_8 
REMARK    4  A    between atoms: C13_21  and  C4_12 
REMARK    5  A    between atoms: C16_24  and  C17_25 
ROOT
HETATM    1  S1  UNK     1      33.962  -7.408  37.407  1.00  0.00    -0.082 SA
HETATM    2  C1  UNK     1      30.092  -6.811  37.878  1.00  0.00    -0.013 A 
HETATM    3  C2  UNK     1      31.410  -7.117  37.384  1.00  0.00     0.001 A 
HETATM    4  C3  UNK     1      29.269  -7.777  38.484  1.00  0.00    -0.015 A 
HETATM    5  C4  UNK     1      31.769  -7.562  36.079  1.00  0.00     0.085 A 
HETATM    6  C5  UNK     1      27.985  -7.402  38.945  1.00  0.00    -0.025 A 
HETATM    7  C6  UNK     1      33.111  -7.749  35.977  1.00  0.00     0.094 A 
HETATM    8  C7  UNK     1      29.650  -5.494  37.730  1.00  0.00     0.013 A 
HETATM    9  C8  UNK     1      32.507  -6.990  38.207  1.00  0.00     0.065 A 
HETATM   10  C9  UNK     1      29.696  -9.105  38.641  1.00  0.00     0.013 A 
HETATM   11  C10 UNK     1      27.559  -6.074  38.788  1.00  0.00     0.012 A 
HETATM   12  C11 UNK     1      28.387  -5.126  38.185  1.00  0.00     0.002 A 
HETATM   13  C12 UNK     1      27.164  -8.368  39.550  1.00  0.00     0.012 A 
HETATM   14  C14 UNK     1      28.866 -10.052  39.244  1.00  0.00     0.001 A 
HETATM   15  C15 UNK     1      27.604  -9.684  39.698  1.00  0.00     0.001 A 
ENDROOT
BRANCH   7  16
HETATM   16  N1  UNK     1      33.888  -8.173  34.895  1.00  0.00    -0.316 N 
HETATM   17  C17 UNK     1      34.545  -7.354  33.989  1.00  0.00     0.262 C 
HETATM   18  O4  UNK     1      34.580  -6.125  33.950  1.00  0.00    -0.267 OA
HETATM   19  H7  UNK     1      33.936  -9.182  34.785  1.00  0.00     0.169 HD
BRANCH  17  20
HETATM   20  C16 UNK     1      35.270  -8.130  32.976  1.00  0.00     0.108 A 
HETATM   21  C19 UNK     1      36.411  -8.703  33.375  1.00  0.00     0.037 A 
HETATM   22  C18 UNK     1      37.202  -9.492  32.443  1.00  0.00     0.000 A 
HETATM   23  C20 UNK     1      36.751  -9.640  31.135  1.00  0.00     0.089 A 
HETATM   24  C22 UNK     1      38.399 -10.108  32.816  1.00  0.00     0.033 A 
HETATM   25  O2  UNK     1      35.548  -9.034  30.721  1.00  0.00    -0.274 OA
HETATM   26  C23 UNK     1      37.461 -10.382  30.193  1.00  0.00     0.039 A 
HETATM   27  C21 UNK     1      34.772  -8.273  31.590  1.00  0.00     0.304 A 
HETATM   28  O5  UNK     1      33.725  -7.749  31.220  1.00  0.00    -0.259 OA
HETATM   29  C26 UNK     1      38.653 -10.992  30.573  1.00  0.00     0.022 A 
HETATM   30  C24 UNK     1      39.122 -10.856  31.882  1.00  0.00     0.011 A 
HETATM   31 Br1  UNK     1      40.741 -11.688  32.393  1.00  0.00    -0.051 Br
ENDBRANCH  17  20
ENDBRANCH   7  16
BRANCH   5  32
HETATM   32  C13 UNK     1      30.853  -7.791  34.988  1.00  0.00     0.297 C 
HETATM   33  O3  UNK     1      30.834  -7.116  33.950  1.00  0.00    -0.259 OA
BRANCH  32  34
HETATM   34  O1  UNK     1      29.986  -8.841  35.199  1.00  0.00    -0.318 OA
BRANCH  34  35
HETATM   35  C25 UNK     1      28.607  -8.612  34.885  1.00  0.00     0.174 C 
HETATM   36  C27 UNK     1      27.758  -9.621  35.630  1.00  0.00     0.034 C 
ENDBRANCH  34  35
ENDBRANCH  32  34
ENDBRANCH   5  32
TORSDOF 5
ENDMDL
