MODEL 1
REMARK VINA RESULT:      -8.5      0.000      0.000
REMARK  6 active torsions:
REMARK  status: ('A' for Active; 'I' for Inactive)
REMARK    1  A    between atoms: C6_12  and  N1_4 
REMARK    2  A    between atoms: C7_13  and  N2_5 
REMARK    3  A    between atoms: C8_14  and  N2_5 
REMARK    4  A    between atoms: C8_14  and  N3_6 
REMARK    5  A    between atoms: C9_15  and  N3_6 
REMARK    6  A    between atoms: C6_12  and  C7_13 
ROOT
HETATM    1  N3  UNK     1      18.850  -0.554  31.108  1.00  0.00    -0.333 N 
HETATM    2  H16 UNK     1      17.980  -0.899  30.713  1.00  0.00     0.168 HD
ENDROOT
BRANCH   1   3
HETATM    3  C8  UNK     1      19.736  -0.029  30.151  1.00  0.00     0.172 C 
HETATM    4  S1  UNK     1      20.765  -0.876  29.128  1.00  0.00    -0.041 SA
BRANCH   3   5
HETATM    5  N2  UNK     1      19.722   1.355  30.024  1.00  0.00    -0.365 N 
HETATM    6  H15 UNK     1      20.548   1.846  30.352  1.00  0.00     0.161 HD
BRANCH   5   7
HETATM    7  C7  UNK     1      18.665   2.169  29.456  1.00  0.00     0.152 C 
BRANCH   7   8
HETATM    8  C6  UNK     1      17.896   2.909  30.541  1.00  0.00     0.292 C 
BRANCH   8   9
HETATM    9  N1  UNK     1      18.763   3.885  31.202  1.00  0.00     0.090 N 
HETATM   10  C1  UNK     1      18.068   4.500  32.342  1.00  0.00     0.272 C 
HETATM   11  C3  UNK     1      18.978   5.488  33.075  1.00  0.00     0.030 C 
HETATM   12  C5  UNK     1      19.515   6.554  32.127  1.00  0.00     0.003 C 
HETATM   13  C4  UNK     1      20.160   5.905  30.908  1.00  0.00     0.030 C 
HETATM   14  C2  UNK     1      19.214   4.904  30.244  1.00  0.00     0.272 C 
ENDBRANCH   8   9
ENDBRANCH   7   8
ENDBRANCH   5   7
ENDBRANCH   3   5
ENDBRANCH   1   3
BRANCH   1  15
HETATM   15  C9  UNK     1      19.027  -0.983  32.424  1.00  0.00     0.036 A 
HETATM   16  C12 UNK     1      18.296  -0.401  33.453  1.00  0.00     0.067 A 
HETATM   17  C11 UNK     1      18.488  -0.846  34.762  1.00  0.00     0.092 A 
HETATM   18  C10 UNK     1      19.394  -1.861  35.079  1.00  0.00     0.004 A 
HETATM   19  O1  UNK     1      17.719  -0.218  35.762  1.00  0.00    -0.275 OA
HETATM   20  C13 UNK     1      19.532  -2.267  36.485  1.00  0.00    -0.043 A 
HETATM   21  C15 UNK     1      20.121  -2.434  34.028  1.00  0.00     0.017 A 
HETATM   22  C16 UNK     1      18.787  -1.652  37.414  1.00  0.00     0.090 A 
HETATM   23  C17 UNK     1      20.496  -3.355  36.857  1.00  0.00     0.049 C 
HETATM   24  C18 UNK     1      17.828  -0.581  37.096  1.00  0.00     0.288 A 
HETATM   25  O2  UNK     1      17.164  -0.041  37.974  1.00  0.00    -0.260 OA
HETATM   26  C14 UNK     1      19.938  -1.999  32.711  1.00  0.00     0.030 A 
ENDBRANCH   1  15
TORSDOF 6
ENDMDL
MODEL 2
REMARK VINA RESULT:      -8.4      4.611      6.971
REMARK  6 active torsions:
REMARK  status: ('A' for Active; 'I' for Inactive)
REMARK    1  A    between atoms: C6_12  and  N1_4 
REMARK    2  A    between atoms: C7_13  and  N2_5 
REMARK    3  A    between atoms: C8_14  and  N2_5 
REMARK    4  A    between atoms: C8_14  and  N3_6 
REMARK    5  A    between atoms: C9_15  and  N3_6 
REMARK    6  A    between atoms: C6_12  and  C7_13 
ROOT
HETATM    1  N3  UNK     1      18.755  -3.817  36.415  1.00  0.00    -0.333 N 
HETATM    2  H16 UNK     1      17.877  -4.152  36.031  1.00  0.00     0.168 HD
ENDROOT
BRANCH   1   3
HETATM    3  C8  UNK     1      18.936  -2.429  36.285  1.00  0.00     0.172 C 
HETATM    4  S1  UNK     1      18.129  -1.205  37.106  1.00  0.00    -0.041 SA
BRANCH   3   5
HETATM    5  N2  UNK     1      19.928  -2.040  35.394  1.00  0.00    -0.365 N 
HETATM    6  H15 UNK     1      20.762  -1.626  35.800  1.00  0.00     0.161 HD
BRANCH   5   7
HETATM    7  C7  UNK     1      19.910  -2.179  33.951  1.00  0.00     0.152 C 
BRANCH   7   8
HETATM    8  C6  UNK     1      18.902  -1.230  33.318  1.00  0.00     0.292 C 
BRANCH   8   9
HETATM    9  N1  UNK     1      19.124  -1.141  31.875  1.00  0.00     0.090 N 
HETATM   10  C1  UNK     1      20.240  -2.010  31.473  1.00  0.00     0.272 C 
HETATM   11  C3  UNK     1      20.454  -1.966  29.958  1.00  0.00     0.030 C 
HETATM   12  C5  UNK     1      20.673  -0.538  29.470  1.00  0.00     0.003 C 
HETATM   13  C4  UNK     1      19.553   0.371  29.964  1.00  0.00     0.030 C 
HETATM   14  C2  UNK     1      19.367   0.253  31.478  1.00  0.00     0.272 C 
ENDBRANCH   8   9
ENDBRANCH   7   8
ENDBRANCH   5   7
ENDBRANCH   3   5
ENDBRANCH   1   3
BRANCH   1  15
HETATM   15  C9  UNK     1      19.640  -4.864  36.674  1.00  0.00     0.036 A 
HETATM   16  C12 UNK     1      19.735  -5.934  35.791  1.00  0.00     0.067 A 
HETATM   17  C11 UNK     1      20.629  -6.969  36.069  1.00  0.00     0.092 A 
HETATM   18  C10 UNK     1      21.436  -6.972  37.208  1.00  0.00     0.004 A 
HETATM   19  O1  UNK     1      20.680  -8.025  35.137  1.00  0.00    -0.275 OA
HETATM   20  C13 UNK     1      22.349  -8.104  37.421  1.00  0.00    -0.043 A 
HETATM   21  C15 UNK     1      21.325  -5.885  38.086  1.00  0.00     0.017 A 
HETATM   22  C16 UNK     1      22.376  -9.094  36.519  1.00  0.00     0.090 A 
HETATM   23  C17 UNK     1      23.229  -8.136  38.636  1.00  0.00     0.049 C 
HETATM   24  C18 UNK     1      21.531  -9.106  35.312  1.00  0.00     0.288 A 
HETATM   25  O2  UNK     1      21.585 -10.030  34.508  1.00  0.00    -0.260 OA
HETATM   26  C14 UNK     1      20.434  -4.840  37.820  1.00  0.00     0.030 A 
ENDBRANCH   1  15
TORSDOF 6
ENDMDL
MODEL 3
REMARK VINA RESULT:      -8.3      1.555      2.283
REMARK  6 active torsions:
REMARK  status: ('A' for Active; 'I' for Inactive)
REMARK    1  A    between atoms: C6_12  and  N1_4 
REMARK    2  A    between atoms: C7_13  and  N2_5 
REMARK    3  A    between atoms: C8_14  and  N2_5 
REMARK    4  A    between atoms: C8_14  and  N3_6 
REMARK    5  A    between atoms: C9_15  and  N3_6 
REMARK    6  A    between atoms: C6_12  and  C7_13 
ROOT
HETATM    1  N3  UNK     1      18.659  -0.320  31.323  1.00  0.00    -0.333 N 
HETATM    2  H16 UNK     1      17.911  -0.809  30.841  1.00  0.00     0.168 HD
ENDROOT
BRANCH   1   3
HETATM    3  C8  UNK     1      19.604   0.260  30.459  1.00  0.00     0.172 C 
HETATM    4  S1  UNK     1      20.670  -0.525  29.424  1.00  0.00    -0.041 SA
BRANCH   3   5
HETATM    5  N2  UNK     1      19.622   1.649  30.444  1.00  0.00    -0.365 N 
HETATM    6  H15 UNK     1      20.535   2.087  30.351  1.00  0.00     0.161 HD
BRANCH   5   7
HETATM    7  C7  UNK     1      18.481   2.539  30.527  1.00  0.00     0.152 C 
BRANCH   7   8
HETATM    8  C6  UNK     1      18.890   3.985  30.288  1.00  0.00     0.292 C 
BRANCH   8   9
HETATM    9  N1  UNK     1      19.080   4.676  31.563  1.00  0.00     0.090 N 
HETATM   10  C1  UNK     1      17.784   5.077  32.128  1.00  0.00     0.272 C 
HETATM   11  C3  UNK     1      17.961   5.759  33.486  1.00  0.00     0.030 C 
HETATM   12  C5  UNK     1      18.904   6.952  33.389  1.00  0.00     0.003 C 
HETATM   13  C4  UNK     1      20.214   6.542  32.725  1.00  0.00     0.030 C 
HETATM   14  C2  UNK     1      19.966   5.836  31.392  1.00  0.00     0.272 C 
ENDBRANCH   8   9
ENDBRANCH   7   8
ENDBRANCH   5   7
ENDBRANCH   3   5
ENDBRANCH   1   3
BRANCH   1  15
HETATM   15  C9  UNK     1      18.689  -0.631  32.684  1.00  0.00     0.036 A 
HETATM   16  C12 UNK     1      19.466  -1.690  33.140  1.00  0.00     0.067 A 
HETATM   17  C11 UNK     1      19.482  -1.983  34.505  1.00  0.00     0.092 A 
HETATM   18  C10 UNK     1      18.744  -1.248  35.435  1.00  0.00     0.004 A 
HETATM   19  O1  UNK     1      20.288  -3.067  34.908  1.00  0.00    -0.275 OA
HETATM   20  C13 UNK     1      18.822  -1.626  36.853  1.00  0.00    -0.043 A 
HETATM   21  C15 UNK     1      17.969  -0.185  34.954  1.00  0.00     0.017 A 
HETATM   22  C16 UNK     1      19.595  -2.662  37.206  1.00  0.00     0.090 A 
HETATM   23  C17 UNK     1      18.040  -0.855  37.876  1.00  0.00     0.049 C 
HETATM   24  C18 UNK     1      20.380  -3.447  36.238  1.00  0.00     0.288 A 
HETATM   25  O2  UNK     1      21.077  -4.389  36.600  1.00  0.00    -0.260 OA
HETATM   26  C14 UNK     1      17.942   0.121  33.588  1.00  0.00     0.030 A 
ENDBRANCH   1  15
TORSDOF 6
ENDMDL
MODEL 4
REMARK VINA RESULT:      -8.3      3.379      7.618
REMARK  6 active torsions:
REMARK  status: ('A' for Active; 'I' for Inactive)
REMARK    1  A    between atoms: C6_12  and  N1_4 
REMARK    2  A    between atoms: C7_13  and  N2_5 
REMARK    3  A    between atoms: C8_14  and  N2_5 
REMARK    4  A    between atoms: C8_14  and  N3_6 
REMARK    5  A    between atoms: C9_15  and  N3_6 
REMARK    6  A    between atoms: C6_12  and  C7_13 
ROOT
HETATM    1  N3  UNK     1      19.126   3.963  30.528  1.00  0.00    -0.333 N 
HETATM    2  H16 UNK     1      19.613   4.175  29.663  1.00  0.00     0.168 HD
ENDROOT
BRANCH   1   3
HETATM    3  C8  UNK     1      18.395   2.762  30.485  1.00  0.00     0.172 C 
HETATM    4  S1  UNK     1      18.191   1.728  29.176  1.00  0.00    -0.041 SA
BRANCH   3   5
HETATM    5  N2  UNK     1      17.807   2.381  31.684  1.00  0.00    -0.365 N 
HETATM    6  H15 UNK     1      16.826   2.620  31.802  1.00  0.00     0.161 HD
BRANCH   5   7
HETATM    7  C7  UNK     1      18.434   1.662  32.776  1.00  0.00     0.152 C 
BRANCH   7   8
HETATM    8  C6  UNK     1      18.239   2.389  34.099  1.00  0.00     0.292 C 
BRANCH   8   9
HETATM    9  N1  UNK     1      17.653   1.488  35.092  1.00  0.00     0.090 N 
HETATM   10  C1  UNK     1      18.227   1.746  36.420  1.00  0.00     0.272 C 
HETATM   11  C3  UNK     1      17.589   0.846  37.481  1.00  0.00     0.030 C 
HETATM   12  C5  UNK     1      17.718  -0.627  37.108  1.00  0.00     0.003 C 
HETATM   13  C4  UNK     1      17.196  -0.866  35.696  1.00  0.00     0.030 C 
HETATM   14  C2  UNK     1      17.845   0.088  34.692  1.00  0.00     0.272 C 
ENDBRANCH   8   9
ENDBRANCH   7   8
ENDBRANCH   5   7
ENDBRANCH   3   5
ENDBRANCH   1   3
BRANCH   1  15
HETATM   15  C9  UNK     1      19.079   5.066  31.382  1.00  0.00     0.036 A 
HETATM   16  C12 UNK     1      17.854   5.595  31.773  1.00  0.00     0.067 A 
HETATM   17  C11 UNK     1      17.831   6.698  32.629  1.00  0.00     0.092 A 
HETATM   18  C10 UNK     1      18.998   7.293  33.110  1.00  0.00     0.004 A 
HETATM   19  O1  UNK     1      16.560   7.190  32.989  1.00  0.00    -0.275 OA
HETATM   20  C13 UNK     1      18.880   8.451  34.008  1.00  0.00    -0.043 A 
HETATM   21  C15 UNK     1      20.222   6.744  32.705  1.00  0.00     0.017 A 
HETATM   22  C16 UNK     1      17.659   8.897  34.333  1.00  0.00     0.090 A 
HETATM   23  C17 UNK     1      20.116   9.112  34.542  1.00  0.00     0.049 C 
HETATM   24  C18 UNK     1      16.418   8.280  33.834  1.00  0.00     0.288 A 
HETATM   25  O2  UNK     1      15.318   8.717  34.154  1.00  0.00    -0.260 OA
HETATM   26  C14 UNK     1      20.261   5.639  31.848  1.00  0.00     0.030 A 
ENDBRANCH   1  15
TORSDOF 6
ENDMDL
MODEL 5
REMARK VINA RESULT:      -8.3      4.710      6.929
REMARK  6 active torsions:
REMARK  status: ('A' for Active; 'I' for Inactive)
REMARK    1  A    between atoms: C6_12  and  N1_4 
REMARK    2  A    between atoms: C7_13  and  N2_5 
REMARK    3  A    between atoms: C8_14  and  N2_5 
REMARK    4  A    between atoms: C8_14  and  N3_6 
REMARK    5  A    between atoms: C9_15  and  N3_6 
REMARK    6  A    between atoms: C6_12  and  C7_13 
ROOT
HETATM    1  N3  UNK     1      19.309  -3.860  35.911  1.00  0.00    -0.333 N 
HETATM    2  H16 UNK     1      19.205  -4.101  34.930  1.00  0.00     0.168 HD
ENDROOT
BRANCH   1   3
HETATM    3  C8  UNK     1      19.243  -2.478  36.164  1.00  0.00     0.172 C 
HETATM    4  S1  UNK     1      18.587  -1.708  37.505  1.00  0.00    -0.041 SA
BRANCH   3   5
HETATM    5  N2  UNK     1      19.825  -1.669  35.196  1.00  0.00    -0.365 N 
HETATM    6  H15 UNK     1      20.296  -0.833  35.532  1.00  0.00     0.161 HD
BRANCH   5   7
HETATM    7  C7  UNK     1      19.851  -1.897  33.765  1.00  0.00     0.152 C 
BRANCH   7   8
HETATM    8  C6  UNK     1      18.767  -1.095  33.060  1.00  0.00     0.292 C 
BRANCH   8   9
HETATM    9  N1  UNK     1      19.050  -1.008  31.627  1.00  0.00     0.090 N 
HETATM   10  C1  UNK     1      20.133  -1.932  31.261  1.00  0.00     0.272 C 
HETATM   11  C3  UNK     1      20.409  -1.890  29.756  1.00  0.00     0.030 C 
HETATM   12  C5  UNK     1      20.723  -0.472  29.290  1.00  0.00     0.003 C 
HETATM   13  C4  UNK     1      19.634   0.492  29.748  1.00  0.00     0.030 C 
HETATM   14  C2  UNK     1      19.381   0.373  31.252  1.00  0.00     0.272 C 
ENDBRANCH   8   9
ENDBRANCH   7   8
ENDBRANCH   5   7
ENDBRANCH   3   5
ENDBRANCH   1   3
BRANCH   1  15
HETATM   15  C9  UNK     1      19.790  -4.935  36.661  1.00  0.00     0.036 A 
HETATM   16  C12 UNK     1      19.273  -6.210  36.464  1.00  0.00     0.067 A 
HETATM   17  C11 UNK     1      19.769  -7.271  37.224  1.00  0.00     0.092 A 
HETATM   18  C10 UNK     1      20.772  -7.098  38.180  1.00  0.00     0.004 A 
HETATM   19  O1  UNK     1      19.206  -8.539  36.980  1.00  0.00    -0.275 OA
HETATM   20  C13 UNK     1      21.235  -8.271  38.934  1.00  0.00    -0.043 A 
HETATM   21  C15 UNK     1      21.280  -5.805  38.362  1.00  0.00     0.017 A 
HETATM   22  C16 UNK     1      20.681  -9.465  38.681  1.00  0.00     0.090 A 
HETATM   23  C17 UNK     1      22.312  -8.118  39.968  1.00  0.00     0.049 C 
HETATM   24  C18 UNK     1      19.623  -9.664  37.676  1.00  0.00     0.288 A 
HETATM   25  O2  UNK     1      19.140 -10.772  37.473  1.00  0.00    -0.260 OA
HETATM   26  C14 UNK     1      20.792  -4.732  37.608  1.00  0.00     0.030 A 
ENDBRANCH   1  15
TORSDOF 6
ENDMDL
MODEL 6
REMARK VINA RESULT:      -8.2      4.342      9.432
REMARK  6 active torsions:
REMARK  status: ('A' for Active; 'I' for Inactive)
REMARK    1  A    between atoms: C6_12  and  N1_4 
REMARK    2  A    between atoms: C7_13  and  N2_5 
REMARK    3  A    between atoms: C8_14  and  N2_5 
REMARK    4  A    between atoms: C8_14  and  N3_6 
REMARK    5  A    between atoms: C9_15  and  N3_6 
REMARK    6  A    between atoms: C6_12  and  C7_13 
ROOT
HETATM    1  N3  UNK     1      19.856  -2.780  35.108  1.00  0.00    -0.333 N 
HETATM    2  H16 UNK     1      20.453  -3.602  35.126  1.00  0.00     0.168 HD
ENDROOT
BRANCH   1   3
HETATM    3  C8  UNK     1      18.967  -2.704  36.195  1.00  0.00     0.172 C 
HETATM    4  S1  UNK     1      18.284  -1.325  36.870  1.00  0.00    -0.041 SA
BRANCH   3   5
HETATM    5  N2  UNK     1      18.589  -3.924  36.741  1.00  0.00    -0.365 N 
HETATM    6  H15 UNK     1      17.757  -3.919  37.324  1.00  0.00     0.161 HD
BRANCH   5   7
HETATM    7  C7  UNK     1      19.242  -5.205  36.553  1.00  0.00     0.152 C 
BRANCH   7   8
HETATM    8  C6  UNK     1      18.237  -6.347  36.596  1.00  0.00     0.292 C 
BRANCH   8   9
HETATM    9  N1  UNK     1      18.587  -7.291  37.658  1.00  0.00     0.090 N 
HETATM   10  C1  UNK     1      19.767  -6.820  38.396  1.00  0.00     0.272 C 
HETATM   11  C3  UNK     1      20.118  -7.772  39.541  1.00  0.00     0.030 C 
HETATM   12  C5  UNK     1      20.324  -9.195  39.036  1.00  0.00     0.003 C 
HETATM   13  C4  UNK     1      19.129  -9.643  38.202  1.00  0.00     0.030 C 
HETATM   14  C2  UNK     1      18.809  -8.632  37.099  1.00  0.00     0.272 C 
ENDBRANCH   8   9
ENDBRANCH   7   8
ENDBRANCH   5   7
ENDBRANCH   3   5
ENDBRANCH   1   3
BRANCH   1  15
HETATM   15  C9  UNK     1      19.885  -2.145  33.866  1.00  0.00     0.036 A 
HETATM   16  C12 UNK     1      19.139  -0.991  33.653  1.00  0.00     0.067 A 
HETATM   17  C11 UNK     1      19.185  -0.372  32.403  1.00  0.00     0.092 A 
HETATM   18  C10 UNK     1      19.955  -0.871  31.351  1.00  0.00     0.004 A 
HETATM   19  O1  UNK     1      18.408   0.794  32.248  1.00  0.00    -0.275 OA
HETATM   20  C13 UNK     1      19.943  -0.154  30.068  1.00  0.00    -0.043 A 
HETATM   21  C15 UNK     1      20.699  -2.035  31.586  1.00  0.00     0.017 A 
HETATM   22  C16 UNK     1      19.195   0.952  29.950  1.00  0.00     0.090 A 
HETATM   23  C17 UNK     1      20.761  -0.665  28.918  1.00  0.00     0.049 C 
HETATM   24  C18 UNK     1      18.377   1.491  31.050  1.00  0.00     0.288 A 
HETATM   25  O2  UNK     1      17.705   2.506  30.904  1.00  0.00    -0.260 OA
HETATM   26  C14 UNK     1      20.664  -2.666  32.834  1.00  0.00     0.030 A 
ENDBRANCH   1  15
TORSDOF 6
ENDMDL
MODEL 7
REMARK VINA RESULT:      -8.1      4.139      9.241
REMARK  6 active torsions:
REMARK  status: ('A' for Active; 'I' for Inactive)
REMARK    1  A    between atoms: C6_12  and  N1_4 
REMARK    2  A    between atoms: C7_13  and  N2_5 
REMARK    3  A    between atoms: C8_14  and  N2_5 
REMARK    4  A    between atoms: C8_14  and  N3_6 
REMARK    5  A    between atoms: C9_15  and  N3_6 
REMARK    6  A    between atoms: C6_12  and  C7_13 
ROOT
HETATM    1  N3  UNK     1      18.312  -1.749  35.027  1.00  0.00    -0.333 N 
HETATM    2  H16 UNK     1      17.467  -2.303  34.927  1.00  0.00     0.168 HD
ENDROOT
BRANCH   1   3
HETATM    3  C8  UNK     1      18.865  -1.790  36.319  1.00  0.00     0.172 C 
HETATM    4  S1  UNK     1      18.200  -1.191  37.742  1.00  0.00    -0.041 SA
BRANCH   3   5
HETATM    5  N2  UNK     1      20.089  -2.437  36.421  1.00  0.00    -0.365 N 
HETATM    6  H15 UNK     1      20.872  -2.000  35.942  1.00  0.00     0.161 HD
BRANCH   5   7
HETATM    7  C7  UNK     1      20.375  -3.656  37.152  1.00  0.00     0.152 C 
BRANCH   7   8
HETATM    8  C6  UNK     1      19.753  -4.866  36.471  1.00  0.00     0.292 C 
BRANCH   8   9
HETATM    9  N1  UNK     1      20.093  -6.089  37.198  1.00  0.00     0.090 N 
HETATM   10  C1  UNK     1      18.874  -6.823  37.567  1.00  0.00     0.272 C 
HETATM   11  C3  UNK     1      19.213  -8.131  38.285  1.00  0.00     0.030 C 
HETATM   12  C5  UNK     1      20.089  -7.881  39.508  1.00  0.00     0.003 C 
HETATM   13  C4  UNK     1      21.308  -7.048  39.128  1.00  0.00     0.030 C 
HETATM   14  C2  UNK     1      20.903  -5.775  38.383  1.00  0.00     0.272 C 
ENDBRANCH   8   9
ENDBRANCH   7   8
ENDBRANCH   5   7
ENDBRANCH   3   5
ENDBRANCH   1   3
BRANCH   1  15
HETATM   15  C9  UNK     1      18.493  -0.880  33.950  1.00  0.00     0.036 A 
HETATM   16  C12 UNK     1      19.037  -1.348  32.759  1.00  0.00     0.067 A 
HETATM   17  C11 UNK     1      19.208  -0.462  31.694  1.00  0.00     0.092 A 
HETATM   18  C10 UNK     1      18.850   0.885  31.780  1.00  0.00     0.004 A 
HETATM   19  O1  UNK     1      19.765  -0.994  30.514  1.00  0.00    -0.275 OA
HETATM   20  C13 UNK     1      19.065   1.746  30.609  1.00  0.00    -0.043 A 
HETATM   21  C15 UNK     1      18.303   1.336  32.988  1.00  0.00     0.017 A 
HETATM   22  C16 UNK     1      19.597   1.213  29.500  1.00  0.00     0.090 A 
HETATM   23  C17 UNK     1      18.691   3.198  30.669  1.00  0.00     0.049 C 
HETATM   24  C18 UNK     1      19.979  -0.206  29.394  1.00  0.00     0.288 A 
HETATM   25  O2  UNK     1      20.462  -0.658  28.362  1.00  0.00    -0.260 OA
HETATM   26  C14 UNK     1      18.125   0.460  34.064  1.00  0.00     0.030 A 
ENDBRANCH   1  15
TORSDOF 6
ENDMDL
MODEL 8
REMARK VINA RESULT:      -8.0      5.421      7.617
REMARK  6 active torsions:
REMARK  status: ('A' for Active; 'I' for Inactive)
REMARK    1  A    between atoms: C6_12  and  N1_4 
REMARK    2  A    between atoms: C7_13  and  N2_5 
REMARK    3  A    between atoms: C8_14  and  N2_5 
REMARK    4  A    between atoms: C8_14  and  N3_6 
REMARK    5  A    between atoms: C9_15  and  N3_6 
REMARK    6  A    between atoms: C6_12  and  C7_13 
ROOT
HETATM    1  N3  UNK     1      20.319  -4.327  37.860  1.00  0.00    -0.333 N 
HETATM    2  H16 UNK     1      20.509  -4.028  38.812  1.00  0.00     0.168 HD
ENDROOT
BRANCH   1   3
HETATM    3  C8  UNK     1      19.853  -3.295  37.026  1.00  0.00     0.172 C 
HETATM    4  S1  UNK     1      20.710  -2.459  35.848  1.00  0.00    -0.041 SA
BRANCH   3   5
HETATM    5  N2  UNK     1      18.513  -2.963  37.183  1.00  0.00    -0.365 N 
HETATM    6  H15 UNK     1      17.845  -3.722  37.073  1.00  0.00     0.161 HD
BRANCH   5   7
HETATM    7  C7  UNK     1      17.967  -1.660  37.506  1.00  0.00     0.152 C 
BRANCH   7   8
HETATM    8  C6  UNK     1      17.199  -1.077  36.329  1.00  0.00     0.292 C 
BRANCH   8   9
HETATM    9  N1  UNK     1      17.979  -0.020  35.686  1.00  0.00     0.090 N 
HETATM   10  C1  UNK     1      18.273   1.056  36.644  1.00  0.00     0.272 C 
HETATM   11  C3  UNK     1      19.131   2.147  36.000  1.00  0.00     0.030 C 
HETATM   12  C5  UNK     1      18.471   2.703  34.743  1.00  0.00     0.003 C 
HETATM   13  C4  UNK     1      18.096   1.570  33.795  1.00  0.00     0.030 C 
HETATM   14  C2  UNK     1      17.271   0.497  34.507  1.00  0.00     0.272 C 
ENDBRANCH   8   9
ENDBRANCH   7   8
ENDBRANCH   5   7
ENDBRANCH   3   5
ENDBRANCH   1   3
BRANCH   1  15
HETATM   15  C9  UNK     1      20.283  -5.718  37.750  1.00  0.00     0.036 A 
HETATM   16  C12 UNK     1      20.846  -6.346  36.646  1.00  0.00     0.067 A 
HETATM   17  C11 UNK     1      20.800  -7.739  36.557  1.00  0.00     0.092 A 
HETATM   18  C10 UNK     1      20.206  -8.529  37.542  1.00  0.00     0.004 A 
HETATM   19  O1  UNK     1      21.388  -8.318  35.415  1.00  0.00    -0.275 OA
HETATM   20  C13 UNK     1      20.204  -9.988  37.367  1.00  0.00    -0.043 A 
HETATM   21  C15 UNK     1      19.644  -7.877  38.648  1.00  0.00     0.017 A 
HETATM   22  C16 UNK     1      20.769 -10.511  36.271  1.00  0.00     0.090 A 
HETATM   23  C17 UNK     1      19.572 -10.865  38.409  1.00  0.00     0.049 C 
HETATM   24  C18 UNK     1      21.401  -9.691  35.223  1.00  0.00     0.288 A 
HETATM   25  O2  UNK     1      21.909 -10.206  34.233  1.00  0.00    -0.260 OA
HETATM   26  C14 UNK     1      19.683  -6.482  38.750  1.00  0.00     0.030 A 
ENDBRANCH   1  15
TORSDOF 6
ENDMDL
MODEL 9
REMARK VINA RESULT:      -8.0      5.742      7.988
REMARK  6 active torsions:
REMARK  status: ('A' for Active; 'I' for Inactive)
REMARK    1  A    between atoms: C6_12  and  N1_4 
REMARK    2  A    between atoms: C7_13  and  N2_5 
REMARK    3  A    between atoms: C8_14  and  N2_5 
REMARK    4  A    between atoms: C8_14  and  N3_6 
REMARK    5  A    between atoms: C9_15  and  N3_6 
REMARK    6  A    between atoms: C6_12  and  C7_13 
ROOT
HETATM    1  N3  UNK     1      19.144  -5.091  35.835  1.00  0.00    -0.333 N 
HETATM    2  H16 UNK     1      18.513  -5.055  35.040  1.00  0.00     0.168 HD
ENDROOT
BRANCH   1   3
HETATM    3  C8  UNK     1      19.803  -3.875  36.088  1.00  0.00     0.172 C 
HETATM    4  S1  UNK     1      20.580  -3.400  37.500  1.00  0.00    -0.041 SA
BRANCH   3   5
HETATM    5  N2  UNK     1      19.839  -2.986  35.021  1.00  0.00    -0.365 N 
HETATM    6  H15 UNK     1      19.955  -3.394  34.097  1.00  0.00     0.161 HD
BRANCH   5   7
HETATM    7  C7  UNK     1      19.709  -1.543  35.081  1.00  0.00     0.152 C 
BRANCH   7   8
HETATM    8  C6  UNK     1      18.340  -1.093  34.591  1.00  0.00     0.292 C 
BRANCH   8   9
HETATM    9  N1  UNK     1      17.551  -0.564  35.703  1.00  0.00     0.090 N 
HETATM   10  C1  UNK     1      16.369   0.150  35.200  1.00  0.00     0.272 C 
HETATM   11  C3  UNK     1      15.505   0.667  36.352  1.00  0.00     0.030 C 
HETATM   12  C5  UNK     1      16.312   1.550  37.297  1.00  0.00     0.003 C 
HETATM   13  C4  UNK     1      17.579   0.829  37.747  1.00  0.00     0.030 C 
HETATM   14  C2  UNK     1      18.376   0.306  36.551  1.00  0.00     0.272 C 
ENDBRANCH   8   9
ENDBRANCH   7   8
ENDBRANCH   5   7
ENDBRANCH   3   5
ENDBRANCH   1   3
BRANCH   1  15
HETATM   15  C9  UNK     1      19.394  -6.403  36.241  1.00  0.00     0.036 A 
HETATM   16  C12 UNK     1      20.330  -7.176  35.563  1.00  0.00     0.067 A 
HETATM   17  C11 UNK     1      20.566  -8.485  35.987  1.00  0.00     0.092 A 
HETATM   18  C10 UNK     1      19.893  -9.051  37.072  1.00  0.00     0.004 A 
HETATM   19  O1  UNK     1      21.525  -9.220  35.261  1.00  0.00    -0.275 OA
HETATM   20  C13 UNK     1      20.205 -10.437  37.448  1.00  0.00    -0.043 A 
HETATM   21  C15 UNK     1      18.954  -8.254  37.741  1.00  0.00     0.017 A 
HETATM   22  C16 UNK     1      21.121 -11.111  36.740  1.00  0.00     0.090 A 
HETATM   23  C17 UNK     1      19.499 -11.073  38.610  1.00  0.00     0.049 C 
HETATM   24  C18 UNK     1      21.839 -10.529  35.593  1.00  0.00     0.288 A 
HETATM   25  O2  UNK     1      22.672 -11.177  34.969  1.00  0.00    -0.260 OA
HETATM   26  C14 UNK     1      18.708  -6.940  37.328  1.00  0.00     0.030 A 
ENDBRANCH   1  15
TORSDOF 6
ENDMDL
MODEL 10
REMARK VINA RESULT:      -7.9      5.350     10.416
REMARK  6 active torsions:
REMARK  status: ('A' for Active; 'I' for Inactive)
REMARK    1  A    between atoms: C6_12  and  N1_4 
REMARK    2  A    between atoms: C7_13  and  N2_5 
REMARK    3  A    between atoms: C8_14  and  N2_5 
REMARK    4  A    between atoms: C8_14  and  N3_6 
REMARK    5  A    between atoms: C9_15  and  N3_6 
REMARK    6  A    between atoms: C6_12  and  C7_13 
ROOT
HETATM    1  N3  UNK     1      20.583  -3.945  36.836  1.00  0.00    -0.333 N 
HETATM    2  H16 UNK     1      21.469  -3.866  36.347  1.00  0.00     0.168 HD
ENDROOT
BRANCH   1   3
HETATM    3  C8  UNK     1      20.287  -5.253  37.260  1.00  0.00     0.172 C 
HETATM    4  S1  UNK     1      19.225  -6.348  36.554  1.00  0.00    -0.041 SA
BRANCH   3   5
HETATM    5  N2  UNK     1      20.990  -5.689  38.376  1.00  0.00    -0.365 N 
HETATM    6  H15 UNK     1      21.866  -5.213  38.571  1.00  0.00     0.161 HD
BRANCH   5   7
HETATM    7  C7  UNK     1      20.600  -6.735  39.301  1.00  0.00     0.152 C 
BRANCH   7   8
HETATM    8  C6  UNK     1      21.707  -7.767  39.464  1.00  0.00     0.292 C 
BRANCH   8   9
HETATM    9  N1  UNK     1      21.263  -9.071  38.968  1.00  0.00     0.090 N 
HETATM   10  C1  UNK     1      21.639  -9.238  37.556  1.00  0.00     0.272 C 
HETATM   11  C3  UNK     1      21.226 -10.616  37.036  1.00  0.00     0.030 C 
HETATM   12  C5  UNK     1      19.734 -10.860  37.235  1.00  0.00     0.003 C 
HETATM   13  C4  UNK     1      19.342 -10.602  38.686  1.00  0.00     0.030 C 
HETATM   14  C2  UNK     1      19.814  -9.225  39.154  1.00  0.00     0.272 C 
ENDBRANCH   8   9
ENDBRANCH   7   8
ENDBRANCH   5   7
ENDBRANCH   3   5
ENDBRANCH   1   3
BRANCH   1  15
HETATM   15  C9  UNK     1      19.794  -2.805  36.670  1.00  0.00     0.036 A 
HETATM   16  C12 UNK     1      19.804  -2.120  35.461  1.00  0.00     0.067 A 
HETATM   17  C11 UNK     1      19.006  -0.983  35.316  1.00  0.00     0.092 A 
HETATM   18  C10 UNK     1      18.195  -0.506  36.347  1.00  0.00     0.004 A 
HETATM   19  O1  UNK     1      19.058  -0.331  34.068  1.00  0.00    -0.275 OA
HETATM   20  C13 UNK     1      17.387   0.699  36.107  1.00  0.00    -0.043 A 
HETATM   21  C15 UNK     1      18.200  -1.211  37.558  1.00  0.00     0.017 A 
HETATM   22  C16 UNK     1      17.457   1.298  34.911  1.00  0.00     0.090 A 
HETATM   23  C17 UNK     1      16.505   1.237  37.195  1.00  0.00     0.049 C 
HETATM   24  C18 UNK     1      18.308   0.807  33.813  1.00  0.00     0.288 A 
HETATM   25  O2  UNK     1      18.345   1.383  32.731  1.00  0.00    -0.260 OA
HETATM   26  C14 UNK     1      18.993  -2.353  37.717  1.00  0.00     0.030 A 
ENDBRANCH   1  15
TORSDOF 6
ENDMDL
