MODEL 1
REMARK VINA RESULT:      -8.3      0.000      0.000
REMARK  3 active torsions:
REMARK  status: ('A' for Active; 'I' for Inactive)
REMARK    1  A    between atoms: C10_14  and  O3_3 
REMARK    2  A    between atoms: C13_17  and  O4_4 
REMARK    3  A    between atoms: C1_5  and  C3_7 
ROOT
HETATM    1  O1  UNK     1      17.062   7.246  32.556  1.00  0.00    -0.340 OA
HETATM    2  O2  UNK     1      20.187   9.038  34.518  1.00  0.00    -0.292 OA
HETATM    3  C1  UNK     1      18.421   6.917  32.227  1.00  0.00     0.169 C 
HETATM    4  C2  UNK     1      19.332   7.071  33.444  1.00  0.00     0.121 C 
HETATM    5  C4  UNK     1      19.257   8.494  33.935  1.00  0.00     0.165 C 
HETATM    6  C5  UNK     1      17.962   9.179  33.740  1.00  0.00     0.043 A 
HETATM    7  C6  UNK     1      16.930   8.505  33.079  1.00  0.00     0.083 A 
HETATM    8  C9  UNK     1      17.758  10.465  34.243  1.00  0.00     0.018 A 
HETATM    9  C11 UNK     1      15.678   9.110  32.954  1.00  0.00     0.038 A 
HETATM   10  C14 UNK     1      16.510  11.072  34.097  1.00  0.00     0.001 A 
HETATM   11  C15 UNK     1      15.472  10.394  33.458  1.00  0.00     0.003 A 
ENDROOT
BRANCH   3  12
HETATM   12  C3  UNK     1      18.455   5.498  31.697  1.00  0.00    -0.026 A 
HETATM   13  C7  UNK     1      18.040   4.442  32.506  1.00  0.00     0.049 A 
HETATM   14  C10 UNK     1      18.072   3.136  32.019  1.00  0.00     0.102 A 
HETATM   15  C13 UNK     1      18.520   2.886  30.721  1.00  0.00     0.101 A 
HETATM   16  C12 UNK     1      18.935   3.944  29.912  1.00  0.00     0.040 A 
HETATM   17  C8  UNK     1      18.903   5.250  30.400  1.00  0.00     0.012 A 
BRANCH  14  18
HETATM   18  O3  UNK     1      17.661   2.111  32.817  1.00  0.00    -0.353 OA
HETATM   19  C16 UNK     1      18.182   2.076  34.145  1.00  0.00     0.210 C 
ENDBRANCH  14  18
BRANCH  15  20
HETATM   20  O4  UNK     1      18.554   1.615  30.233  1.00  0.00    -0.353 OA
HETATM   21  C17 UNK     1      18.102   1.423  28.894  1.00  0.00     0.210 C 
ENDBRANCH  15  20
ENDBRANCH   3  12
TORSDOF 3
ENDMDL
MODEL 2
REMARK VINA RESULT:      -8.0     14.403     18.664
REMARK  3 active torsions:
REMARK  status: ('A' for Active; 'I' for Inactive)
REMARK    1  A    between atoms: C10_14  and  O3_3 
REMARK    2  A    between atoms: C13_17  and  O4_4 
REMARK    3  A    between atoms: C1_5  and  C3_7 
ROOT
HETATM    1  O1  UNK     1      19.334  -0.966  17.223  1.00  0.00    -0.340 OA
HETATM    2  O2  UNK     1      19.220   2.787  15.570  1.00  0.00    -0.292 OA
HETATM    3  C1  UNK     1      18.887  -0.772  15.872  1.00  0.00     0.169 C 
HETATM    4  C2  UNK     1      19.571   0.437  15.237  1.00  0.00     0.121 C 
HETATM    5  C4  UNK     1      19.260   1.663  16.056  1.00  0.00     0.165 C 
HETATM    6  C5  UNK     1      19.079   1.443  17.506  1.00  0.00     0.043 A 
HETATM    7  C6  UNK     1      19.148   0.140  18.010  1.00  0.00     0.083 A 
HETATM    8  C9  UNK     1      18.882   2.524  18.368  1.00  0.00     0.018 A 
HETATM    9  C11 UNK     1      19.055  -0.075  19.386  1.00  0.00     0.038 A 
HETATM   10  C14 UNK     1      18.769   2.299  19.740  1.00  0.00     0.001 A 
HETATM   11  C15 UNK     1      18.860   1.003  20.249  1.00  0.00     0.003 A 
ENDROOT
BRANCH   3  12
HETATM   12  C3  UNK     1      19.173  -2.035  15.087  1.00  0.00    -0.026 A 
HETATM   13  C7  UNK     1      18.754  -2.142  13.762  1.00  0.00     0.049 A 
HETATM   14  C10 UNK     1      19.018  -3.305  13.039  1.00  0.00     0.102 A 
HETATM   15  C13 UNK     1      19.702  -4.362  13.642  1.00  0.00     0.101 A 
HETATM   16  C12 UNK     1      20.121  -4.254  14.968  1.00  0.00     0.040 A 
HETATM   17  C8  UNK     1      19.857  -3.090  15.691  1.00  0.00     0.012 A 
BRANCH  14  18
HETATM   18  O3  UNK     1      18.606  -3.398  11.744  1.00  0.00    -0.353 OA
HETATM   19  C16 UNK     1      19.376  -2.699  10.767  1.00  0.00     0.210 C 
ENDBRANCH  14  18
BRANCH  15  20
HETATM   20  O4  UNK     1      19.967  -5.502  12.946  1.00  0.00    -0.353 OA
HETATM   21  C17 UNK     1      20.541  -6.586  13.673  1.00  0.00     0.210 C 
ENDBRANCH  15  20
ENDBRANCH   3  12
TORSDOF 3
ENDMDL
MODEL 3
REMARK VINA RESULT:      -8.0      1.941      7.916
REMARK  3 active torsions:
REMARK  status: ('A' for Active; 'I' for Inactive)
REMARK    1  A    between atoms: C10_14  and  O3_3 
REMARK    2  A    between atoms: C13_17  and  O4_4 
REMARK    3  A    between atoms: C1_5  and  C3_7 
ROOT
HETATM    1  O1  UNK     1      19.076   1.932  31.415  1.00  0.00    -0.340 OA
HETATM    2  O2  UNK     1      17.766   1.914  27.528  1.00  0.00    -0.292 OA
HETATM    3  C1  UNK     1      18.816   3.163  30.723  1.00  0.00     0.169 C 
HETATM    4  C2  UNK     1      17.718   2.982  29.676  1.00  0.00     0.121 C 
HETATM    5  C4  UNK     1      18.149   1.925  28.691  1.00  0.00     0.165 C 
HETATM    6  C5  UNK     1      19.007   0.850  29.231  1.00  0.00     0.043 A 
HETATM    7  C6  UNK     1      19.404   0.904  30.571  1.00  0.00     0.083 A 
HETATM    8  C9  UNK     1      19.383  -0.228  28.426  1.00  0.00     0.018 A 
HETATM    9  C11 UNK     1      20.150  -0.142  31.115  1.00  0.00     0.038 A 
HETATM   10  C14 UNK     1      20.147  -1.261  28.971  1.00  0.00     0.001 A 
HETATM   11  C15 UNK     1      20.526  -1.221  30.313  1.00  0.00     0.003 A 
ENDROOT
BRANCH   3  12
HETATM   12  C3  UNK     1      18.428   4.214  31.742  1.00  0.00    -0.026 A 
HETATM   13  C7  UNK     1      18.109   5.505  31.325  1.00  0.00     0.049 A 
HETATM   14  C10 UNK     1      17.752   6.473  32.264  1.00  0.00     0.102 A 
HETATM   15  C13 UNK     1      17.715   6.148  33.621  1.00  0.00     0.101 A 
HETATM   16  C12 UNK     1      18.034   4.856  34.037  1.00  0.00     0.040 A 
HETATM   17  C8  UNK     1      18.391   3.888  33.097  1.00  0.00     0.012 A 
BRANCH  14  18
HETATM   18  O3  UNK     1      17.441   7.731  31.845  1.00  0.00    -0.353 OA
HETATM   19  C16 UNK     1      16.069   7.996  31.555  1.00  0.00     0.210 C 
ENDBRANCH  14  18
BRANCH  15  20
HETATM   20  O4  UNK     1      17.366   7.084  34.547  1.00  0.00    -0.353 OA
HETATM   21  C17 UNK     1      18.418   7.875  35.097  1.00  0.00     0.210 C 
ENDBRANCH  15  20
ENDBRANCH   3  12
TORSDOF 3
ENDMDL
MODEL 4
REMARK VINA RESULT:      -7.9      3.670      7.624
REMARK  3 active torsions:
REMARK  status: ('A' for Active; 'I' for Inactive)
REMARK    1  A    between atoms: C10_14  and  O3_3 
REMARK    2  A    between atoms: C13_17  and  O4_4 
REMARK    3  A    between atoms: C1_5  and  C3_7 
ROOT
HETATM    1  O1  UNK     1      18.980   0.529  34.298  1.00  0.00    -0.340 OA
HETATM    2  O2  UNK     1      17.063   1.521  37.786  1.00  0.00    -0.292 OA
HETATM    3  C1  UNK     1      17.938   1.517  34.307  1.00  0.00     0.169 C 
HETATM    4  C2  UNK     1      17.883   2.243  35.650  1.00  0.00     0.121 C 
HETATM    5  C4  UNK     1      17.639   1.235  36.743  1.00  0.00     0.165 C 
HETATM    6  C5  UNK     1      18.202  -0.113  36.518  1.00  0.00     0.043 A 
HETATM    7  C6  UNK     1      18.862  -0.381  35.315  1.00  0.00     0.083 A 
HETATM    8  C9  UNK     1      18.115  -1.092  37.510  1.00  0.00     0.018 A 
HETATM    9  C11 UNK     1      19.465  -1.624  35.119  1.00  0.00     0.038 A 
HETATM   10  C14 UNK     1      18.703  -2.340  37.299  1.00  0.00     0.001 A 
HETATM   11  C15 UNK     1      19.380  -2.604  36.108  1.00  0.00     0.003 A 
ENDROOT
BRANCH   3  12
HETATM   12  C3  UNK     1      18.188   2.488  33.172  1.00  0.00    -0.026 A 
HETATM   13  C7  UNK     1      18.449   2.009  31.889  1.00  0.00     0.049 A 
HETATM   14  C10 UNK     1      18.680   2.904  30.845  1.00  0.00     0.102 A 
HETATM   15  C13 UNK     1      18.649   4.278  31.084  1.00  0.00     0.101 A 
HETATM   16  C12 UNK     1      18.386   4.757  32.367  1.00  0.00     0.040 A 
HETATM   17  C8  UNK     1      18.156   3.861  33.412  1.00  0.00     0.012 A 
BRANCH  14  18
HETATM   18  O3  UNK     1      18.933   2.425  29.595  1.00  0.00    -0.353 OA
HETATM   19  C16 UNK     1      17.850   1.797  28.911  1.00  0.00     0.210 C 
ENDBRANCH  14  18
BRANCH  15  20
HETATM   20  O4  UNK     1      18.871   5.162  30.071  1.00  0.00    -0.353 OA
HETATM   21  C17 UNK     1      20.101   5.883  30.098  1.00  0.00     0.210 C 
ENDBRANCH  15  20
ENDBRANCH   3  12
TORSDOF 3
ENDMDL
MODEL 5
REMARK VINA RESULT:      -7.9      1.608      3.253
REMARK  3 active torsions:
REMARK  status: ('A' for Active; 'I' for Inactive)
REMARK    1  A    between atoms: C10_14  and  O3_3 
REMARK    2  A    between atoms: C13_17  and  O4_4 
REMARK    3  A    between atoms: C1_5  and  C3_7 
ROOT
HETATM    1  O1  UNK     1      19.185   6.088  33.114  1.00  0.00    -0.340 OA
HETATM    2  O2  UNK     1      15.672   8.111  32.492  1.00  0.00    -0.292 OA
HETATM    3  C1  UNK     1      17.931   5.390  33.094  1.00  0.00     0.169 C 
HETATM    4  C2  UNK     1      16.928   6.091  32.179  1.00  0.00     0.121 C 
HETATM    5  C4  UNK     1      16.719   7.501  32.669  1.00  0.00     0.165 C 
HETATM    6  C5  UNK     1      17.884   8.140  33.316  1.00  0.00     0.043 A 
HETATM    7  C6  UNK     1      19.060   7.401  33.482  1.00  0.00     0.083 A 
HETATM    8  C9  UNK     1      17.826   9.475  33.720  1.00  0.00     0.018 A 
HETATM    9  C11 UNK     1      20.192   8.014  34.021  1.00  0.00     0.038 A 
HETATM   10  C14 UNK     1      18.955  10.076  34.278  1.00  0.00     0.001 A 
HETATM   11  C15 UNK     1      20.136   9.349  34.424  1.00  0.00     0.003 A 
ENDROOT
BRANCH   3  12
HETATM   12  C3  UNK     1      18.181   3.966  32.640  1.00  0.00    -0.026 A 
HETATM   13  C7  UNK     1      18.457   3.702  31.299  1.00  0.00     0.049 A 
HETATM   14  C10 UNK     1      18.687   2.391  30.880  1.00  0.00     0.102 A 
HETATM   15  C13 UNK     1      18.640   1.346  31.803  1.00  0.00     0.101 A 
HETATM   16  C12 UNK     1      18.364   1.612  33.144  1.00  0.00     0.040 A 
HETATM   17  C8  UNK     1      18.134   2.923  33.563  1.00  0.00     0.012 A 
BRANCH  14  18
HETATM   18  O3  UNK     1      18.957   2.144  29.568  1.00  0.00    -0.353 OA
HETATM   19  C16 UNK     1      17.843   1.893  28.713  1.00  0.00     0.210 C 
ENDBRANCH  14  18
BRANCH  15  20
HETATM   20  O4  UNK     1      18.864   0.062  31.407  1.00  0.00    -0.353 OA
HETATM   21  C17 UNK     1      18.962  -0.925  32.431  1.00  0.00     0.210 C 
ENDBRANCH  15  20
ENDBRANCH   3  12
TORSDOF 3
ENDMDL
MODEL 6
REMARK VINA RESULT:      -7.8     14.229     18.093
REMARK  3 active torsions:
REMARK  status: ('A' for Active; 'I' for Inactive)
REMARK    1  A    between atoms: C10_14  and  O3_3 
REMARK    2  A    between atoms: C13_17  and  O4_4 
REMARK    3  A    between atoms: C1_5  and  C3_7 
ROOT
HETATM    1  O1  UNK     1      19.356  -1.120  17.632  1.00  0.00    -0.340 OA
HETATM    2  O2  UNK     1      19.074   2.404  15.551  1.00  0.00    -0.292 OA
HETATM    3  C1  UNK     1      18.798  -1.092  16.310  1.00  0.00     0.169 C 
HETATM    4  C2  UNK     1      19.417   0.030  15.478  1.00  0.00     0.121 C 
HETATM    5  C4  UNK     1      19.164   1.347  16.165  1.00  0.00     0.165 C 
HETATM    6  C5  UNK     1      19.104   1.306  17.641  1.00  0.00     0.043 A 
HETATM    7  C6  UNK     1      19.226   0.074  18.292  1.00  0.00     0.083 A 
HETATM    8  C9  UNK     1      18.969   2.484  18.379  1.00  0.00     0.018 A 
HETATM    9  C11 UNK     1      19.248   0.027  19.686  1.00  0.00     0.038 A 
HETATM   10  C14 UNK     1      18.972   2.428  19.773  1.00  0.00     0.001 A 
HETATM   11  C15 UNK     1      19.115   1.203  20.425  1.00  0.00     0.003 A 
ENDROOT
BRANCH   3  12
HETATM   12  C3  UNK     1      19.030  -2.442  15.663  1.00  0.00    -0.026 A 
HETATM   13  C7  UNK     1      20.271  -3.067  15.780  1.00  0.00     0.049 A 
HETATM   14  C10 UNK     1      20.485  -4.309  15.184  1.00  0.00     0.102 A 
HETATM   15  C13 UNK     1      19.457  -4.926  14.470  1.00  0.00     0.101 A 
HETATM   16  C12 UNK     1      18.216  -4.301  14.353  1.00  0.00     0.040 A 
HETATM   17  C8  UNK     1      18.003  -3.058  14.949  1.00  0.00     0.012 A 
BRANCH  14  18
HETATM   18  O3  UNK     1      21.701  -4.912  15.308  1.00  0.00    -0.353 OA
HETATM   19  C16 UNK     1      22.529  -4.483  16.387  1.00  0.00     0.210 C 
ENDBRANCH  14  18
BRANCH  15  20
HETATM   20  O4  UNK     1      19.654  -6.141  13.885  1.00  0.00    -0.353 OA
HETATM   21  C17 UNK     1      19.032  -6.359  12.620  1.00  0.00     0.210 C 
ENDBRANCH  15  20
ENDBRANCH   3  12
TORSDOF 3
ENDMDL
MODEL 7
REMARK VINA RESULT:      -7.8      1.729      7.242
REMARK  3 active torsions:
REMARK  status: ('A' for Active; 'I' for Inactive)
REMARK    1  A    between atoms: C10_14  and  O3_3 
REMARK    2  A    between atoms: C13_17  and  O4_4 
REMARK    3  A    between atoms: C1_5  and  C3_7 
ROOT
HETATM    1  O1  UNK     1      17.970   3.118  33.168  1.00  0.00    -0.340 OA
HETATM    2  O2  UNK     1      19.257   1.529  29.612  1.00  0.00    -0.292 OA
HETATM    3  C1  UNK     1      18.700   3.921  32.228  1.00  0.00     0.169 C 
HETATM    4  C2  UNK     1      18.447   3.452  30.796  1.00  0.00     0.121 C 
HETATM    5  C4  UNK     1      18.867   2.011  30.669  1.00  0.00     0.165 C 
HETATM    6  C5  UNK     1      18.713   1.183  31.883  1.00  0.00     0.043 A 
HETATM    7  C6  UNK     1      18.251   1.781  33.060  1.00  0.00     0.083 A 
HETATM    8  C9  UNK     1      18.984  -0.187  31.847  1.00  0.00     0.018 A 
HETATM    9  C11 UNK     1      18.027   0.998  34.193  1.00  0.00     0.038 A 
HETATM   10  C14 UNK     1      18.777  -0.960  32.989  1.00  0.00     0.001 A 
HETATM   11  C15 UNK     1      18.295  -0.371  34.158  1.00  0.00     0.003 A 
ENDROOT
BRANCH   3  12
HETATM   12  C3  UNK     1      18.286   5.367  32.409  1.00  0.00    -0.026 A 
HETATM   13  C7  UNK     1      17.099   5.828  31.843  1.00  0.00     0.049 A 
HETATM   14  C10 UNK     1      16.719   7.159  32.010  1.00  0.00     0.102 A 
HETATM   15  C13 UNK     1      17.526   8.029  32.743  1.00  0.00     0.101 A 
HETATM   16  C12 UNK     1      18.714   7.566  33.310  1.00  0.00     0.040 A 
HETATM   17  C8  UNK     1      19.094   6.234  33.143  1.00  0.00     0.012 A 
BRANCH  14  18
HETATM   18  O3  UNK     1      15.555   7.599  31.453  1.00  0.00    -0.353 OA
HETATM   19  C16 UNK     1      14.341   7.169  32.066  1.00  0.00     0.210 C 
ENDBRANCH  14  18
BRANCH  15  20
HETATM   20  O4  UNK     1      17.165   9.331  32.915  1.00  0.00    -0.353 OA
HETATM   21  C17 UNK     1      16.598   9.686  34.174  1.00  0.00     0.210 C 
ENDBRANCH  15  20
ENDBRANCH   3  12
TORSDOF 3
ENDMDL
MODEL 8
REMARK VINA RESULT:      -7.7     14.400     18.520
REMARK  3 active torsions:
REMARK  status: ('A' for Active; 'I' for Inactive)
REMARK    1  A    between atoms: C10_14  and  O3_3 
REMARK    2  A    between atoms: C13_17  and  O4_4 
REMARK    3  A    between atoms: C1_5  and  C3_7 
ROOT
HETATM    1  O1  UNK     1      19.073   0.416  15.922  1.00  0.00    -0.340 OA
HETATM    2  O2  UNK     1      18.494  -0.425  19.894  1.00  0.00    -0.292 OA
HETATM    3  C1  UNK     1      19.311  -0.904  16.434  1.00  0.00     0.169 C 
HETATM    4  C2  UNK     1      18.402  -1.201  17.626  1.00  0.00     0.121 C 
HETATM    5  C4  UNK     1      18.660  -0.181  18.705  1.00  0.00     0.165 C 
HETATM    6  C5  UNK     1      19.057   1.165  18.243  1.00  0.00     0.043 A 
HETATM    7  C6  UNK     1      19.219   1.392  16.872  1.00  0.00     0.083 A 
HETATM    8  C9  UNK     1      19.227   2.207  19.157  1.00  0.00     0.018 A 
HETATM    9  C11 UNK     1      19.519   2.676  16.415  1.00  0.00     0.038 A 
HETATM   10  C14 UNK     1      19.546   3.484  18.693  1.00  0.00     0.001 A 
HETATM   11  C15 UNK     1      19.688   3.719  17.326  1.00  0.00     0.003 A 
ENDROOT
BRANCH   3  12
HETATM   12  C3  UNK     1      19.085  -1.900  15.315  1.00  0.00    -0.026 A 
HETATM   13  C7  UNK     1      19.177  -1.489  13.987  1.00  0.00     0.049 A 
HETATM   14  C10 UNK     1      18.969  -2.406  12.957  1.00  0.00     0.102 A 
HETATM   15  C13 UNK     1      18.669  -3.735  13.257  1.00  0.00     0.101 A 
HETATM   16  C12 UNK     1      18.578  -4.146  14.587  1.00  0.00     0.040 A 
HETATM   17  C8  UNK     1      18.786  -3.228  15.616  1.00  0.00     0.012 A 
BRANCH  14  18
HETATM   18  O3  UNK     1      19.063  -1.993  11.662  1.00  0.00    -0.353 OA
HETATM   19  C16 UNK     1      20.375  -1.854  11.120  1.00  0.00     0.210 C 
ENDBRANCH  14  18
BRANCH  15  20
HETATM   20  O4  UNK     1      18.465  -4.640  12.260  1.00  0.00    -0.353 OA
HETATM   21  C17 UNK     1      19.510  -5.579  12.013  1.00  0.00     0.210 C 
ENDBRANCH  15  20
ENDBRANCH   3  12
TORSDOF 3
ENDMDL
MODEL 9
REMARK VINA RESULT:      -7.7      1.359      2.516
REMARK  3 active torsions:
REMARK  status: ('A' for Active; 'I' for Inactive)
REMARK    1  A    between atoms: C10_14  and  O3_3 
REMARK    2  A    between atoms: C13_17  and  O4_4 
REMARK    3  A    between atoms: C1_5  and  C3_7 
ROOT
HETATM    1  O1  UNK     1      16.693   5.799  32.669  1.00  0.00    -0.340 OA
HETATM    2  O2  UNK     1      19.486   8.188  34.490  1.00  0.00    -0.292 OA
HETATM    3  C1  UNK     1      18.097   5.541  32.507  1.00  0.00     0.169 C 
HETATM    4  C2  UNK     1      18.882   5.991  33.738  1.00  0.00     0.121 C 
HETATM    5  C4  UNK     1      18.656   7.466  33.951  1.00  0.00     0.165 C 
HETATM    6  C5  UNK     1      17.336   7.985  33.538  1.00  0.00     0.043 A 
HETATM    7  C6  UNK     1      16.420   7.114  32.940  1.00  0.00     0.083 A 
HETATM    8  C9  UNK     1      16.990   9.316  33.779  1.00  0.00     0.018 A 
HETATM    9  C11 UNK     1      15.142   7.570  32.614  1.00  0.00     0.038 A 
HETATM   10  C14 UNK     1      15.717   9.771  33.433  1.00  0.00     0.001 A 
HETATM   11  C15 UNK     1      14.794   8.899  32.856  1.00  0.00     0.003 A 
ENDROOT
BRANCH   3  12
HETATM   12  C3  UNK     1      18.286   4.060  32.252  1.00  0.00    -0.026 A 
HETATM   13  C7  UNK     1      18.566   3.605  30.965  1.00  0.00     0.049 A 
HETATM   14  C10 UNK     1      18.740   2.241  30.730  1.00  0.00     0.102 A 
HETATM   15  C13 UNK     1      18.633   1.333  31.784  1.00  0.00     0.101 A 
HETATM   16  C12 UNK     1      18.353   1.789  33.072  1.00  0.00     0.040 A 
HETATM   17  C8  UNK     1      18.179   3.153  33.306  1.00  0.00     0.012 A 
BRANCH  14  18
HETATM   18  O3  UNK     1      19.016   1.807  29.468  1.00  0.00    -0.353 OA
HETATM   19  C16 UNK     1      17.918   1.711  28.562  1.00  0.00     0.210 C 
ENDBRANCH  14  18
BRANCH  15  20
HETATM   20  O4  UNK     1      18.802  -0.001  31.567  1.00  0.00    -0.353 OA
HETATM   21  C17 UNK     1      18.798  -0.850  32.714  1.00  0.00     0.210 C 
ENDBRANCH  15  20
ENDBRANCH   3  12
TORSDOF 3
ENDMDL
MODEL 10
REMARK VINA RESULT:      -7.6     14.326     18.134
REMARK  3 active torsions:
REMARK  status: ('A' for Active; 'I' for Inactive)
REMARK    1  A    between atoms: C10_14  and  O3_3 
REMARK    2  A    between atoms: C13_17  and  O4_4 
REMARK    3  A    between atoms: C1_5  and  C3_7 
ROOT
HETATM    1  O1  UNK     1      19.074   0.467  15.991  1.00  0.00    -0.340 OA
HETATM    2  O2  UNK     1      18.534  -0.378  19.969  1.00  0.00    -0.292 OA
HETATM    3  C1  UNK     1      19.312  -0.855  16.499  1.00  0.00     0.169 C 
HETATM    4  C2  UNK     1      18.415  -1.150  17.700  1.00  0.00     0.121 C 
HETATM    5  C4  UNK     1      18.688  -0.133  18.778  1.00  0.00     0.165 C 
HETATM    6  C5  UNK     1      19.085   1.212  18.313  1.00  0.00     0.043 A 
HETATM    7  C6  UNK     1      19.234   1.441  16.941  1.00  0.00     0.083 A 
HETATM    8  C9  UNK     1      19.269   2.253  19.227  1.00  0.00     0.018 A 
HETATM    9  C11 UNK     1      19.533   2.724  16.482  1.00  0.00     0.038 A 
HETATM   10  C14 UNK     1      19.588   3.529  18.762  1.00  0.00     0.001 A 
HETATM   11  C15 UNK     1      19.716   3.765  17.393  1.00  0.00     0.003 A 
ENDROOT
BRANCH   3  12
HETATM   12  C3  UNK     1      19.071  -1.848  15.381  1.00  0.00    -0.026 A 
HETATM   13  C7  UNK     1      18.499  -3.088  15.663  1.00  0.00     0.049 A 
HETATM   14  C10 UNK     1      18.277  -4.003  14.634  1.00  0.00     0.102 A 
HETATM   15  C13 UNK     1      18.627  -3.677  13.323  1.00  0.00     0.101 A 
HETATM   16  C12 UNK     1      19.199  -2.436  13.042  1.00  0.00     0.040 A 
HETATM   17  C8  UNK     1      19.421  -1.522  14.072  1.00  0.00     0.012 A 
BRANCH  14  18
HETATM   18  O3  UNK     1      17.715  -5.211  14.920  1.00  0.00    -0.353 OA
HETATM   19  C16 UNK     1      18.561  -6.193  15.516  1.00  0.00     0.210 C 
ENDBRANCH  14  18
BRANCH  15  20
HETATM   20  O4  UNK     1      18.414  -4.562  12.310  1.00  0.00    -0.353 OA
HETATM   21  C17 UNK     1      19.562  -5.204  11.757  1.00  0.00     0.210 C 
ENDBRANCH  15  20
ENDBRANCH   3  12
TORSDOF 3
ENDMDL
