MODEL 1
REMARK VINA RESULT:      -8.8      0.000      0.000
REMARK  4 active torsions:
REMARK  status: ('A' for Active; 'I' for Inactive)
REMARK    1  A    between atoms: C3_11  and  N1_7 
REMARK       I    between atoms: C7_15  and  N1_7 
REMARK    2  A    between atoms: C15_23  and  N2_8 
REMARK    3  A    between atoms: C1_9  and  C3_11 
REMARK    4  A    between atoms: C7_15  and  C8_16 
ROOT
HETATM    1  O2  UNK     1      20.779  -2.824  30.522  1.00  0.00    -0.274 OA
HETATM    2  O4  UNK     1      21.511  -4.285  32.119  1.00  0.00    -0.259 OA
HETATM    3  C8  UNK     1      20.658  -2.212  32.887  1.00  0.00     0.108 A 
HETATM    4  C9  UNK     1      20.124  -1.024  32.580  1.00  0.00     0.037 A 
HETATM    5  C10 UNK     1      19.885  -0.664  31.191  1.00  0.00     0.001 A 
HETATM    6  C11 UNK     1      21.022  -3.195  31.842  1.00  0.00     0.304 A 
HETATM    7  C12 UNK     1      20.218  -1.574  30.193  1.00  0.00     0.089 A 
HETATM    8  C13 UNK     1      19.331   0.565  30.824  1.00  0.00     0.050 A 
HETATM    9  C14 UNK     1      20.013  -1.292  28.844  1.00  0.00     0.041 A 
HETATM   10  C15 UNK     1      19.119   0.862  29.476  1.00  0.00     0.103 A 
HETATM   11  C16 UNK     1      19.460  -0.064  28.488  1.00  0.00     0.039 A 
ENDROOT
BRANCH   3  12
HETATM   12  C7  UNK     1      20.862  -2.482  34.315  1.00  0.00     0.258 C 
HETATM   13  O3  UNK     1      21.829  -2.014  34.914  1.00  0.00    -0.267 OA
HETATM   14  N1  UNK     1      19.878  -3.290  34.856  1.00  0.00    -0.350 N 
HETATM   15  H12 UNK     1      19.105  -3.603  34.279  1.00  0.00     0.163 HD
BRANCH  14  16
HETATM   16  C3  UNK     1      19.866  -3.695  36.244  1.00  0.00     0.109 C 
HETATM   17  C6  UNK     1      18.882  -2.839  37.031  1.00  0.00     0.035 C 
BRANCH  16  18
HETATM   18  C1  UNK     1      19.535  -5.169  36.366  1.00  0.00     0.143 C 
HETATM   19  O1  UNK     1      20.065  -5.884  35.237  1.00  0.00    -0.384 OA
HETATM   20  C5  UNK     1      20.629  -7.118  35.705  1.00  0.00     0.168 C 
HETATM   21  C4  UNK     1      20.228  -7.264  37.158  1.00  0.00     0.029 C 
HETATM   22  C2  UNK     1      20.131  -5.825  37.599  1.00  0.00     0.036 C 
ENDBRANCH  16  18
ENDBRANCH  14  16
ENDBRANCH   3  12
BRANCH  10  23
HETATM   23  N2  UNK     1      18.555   2.112  29.107  1.00  0.00    -0.116 N 
HETATM   24  O5  UNK     1      18.736   3.106  29.852  1.00  0.00    -0.532 OA
HETATM   25  O6  UNK     1      17.891   2.188  28.045  1.00  0.00    -0.532 OA
ENDBRANCH  10  23
TORSDOF 4
ENDMDL
MODEL 2
REMARK VINA RESULT:      -8.7      3.799      8.638
REMARK  4 active torsions:
REMARK  status: ('A' for Active; 'I' for Inactive)
REMARK    1  A    between atoms: C3_11  and  N1_7 
REMARK       I    between atoms: C7_15  and  N1_7 
REMARK    2  A    between atoms: C15_23  and  N2_8 
REMARK    3  A    between atoms: C1_9  and  C3_11 
REMARK    4  A    between atoms: C7_15  and  C8_16 
ROOT
HETATM    1  O2  UNK     1      19.007   0.642  28.720  1.00  0.00    -0.274 OA
HETATM    2  O4  UNK     1      18.145   2.704  28.246  1.00  0.00    -0.259 OA
HETATM    3  C8  UNK     1      18.807   2.319  30.489  1.00  0.00     0.108 A 
HETATM    4  C9  UNK     1      19.325   1.472  31.387  1.00  0.00     0.037 A 
HETATM    5  C10 UNK     1      19.720   0.131  30.988  1.00  0.00     0.001 A 
HETATM    6  C11 UNK     1      18.618   1.931  29.073  1.00  0.00     0.304 A 
HETATM    7  C12 UNK     1      19.553  -0.254  29.662  1.00  0.00     0.089 A 
HETATM    8  C13 UNK     1      20.263  -0.786  31.891  1.00  0.00     0.050 A 
HETATM    9  C14 UNK     1      19.911  -1.524  29.214  1.00  0.00     0.041 A 
HETATM   10  C15 UNK     1      20.628  -2.063  31.458  1.00  0.00     0.103 A 
HETATM   11  C16 UNK     1      20.452  -2.431  30.122  1.00  0.00     0.039 A 
ENDROOT
BRANCH   3  12
HETATM   12  C7  UNK     1      18.439   3.649  30.988  1.00  0.00     0.258 C 
HETATM   13  O3  UNK     1      17.425   3.811  31.665  1.00  0.00    -0.267 OA
HETATM   14  N1  UNK     1      19.334   4.633  30.609  1.00  0.00    -0.350 N 
HETATM   15  H12 UNK     1      20.158   4.389  30.069  1.00  0.00     0.163 HD
BRANCH  14  16
HETATM   16  C3  UNK     1      19.181   6.023  30.979  1.00  0.00     0.109 C 
HETATM   17  C6  UNK     1      17.927   6.600  30.339  1.00  0.00     0.035 C 
BRANCH  16  18
HETATM   18  C1  UNK     1      19.151   6.173  32.487  1.00  0.00     0.143 C 
HETATM   19  O1  UNK     1      20.335   6.855  32.934  1.00  0.00    -0.384 OA
HETATM   20  C5  UNK     1      19.961   7.793  33.954  1.00  0.00     0.168 C 
HETATM   21  C4  UNK     1      18.514   7.515  34.300  1.00  0.00     0.029 C 
HETATM   22  C2  UNK     1      17.976   6.992  32.992  1.00  0.00     0.036 C 
ENDBRANCH  16  18
ENDBRANCH  14  16
ENDBRANCH   3  12
BRANCH  10  23
HETATM   23  N2  UNK     1      21.181  -2.991  32.380  1.00  0.00    -0.116 N 
HETATM   24  O5  UNK     1      21.440  -4.156  31.989  1.00  0.00    -0.532 OA
HETATM   25  O6  UNK     1      21.397  -2.621  33.559  1.00  0.00    -0.532 OA
ENDBRANCH  10  23
TORSDOF 4
ENDMDL
MODEL 3
REMARK VINA RESULT:      -8.7      6.122      9.174
REMARK  4 active torsions:
REMARK  status: ('A' for Active; 'I' for Inactive)
REMARK    1  A    between atoms: C3_11  and  N1_7 
REMARK       I    between atoms: C7_15  and  N1_7 
REMARK    2  A    between atoms: C15_23  and  N2_8 
REMARK    3  A    between atoms: C1_9  and  C3_11 
REMARK    4  A    between atoms: C7_15  and  C8_16 
ROOT
HETATM    1  O2  UNK     1      19.559   7.074  32.468  1.00  0.00    -0.274 OA
HETATM    2  O4  UNK     1      20.475   5.187  31.561  1.00  0.00    -0.259 OA
HETATM    3  C8  UNK     1      18.246   5.013  32.348  1.00  0.00     0.108 A 
HETATM    4  C9  UNK     1      17.198   5.616  32.922  1.00  0.00     0.037 A 
HETATM    5  C10 UNK     1      17.278   7.015  33.310  1.00  0.00     0.001 A 
HETATM    6  C11 UNK     1      19.512   5.735  32.088  1.00  0.00     0.304 A 
HETATM    7  C12 UNK     1      18.459   7.713  33.073  1.00  0.00     0.089 A 
HETATM    8  C13 UNK     1      16.211   7.684  33.914  1.00  0.00     0.050 A 
HETATM    9  C14 UNK     1      18.600   9.055  33.420  1.00  0.00     0.041 A 
HETATM   10  C15 UNK     1      16.337   9.029  34.267  1.00  0.00     0.103 A 
HETATM   11  C16 UNK     1      17.530   9.714  34.021  1.00  0.00     0.039 A 
ENDROOT
BRANCH   3  12
HETATM   12  C7  UNK     1      18.069   3.600  31.993  1.00  0.00     0.258 C 
HETATM   13  O3  UNK     1      17.691   2.782  32.830  1.00  0.00    -0.267 OA
HETATM   14  N1  UNK     1      18.371   3.335  30.670  1.00  0.00    -0.350 N 
HETATM   15  H12 UNK     1      18.652   4.091  30.052  1.00  0.00     0.163 HD
BRANCH  14  16
HETATM   16  C3  UNK     1      18.275   2.015  30.088  1.00  0.00     0.109 C 
HETATM   17  C6  UNK     1      17.932   2.119  28.608  1.00  0.00     0.035 C 
BRANCH  16  18
HETATM   18  C1  UNK     1      19.560   1.242  30.303  1.00  0.00     0.143 C 
HETATM   19  O1  UNK     1      19.441   0.411  31.471  1.00  0.00    -0.384 OA
HETATM   20  C5  UNK     1      20.037  -0.862  31.185  1.00  0.00     0.168 C 
HETATM   21  C4  UNK     1      20.749  -0.728  29.855  1.00  0.00     0.029 C 
HETATM   22  C2  UNK     1      19.908   0.310  29.156  1.00  0.00     0.036 C 
ENDBRANCH  16  18
ENDBRANCH  14  16
ENDBRANCH   3  12
BRANCH  10  23
HETATM   23  N2  UNK     1      15.248   9.706  34.878  1.00  0.00    -0.116 N 
HETATM   24  O5  UNK     1      15.486  10.616  35.709  1.00  0.00    -0.532 OA
HETATM   25  O6  UNK     1      14.078   9.375  34.570  1.00  0.00    -0.532 OA
ENDBRANCH  10  23
TORSDOF 4
ENDMDL
MODEL 4
REMARK VINA RESULT:      -8.6     14.705     17.628
REMARK  4 active torsions:
REMARK  status: ('A' for Active; 'I' for Inactive)
REMARK    1  A    between atoms: C3_11  and  N1_7 
REMARK       I    between atoms: C7_15  and  N1_7 
REMARK    2  A    between atoms: C15_23  and  N2_8 
REMARK    3  A    between atoms: C1_9  and  C3_11 
REMARK    4  A    between atoms: C7_15  and  C8_16 
ROOT
HETATM    1  O2  UNK     1      19.398   0.438  14.714  1.00  0.00    -0.274 OA
HETATM    2  O4  UNK     1      19.412  -1.203  13.124  1.00  0.00    -0.259 OA
HETATM    3  C8  UNK     1      18.934  -1.879  15.344  1.00  0.00     0.108 A 
HETATM    4  C9  UNK     1      18.773  -1.526  16.625  1.00  0.00     0.037 A 
HETATM    5  C10 UNK     1      18.921  -0.137  17.028  1.00  0.00     0.001 A 
HETATM    6  C11 UNK     1      19.264  -0.885  14.299  1.00  0.00     0.304 A 
HETATM    7  C12 UNK     1      19.230   0.815  16.061  1.00  0.00     0.089 A 
HETATM    8  C13 UNK     1      18.764   0.276  18.353  1.00  0.00     0.050 A 
HETATM    9  C14 UNK     1      19.385   2.162  16.380  1.00  0.00     0.041 A 
HETATM   10  C15 UNK     1      18.915   1.624  18.688  1.00  0.00     0.103 A 
HETATM   11  C16 UNK     1      19.226   2.565  17.704  1.00  0.00     0.039 A 
ENDROOT
BRANCH   3  12
HETATM   12  C7  UNK     1      18.765  -3.304  15.037  1.00  0.00     0.258 C 
HETATM   13  O3  UNK     1      17.847  -3.690  14.315  1.00  0.00    -0.267 OA
HETATM   14  N1  UNK     1      19.721  -4.102  15.638  1.00  0.00    -0.350 N 
HETATM   15  H12 UNK     1      20.456  -3.680  16.197  1.00  0.00     0.163 HD
BRANCH  14  16
HETATM   16  C3  UNK     1      19.759  -5.539  15.484  1.00  0.00     0.109 C 
HETATM   17  C6  UNK     1      18.389  -6.134  15.776  1.00  0.00     0.035 C 
BRANCH  16  18
HETATM   18  C1  UNK     1      20.239  -5.914  14.096  1.00  0.00     0.143 C 
HETATM   19  O1  UNK     1      21.448  -6.688  14.190  1.00  0.00    -0.384 OA
HETATM   20  C5  UNK     1      21.377  -7.759  13.237  1.00  0.00     0.168 C 
HETATM   21  C4  UNK     1      20.164  -7.497  12.369  1.00  0.00     0.029 C 
HETATM   22  C2  UNK     1      19.251  -6.768  13.322  1.00  0.00     0.036 C 
ENDBRANCH  16  18
ENDBRANCH  14  16
ENDBRANCH   3  12
BRANCH  10  23
HETATM   23  N2  UNK     1      18.753   2.040  20.037  1.00  0.00    -0.116 N 
HETATM   24  O5  UNK     1      19.647   2.742  20.569  1.00  0.00    -0.532 OA
HETATM   25  O6  UNK     1      17.719   1.694  20.658  1.00  0.00    -0.532 OA
ENDBRANCH  10  23
TORSDOF 4
ENDMDL
MODEL 5
REMARK VINA RESULT:      -8.5      5.067      9.494
REMARK  4 active torsions:
REMARK  status: ('A' for Active; 'I' for Inactive)
REMARK    1  A    between atoms: C3_11  and  N1_7 
REMARK       I    between atoms: C7_15  and  N1_7 
REMARK    2  A    between atoms: C15_23  and  N2_8 
REMARK    3  A    between atoms: C1_9  and  C3_11 
REMARK    4  A    between atoms: C7_15  and  C8_16 
ROOT
HETATM    1  O2  UNK     1      18.666   0.536  31.973  1.00  0.00    -0.274 OA
HETATM    2  O4  UNK     1      18.748   1.874  30.123  1.00  0.00    -0.259 OA
HETATM    3  C8  UNK     1      18.332   2.948  32.194  1.00  0.00     0.108 A 
HETATM    4  C9  UNK     1      18.167   2.831  33.517  1.00  0.00     0.037 A 
HETATM    5  C10 UNK     1      18.245   1.526  34.153  1.00  0.00     0.001 A 
HETATM    6  C11 UNK     1      18.596   1.772  31.336  1.00  0.00     0.304 A 
HETATM    7  C12 UNK     1      18.494   0.406  33.365  1.00  0.00     0.089 A 
HETATM    8  C13 UNK     1      18.078   1.356  35.530  1.00  0.00     0.050 A 
HETATM    9  C14 UNK     1      18.580  -0.872  33.912  1.00  0.00     0.041 A 
HETATM   10  C15 UNK     1      18.163   0.081  36.093  1.00  0.00     0.103 A 
HETATM   11  C16 UNK     1      18.413  -1.031  35.286  1.00  0.00     0.039 A 
ENDROOT
BRANCH   3  12
HETATM   12  C7  UNK     1      18.235   4.306  31.645  1.00  0.00     0.258 C 
HETATM   13  O3  UNK     1      18.845   4.619  30.624  1.00  0.00    -0.267 OA
HETATM   14  N1  UNK     1      17.415   5.132  32.393  1.00  0.00    -0.350 N 
HETATM   15  H12 UNK     1      16.935   4.766  33.208  1.00  0.00     0.163 HD
BRANCH  14  16
HETATM   16  C3  UNK     1      17.166   6.515  32.051  1.00  0.00     0.109 C 
HETATM   17  C6  UNK     1      15.798   6.943  32.563  1.00  0.00     0.035 C 
BRANCH  16  18
HETATM   18  C1  UNK     1      18.264   7.405  32.598  1.00  0.00     0.143 C 
HETATM   19  O1  UNK     1      17.768   8.744  32.766  1.00  0.00    -0.384 OA
HETATM   20  C5  UNK     1      18.269   9.262  34.008  1.00  0.00     0.168 C 
HETATM   21  C4  UNK     1      19.296   8.273  34.516  1.00  0.00     0.029 C 
HETATM   22  C2  UNK     1      18.775   6.971  33.961  1.00  0.00     0.036 C 
ENDBRANCH  16  18
ENDBRANCH  14  16
ENDBRANCH   3  12
BRANCH  10  23
HETATM   23  N2  UNK     1      17.994  -0.087  37.493  1.00  0.00    -0.116 N 
HETATM   24  O5  UNK     1      17.913   0.931  38.223  1.00  0.00    -0.532 OA
HETATM   25  O6  UNK     1      17.930  -1.249  37.962  1.00  0.00    -0.532 OA
ENDBRANCH  10  23
TORSDOF 4
ENDMDL
MODEL 6
REMARK VINA RESULT:      -8.4     13.895     16.647
REMARK  4 active torsions:
REMARK  status: ('A' for Active; 'I' for Inactive)
REMARK    1  A    between atoms: C3_11  and  N1_7 
REMARK       I    between atoms: C7_15  and  N1_7 
REMARK    2  A    between atoms: C15_23  and  N2_8 
REMARK    3  A    between atoms: C1_9  and  C3_11 
REMARK    4  A    between atoms: C7_15  and  C8_16 
ROOT
HETATM    1  O2  UNK     1      19.162   0.805  15.201  1.00  0.00    -0.274 OA
HETATM    2  O4  UNK     1      19.134  -0.537  13.352  1.00  0.00    -0.259 OA
HETATM    3  C8  UNK     1      19.032  -1.624  15.455  1.00  0.00     0.108 A 
HETATM    4  C9  UNK     1      19.008  -1.510  16.789  1.00  0.00     0.037 A 
HETATM    5  C10 UNK     1      19.063  -0.199  17.414  1.00  0.00     0.001 A 
HETATM    6  C11 UNK     1      19.113  -0.438  14.574  1.00  0.00     0.304 A 
HETATM    7  C12 UNK     1      19.138   0.931  16.604  1.00  0.00     0.089 A 
HETATM    8  C13 UNK     1      19.042  -0.032  18.801  1.00  0.00     0.050 A 
HETATM    9  C14 UNK     1      19.192   2.216  17.140  1.00  0.00     0.041 A 
HETATM   10  C15 UNK     1      19.096   1.250  19.353  1.00  0.00     0.103 A 
HETATM   11  C16 UNK     1      19.171   2.372  18.524  1.00  0.00     0.039 A 
ENDROOT
BRANCH   3  12
HETATM   12  C7  UNK     1      18.973  -2.989  14.919  1.00  0.00     0.258 C 
HETATM   13  O3  UNK     1      19.642  -3.311  13.939  1.00  0.00    -0.267 OA
HETATM   14  N1  UNK     1      18.111  -3.809  15.625  1.00  0.00    -0.350 N 
HETATM   15  H12 UNK     1      17.623  -3.450  16.440  1.00  0.00     0.163 HD
BRANCH  14  16
HETATM   16  C3  UNK     1      17.885  -5.196  15.284  1.00  0.00     0.109 C 
HETATM   17  C6  UNK     1      19.081  -6.040  15.704  1.00  0.00     0.035 C 
BRANCH  16  18
HETATM   18  C1  UNK     1      16.604  -5.699  15.919  1.00  0.00     0.143 C 
HETATM   19  O1  UNK     1      16.883  -6.853  16.731  1.00  0.00    -0.384 OA
HETATM   20  C5  UNK     1      16.124  -6.748  17.944  1.00  0.00     0.168 C 
HETATM   21  C4  UNK     1      15.170  -5.585  17.770  1.00  0.00     0.029 C 
HETATM   22  C2  UNK     1      15.943  -4.686  16.838  1.00  0.00     0.036 C 
ENDBRANCH  16  18
ENDBRANCH  14  16
ENDBRANCH   3  12
BRANCH  10  23
HETATM   23  N2  UNK     1      19.073   1.415  20.763  1.00  0.00    -0.116 N 
HETATM   24  O5  UNK     1      19.553   0.511  21.489  1.00  0.00    -0.532 OA
HETATM   25  O6  UNK     1      18.575   2.461  21.244  1.00  0.00    -0.532 OA
ENDBRANCH  10  23
TORSDOF 4
ENDMDL
MODEL 7
REMARK VINA RESULT:      -8.3     25.180     27.042
REMARK  4 active torsions:
REMARK  status: ('A' for Active; 'I' for Inactive)
REMARK    1  A    between atoms: C3_11  and  N1_7 
REMARK       I    between atoms: C7_15  and  N1_7 
REMARK    2  A    between atoms: C15_23  and  N2_8 
REMARK    3  A    between atoms: C1_9  and  C3_11 
REMARK    4  A    between atoms: C7_15  and  C8_16 
ROOT
HETATM    1  O2  UNK     1      14.220   6.441  10.324  1.00  0.00    -0.274 OA
HETATM    2  O4  UNK     1      12.124   5.533  10.278  1.00  0.00    -0.259 OA
HETATM    3  C8  UNK     1      12.380   7.665   9.276  1.00  0.00     0.108 A 
HETATM    4  C9  UNK     1      13.197   8.679   8.965  1.00  0.00     0.037 A 
HETATM    5  C10 UNK     1      14.604   8.626   9.328  1.00  0.00     0.001 A 
HETATM    6  C11 UNK     1      12.868   6.465   9.991  1.00  0.00     0.304 A 
HETATM    7  C12 UNK     1      15.084   7.506  10.000  1.00  0.00     0.089 A 
HETATM    8  C13 UNK     1      15.492   9.661   9.025  1.00  0.00     0.050 A 
HETATM    9  C14 UNK     1      16.421   7.392  10.375  1.00  0.00     0.041 A 
HETATM   10  C15 UNK     1      16.835   9.561   9.394  1.00  0.00     0.103 A 
HETATM   11  C16 UNK     1      17.299   8.429  10.068  1.00  0.00     0.039 A 
ENDROOT
BRANCH   3  12
HETATM   12  C7  UNK     1      10.978   7.812   8.869  1.00  0.00     0.258 C 
HETATM   13  O3  UNK     1      10.304   8.763   9.259  1.00  0.00    -0.267 OA
HETATM   14  N1  UNK     1      10.549   6.792   8.039  1.00  0.00    -0.350 N 
HETATM   15  H12 UNK     1      11.196   6.064   7.753  1.00  0.00     0.163 HD
BRANCH  14  16
HETATM   16  C3  UNK     1       9.205   6.719   7.509  1.00  0.00     0.109 C 
HETATM   17  C6  UNK     1       9.241   6.311   6.043  1.00  0.00     0.035 C 
BRANCH  16  18
HETATM   18  C1  UNK     1       8.361   5.763   8.328  1.00  0.00     0.143 C 
HETATM   19  O1  UNK     1       9.202   4.768   8.937  1.00  0.00    -0.384 OA
HETATM   20  C5  UNK     1       8.748   4.552  10.281  1.00  0.00     0.168 C 
HETATM   21  C4  UNK     1       7.433   5.288  10.427  1.00  0.00     0.029 C 
HETATM   22  C2  UNK     1       7.610   6.435   9.464  1.00  0.00     0.036 C 
ENDBRANCH  16  18
ENDBRANCH  14  16
ENDBRANCH   3  12
BRANCH  10  23
HETATM   23  N2  UNK     1      17.735  10.616   9.083  1.00  0.00    -0.116 N 
HETATM   24  O5  UNK     1      18.796  10.725   9.743  1.00  0.00    -0.532 OA
HETATM   25  O6  UNK     1      17.443  11.409   8.156  1.00  0.00    -0.532 OA
ENDBRANCH  10  23
TORSDOF 4
ENDMDL
MODEL 8
REMARK VINA RESULT:      -8.2      3.985      5.295
REMARK  4 active torsions:
REMARK  status: ('A' for Active; 'I' for Inactive)
REMARK    1  A    between atoms: C3_11  and  N1_7 
REMARK       I    between atoms: C7_15  and  N1_7 
REMARK    2  A    between atoms: C15_23  and  N2_8 
REMARK    3  A    between atoms: C1_9  and  C3_11 
REMARK    4  A    between atoms: C7_15  and  C8_16 
ROOT
HETATM    1  O2  UNK     1      19.223   2.665  30.715  1.00  0.00    -0.274 OA
HETATM    2  O4  UNK     1      19.499   0.503  31.402  1.00  0.00    -0.259 OA
HETATM    3  C8  UNK     1      18.365   1.955  32.893  1.00  0.00     0.108 A 
HETATM    4  C9  UNK     1      17.899   3.185  33.139  1.00  0.00     0.037 A 
HETATM    5  C10 UNK     1      18.075   4.246  32.161  1.00  0.00     0.001 A 
HETATM    6  C11 UNK     1      19.070   1.629  31.633  1.00  0.00     0.304 A 
HETATM    7  C12 UNK     1      18.734   3.961  30.969  1.00  0.00     0.089 A 
HETATM    8  C13 UNK     1      17.606   5.545  32.377  1.00  0.00     0.050 A 
HETATM    9  C14 UNK     1      18.935   4.932  29.991  1.00  0.00     0.041 A 
HETATM   10  C15 UNK     1      17.799   6.529  31.405  1.00  0.00     0.103 A 
HETATM   11  C16 UNK     1      18.463   6.224  30.215  1.00  0.00     0.039 A 
ENDROOT
BRANCH   3  12
HETATM   12  C7  UNK     1      18.139   0.952  33.940  1.00  0.00     0.258 C 
HETATM   13  O3  UNK     1      17.403  -0.012  33.742  1.00  0.00    -0.267 OA
HETATM   14  N1  UNK     1      18.826   1.230  35.109  1.00  0.00    -0.350 N 
HETATM   15  H12 UNK     1      19.431   2.043  35.160  1.00  0.00     0.163 HD
BRANCH  14  16
HETATM   16  C3  UNK     1      18.758   0.388  36.282  1.00  0.00     0.109 C 
HETATM   17  C6  UNK     1      17.443   0.613  37.014  1.00  0.00     0.035 C 
BRANCH  16  18
HETATM   18  C1  UNK     1      18.936  -1.069  35.903  1.00  0.00     0.143 C 
HETATM   19  O1  UNK     1      20.316  -1.329  35.594  1.00  0.00    -0.384 OA
HETATM   20  C5  UNK     1      20.679  -2.594  36.166  1.00  0.00     0.168 C 
HETATM   21  C4  UNK     1      19.401  -3.238  36.660  1.00  0.00     0.029 C 
HETATM   22  C2  UNK     1      18.563  -2.035  37.014  1.00  0.00     0.036 C 
ENDBRANCH  16  18
ENDBRANCH  14  16
ENDBRANCH   3  12
BRANCH  10  23
HETATM   23  N2  UNK     1      17.320   7.847  31.628  1.00  0.00    -0.116 N 
HETATM   24  O5  UNK     1      16.462   8.323  30.845  1.00  0.00    -0.532 OA
HETATM   25  O6  UNK     1      17.767   8.499  32.602  1.00  0.00    -0.532 OA
ENDBRANCH  10  23
TORSDOF 4
ENDMDL
MODEL 9
REMARK VINA RESULT:      -8.2      6.082     10.441
REMARK  4 active torsions:
REMARK  status: ('A' for Active; 'I' for Inactive)
REMARK    1  A    between atoms: C3_11  and  N1_7 
REMARK       I    between atoms: C7_15  and  N1_7 
REMARK    2  A    between atoms: C15_23  and  N2_8 
REMARK    3  A    between atoms: C1_9  and  C3_11 
REMARK    4  A    between atoms: C7_15  and  C8_16 
ROOT
HETATM    1  O2  UNK     1      18.017   1.856  32.450  1.00  0.00    -0.274 OA
HETATM    2  O4  UNK     1      18.192   3.547  30.922  1.00  0.00    -0.259 OA
HETATM    3  C8  UNK     1      18.387   4.153  33.205  1.00  0.00     0.108 A 
HETATM    4  C9  UNK     1      18.389   3.760  34.484  1.00  0.00     0.037 A 
HETATM    5  C10 UNK     1      18.199   2.359  34.822  1.00  0.00     0.001 A 
HETATM    6  C11 UNK     1      18.195   3.192  32.097  1.00  0.00     0.304 A 
HETATM    7  C12 UNK     1      18.018   1.438  33.795  1.00  0.00     0.089 A 
HETATM    8  C13 UNK     1      18.193   1.904  36.143  1.00  0.00     0.050 A 
HETATM    9  C14 UNK     1      17.831   0.081  34.051  1.00  0.00     0.041 A 
HETATM   10  C15 UNK     1      18.008   0.547  36.415  1.00  0.00     0.103 A 
HETATM   11  C16 UNK     1      17.827  -0.363  35.371  1.00  0.00     0.039 A 
ENDROOT
BRANCH   3  12
HETATM   12  C7  UNK     1      18.586   5.587  32.965  1.00  0.00     0.258 C 
HETATM   13  O3  UNK     1      19.705   6.092  33.046  1.00  0.00    -0.267 OA
HETATM   14  N1  UNK     1      17.411   6.250  32.660  1.00  0.00    -0.350 N 
HETATM   15  H12 UNK     1      16.540   5.734  32.593  1.00  0.00     0.163 HD
BRANCH  14  16
HETATM   16  C3  UNK     1      17.354   7.669  32.386  1.00  0.00     0.109 C 
HETATM   17  C6  UNK     1      16.443   7.937  31.196  1.00  0.00     0.035 C 
BRANCH  16  18
HETATM   18  C1  UNK     1      16.898   8.431  33.614  1.00  0.00     0.143 C 
HETATM   19  O1  UNK     1      17.063   9.844  33.401  1.00  0.00    -0.384 OA
HETATM   20  C5  UNK     1      15.913  10.520  33.930  1.00  0.00     0.168 C 
HETATM   21  C4  UNK     1      15.110   9.492  34.697  1.00  0.00     0.029 C 
HETATM   22  C2  UNK     1      15.430   8.223  33.946  1.00  0.00     0.036 C 
ENDBRANCH  16  18
ENDBRANCH  14  16
ENDBRANCH   3  12
BRANCH  10  23
HETATM   23  N2  UNK     1      18.003   0.089  37.759  1.00  0.00    -0.116 N 
HETATM   24  O5  UNK     1      17.962   0.930  38.689  1.00  0.00    -0.532 OA
HETATM   25  O6  UNK     1      18.039  -1.146  37.980  1.00  0.00    -0.532 OA
ENDBRANCH  10  23
TORSDOF 4
ENDMDL
MODEL 10
REMARK VINA RESULT:      -8.1      1.950      3.532
REMARK  4 active torsions:
REMARK  status: ('A' for Active; 'I' for Inactive)
REMARK    1  A    between atoms: C3_11  and  N1_7 
REMARK       I    between atoms: C7_15  and  N1_7 
REMARK    2  A    between atoms: C15_23  and  N2_8 
REMARK    3  A    between atoms: C1_9  and  C3_11 
REMARK    4  A    between atoms: C7_15  and  C8_16 
ROOT
HETATM    1  O2  UNK     1      20.770  -2.476  30.957  1.00  0.00    -0.274 OA
HETATM    2  O4  UNK     1      21.242  -3.896  32.683  1.00  0.00    -0.259 OA
HETATM    3  C8  UNK     1      20.023  -1.937  33.222  1.00  0.00     0.108 A 
HETATM    4  C9  UNK     1      19.460  -0.801  32.795  1.00  0.00     0.037 A 
HETATM    5  C10 UNK     1      19.525  -0.433  31.390  1.00  0.00     0.001 A 
HETATM    6  C11 UNK     1      20.725  -2.854  32.297  1.00  0.00     0.304 A 
HETATM    7  C12 UNK     1      20.179  -1.281  30.501  1.00  0.00     0.089 A 
HETATM    8  C13 UNK     1      18.953   0.744  30.899  1.00  0.00     0.050 A 
HETATM    9  C14 UNK     1      20.276  -0.988  29.143  1.00  0.00     0.041 A 
HETATM   10  C15 UNK     1      19.042   1.051  29.540  1.00  0.00     0.103 A 
HETATM   11  C16 UNK     1      19.702   0.188  28.663  1.00  0.00     0.039 A 
ENDROOT
BRANCH   3  12
HETATM   12  C7  UNK     1      19.905  -2.220  34.658  1.00  0.00     0.258 C 
HETATM   13  O3  UNK     1      20.793  -2.826  35.256  1.00  0.00    -0.267 OA
HETATM   14  N1  UNK     1      18.729  -1.743  35.206  1.00  0.00    -0.350 N 
HETATM   15  H12 UNK     1      18.071  -1.231  34.628  1.00  0.00     0.163 HD
BRANCH  14  16
HETATM   16  C3  UNK     1      18.387  -1.904  36.602  1.00  0.00     0.109 C 
HETATM   17  C6  UNK     1      19.512  -2.618  37.338  1.00  0.00     0.035 C 
BRANCH  16  18
HETATM   18  C1  UNK     1      18.081  -0.561  37.234  1.00  0.00     0.143 C 
HETATM   19  O1  UNK     1      18.955   0.445  36.692  1.00  0.00    -0.384 OA
HETATM   20  C5  UNK     1      18.189   1.636  36.463  1.00  0.00     0.168 C 
HETATM   21  C4  UNK     1      16.832   1.418  37.098  1.00  0.00     0.029 C 
HETATM   22  C2  UNK     1      16.666  -0.075  36.972  1.00  0.00     0.036 C 
ENDBRANCH  16  18
ENDBRANCH  14  16
ENDBRANCH   3  12
BRANCH  10  23
HETATM   23  N2  UNK     1      18.458   2.248  29.045  1.00  0.00    -0.116 N 
HETATM   24  O5  UNK     1      18.621   3.315  29.685  1.00  0.00    -0.532 OA
HETATM   25  O6  UNK     1      17.794   2.204  27.981  1.00  0.00    -0.532 OA
ENDBRANCH  10  23
TORSDOF 4
ENDMDL
