MODEL 1
REMARK VINA RESULT:      -8.0      0.000      0.000
REMARK  3 active torsions:
REMARK  status: ('A' for Active; 'I' for Inactive)
REMARK    1  A    between atoms: C9_13  and  O2_2 
REMARK    2  A    between atoms: C13_17  and  O3_3 
REMARK    3  A    between atoms: C3_7  and  C4_8 
ROOT
HETATM    1  O1  UNK     1      19.150   2.955  30.344  1.00  0.00    -0.309 OA
HETATM    2  O4  UNK     1      17.728   3.147  34.157  1.00  0.00    -0.287 OA
HETATM    3  C1  UNK     1      18.276   4.299  32.168  1.00  0.00     0.051 A 
HETATM    4  C2  UNK     1      18.772   4.163  30.872  1.00  0.00     0.090 A 
HETATM    5  C3  UNK     1      19.025   1.821  31.130  1.00  0.00     0.090 A 
HETATM    6  C5  UNK     1      18.151   3.099  33.010  1.00  0.00     0.187 A 
HETATM    7  C6  UNK     1      18.568   1.824  32.393  1.00  0.00     0.093 A 
HETATM    8  C7  UNK     1      17.905   5.555  32.654  1.00  0.00     0.055 A 
HETATM    9  C8  UNK     1      18.901   5.285  30.054  1.00  0.00     0.041 A 
HETATM   10  C9  UNK     1      18.035   6.676  31.832  1.00  0.00     0.069 A 
HETATM   11  C11 UNK     1      18.533   6.541  30.535  1.00  0.00     0.039 A 
ENDROOT
BRANCH   5  12
HETATM   12  C4  UNK     1      19.466   0.577  30.467  1.00  0.00     0.001 A 
HETATM   13  C10 UNK     1      19.862  -0.524  31.231  1.00  0.00     0.051 A 
HETATM   14  C13 UNK     1      20.279  -1.698  30.604  1.00  0.00     0.069 A 
HETATM   15  C15 UNK     1      20.301  -1.774  29.212  1.00  0.00     0.037 A 
HETATM   16  C14 UNK     1      19.907  -0.677  28.445  1.00  0.00     0.004 A 
HETATM   17  C12 UNK     1      19.490   0.497  29.072  1.00  0.00     0.014 A 
BRANCH  14  18
HETATM   18  O3  UNK     1      20.664  -2.768  31.351  1.00  0.00    -0.356 OA
HETATM   19  C17 UNK     1      20.937  -2.532  32.731  1.00  0.00     0.210 C 
ENDBRANCH  14  18
ENDBRANCH   5  12
BRANCH  10  20
HETATM   20  O2  UNK     1      17.678   7.905  32.298  1.00  0.00    -0.356 OA
HETATM   21  C16 UNK     1      18.201   8.295  33.566  1.00  0.00     0.210 C 
ENDBRANCH  10  20
TORSDOF 3
ENDMDL
MODEL 2
REMARK VINA RESULT:      -7.7      5.918     11.355
REMARK  3 active torsions:
REMARK  status: ('A' for Active; 'I' for Inactive)
REMARK    1  A    between atoms: C9_13  and  O2_2 
REMARK    2  A    between atoms: C13_17  and  O3_3 
REMARK    3  A    between atoms: C3_7  and  C4_8 
ROOT
HETATM    1  O1  UNK     1      18.720  -4.605  36.491  1.00  0.00    -0.309 OA
HETATM    2  O4  UNK     1      22.367  -5.402  38.122  1.00  0.00    -0.287 OA
HETATM    3  C1  UNK     1      20.381  -6.246  37.160  1.00  0.00     0.051 A 
HETATM    4  C2  UNK     1      19.145  -5.903  36.614  1.00  0.00     0.090 A 
HETATM    5  C3  UNK     1      19.560  -3.591  36.922  1.00  0.00     0.090 A 
HETATM    6  C5  UNK     1      21.272  -5.173  37.628  1.00  0.00     0.187 A 
HETATM    7  C6  UNK     1      20.769  -3.794  37.471  1.00  0.00     0.093 A 
HETATM    8  C7  UNK     1      20.763  -7.586  37.260  1.00  0.00     0.055 A 
HETATM    9  C8  UNK     1      18.281  -6.902  36.163  1.00  0.00     0.041 A 
HETATM   10  C9  UNK     1      19.896  -8.583  36.808  1.00  0.00     0.069 A 
HETATM   11  C11 UNK     1      18.658  -8.241  36.262  1.00  0.00     0.039 A 
ENDROOT
BRANCH   5  12
HETATM   12  C4  UNK     1      19.003  -2.235  36.750  1.00  0.00     0.001 A 
HETATM   13  C10 UNK     1      19.157  -1.562  35.534  1.00  0.00     0.051 A 
HETATM   14  C13 UNK     1      18.631  -0.280  35.372  1.00  0.00     0.069 A 
HETATM   15  C15 UNK     1      17.951   0.333  36.424  1.00  0.00     0.037 A 
HETATM   16  C14 UNK     1      17.795  -0.335  37.639  1.00  0.00     0.004 A 
HETATM   17  C12 UNK     1      18.321  -1.617  37.802  1.00  0.00     0.014 A 
BRANCH  14  18
HETATM   18  O3  UNK     1      18.783   0.373  34.188  1.00  0.00    -0.356 OA
HETATM   19  C17 UNK     1      18.193   1.668  34.080  1.00  0.00     0.210 C 
ENDBRANCH  14  18
ENDBRANCH   5  12
BRANCH  10  20
HETATM   20  O2  UNK     1      20.258  -9.892  36.903  1.00  0.00    -0.356 OA
HETATM   21  C16 UNK     1      19.639 -10.664  37.929  1.00  0.00     0.210 C 
ENDBRANCH  10  20
TORSDOF 3
ENDMDL
MODEL 3
REMARK VINA RESULT:      -7.7     22.743     24.482
REMARK  3 active torsions:
REMARK  status: ('A' for Active; 'I' for Inactive)
REMARK    1  A    between atoms: C9_13  and  O2_2 
REMARK    2  A    between atoms: C13_17  and  O3_3 
REMARK    3  A    between atoms: C3_7  and  C4_8 
ROOT
HETATM    1  O1  UNK     1      12.969   8.221   8.057  1.00  0.00    -0.309 OA
HETATM    2  O4  UNK     1      14.836   5.681  10.637  1.00  0.00    -0.287 OA
HETATM    3  C1  UNK     1      14.872   7.745   9.488  1.00  0.00     0.051 A 
HETATM    4  C2  UNK     1      14.180   8.566   8.599  1.00  0.00     0.090 A 
HETATM    5  C3  UNK     1      12.404   7.007   8.418  1.00  0.00     0.090 A 
HETATM    6  C5  UNK     1      14.282   6.452   9.866  1.00  0.00     0.187 A 
HETATM    7  C6  UNK     1      12.976   6.130   9.259  1.00  0.00     0.093 A 
HETATM    8  C7  UNK     1      16.104   8.149  10.009  1.00  0.00     0.055 A 
HETATM    9  C8  UNK     1      14.719   9.797   8.223  1.00  0.00     0.041 A 
HETATM   10  C9  UNK     1      16.640   9.381   9.632  1.00  0.00     0.069 A 
HETATM   11  C11 UNK     1      15.949  10.203   8.740  1.00  0.00     0.039 A 
ENDROOT
BRANCH   5  12
HETATM   12  C4  UNK     1      11.104   6.734   7.774  1.00  0.00     0.001 A 
HETATM   13  C10 UNK     1       9.924   6.793   8.520  1.00  0.00     0.051 A 
HETATM   14  C13 UNK     1       8.696   6.533   7.912  1.00  0.00     0.069 A 
HETATM   15  C15 UNK     1       8.645   6.213   6.556  1.00  0.00     0.037 A 
HETATM   16  C14 UNK     1       9.820   6.152   5.807  1.00  0.00     0.004 A 
HETATM   17  C12 UNK     1      11.048   6.412   6.415  1.00  0.00     0.014 A 
BRANCH  14  18
HETATM   18  O3  UNK     1       7.549   6.592   8.642  1.00  0.00    -0.356 OA
HETATM   19  C17 UNK     1       7.535   5.893   9.886  1.00  0.00     0.210 C 
ENDBRANCH  14  18
ENDBRANCH   5  12
BRANCH  10  20
HETATM   20  O2  UNK     1      17.841   9.782  10.133  1.00  0.00    -0.356 OA
HETATM   21  C16 UNK     1      18.247  11.119   9.852  1.00  0.00     0.210 C 
ENDBRANCH  10  20
TORSDOF 3
ENDMDL
MODEL 4
REMARK VINA RESULT:      -7.7     13.107     15.698
REMARK  3 active torsions:
REMARK  status: ('A' for Active; 'I' for Inactive)
REMARK    1  A    between atoms: C9_13  and  O2_2 
REMARK    2  A    between atoms: C13_17  and  O3_3 
REMARK    3  A    between atoms: C3_7  and  C4_8 
ROOT
HETATM    1  O1  UNK     1      19.179  -1.127  16.638  1.00  0.00    -0.309 OA
HETATM    2  O4  UNK     1      19.337   2.834  15.700  1.00  0.00    -0.287 OA
HETATM    3  C1  UNK     1      19.177   1.184  17.384  1.00  0.00     0.051 A 
HETATM    4  C2  UNK     1      19.126  -0.186  17.634  1.00  0.00     0.090 A 
HETATM    5  C3  UNK     1      19.298  -0.695  15.326  1.00  0.00     0.090 A 
HETATM    6  C5  UNK     1      19.292   1.648  15.992  1.00  0.00     0.187 A 
HETATM    7  C6  UNK     1      19.349   0.595  14.958  1.00  0.00     0.093 A 
HETATM    8  C7  UNK     1      19.118   2.098  18.439  1.00  0.00     0.055 A 
HETATM    9  C8  UNK     1      19.015  -0.651  18.945  1.00  0.00     0.041 A 
HETATM   10  C9  UNK     1      19.008   1.630  19.749  1.00  0.00     0.069 A 
HETATM   11  C11 UNK     1      18.956   0.258  20.001  1.00  0.00     0.039 A 
ENDROOT
BRANCH   5  12
HETATM   12  C4  UNK     1      19.341  -1.788  14.335  1.00  0.00     0.001 A 
HETATM   13  C10 UNK     1      18.550  -2.927  14.511  1.00  0.00     0.051 A 
HETATM   14  C13 UNK     1      18.592  -3.961  13.575  1.00  0.00     0.069 A 
HETATM   15  C15 UNK     1      19.424  -3.858  12.461  1.00  0.00     0.037 A 
HETATM   16  C14 UNK     1      20.215  -2.723  12.281  1.00  0.00     0.004 A 
HETATM   17  C12 UNK     1      20.174  -1.690  13.217  1.00  0.00     0.014 A 
BRANCH  14  18
HETATM   18  O3  UNK     1      17.821  -5.068  13.750  1.00  0.00    -0.356 OA
HETATM   19  C17 UNK     1      17.609  -5.507  15.091  1.00  0.00     0.210 C 
ENDBRANCH  14  18
ENDBRANCH   5  12
BRANCH  10  20
HETATM   20  O2  UNK     1      18.949   2.513  20.784  1.00  0.00    -0.356 OA
HETATM   21  C16 UNK     1      19.826   2.282  21.884  1.00  0.00     0.210 C 
ENDBRANCH  10  20
TORSDOF 3
ENDMDL
MODEL 5
REMARK VINA RESULT:      -7.7     12.678     16.785
REMARK  3 active torsions:
REMARK  status: ('A' for Active; 'I' for Inactive)
REMARK    1  A    between atoms: C9_13  and  O2_2 
REMARK    2  A    between atoms: C13_17  and  O3_3 
REMARK    3  A    between atoms: C3_7  and  C4_8 
ROOT
HETATM    1  O1  UNK     1      20.420  -1.957  17.442  1.00  0.00    -0.309 OA
HETATM    2  O4  UNK     1      17.670  -3.339  14.773  1.00  0.00    -0.287 OA
HETATM    3  C1  UNK     1      19.785  -3.619  15.789  1.00  0.00     0.051 A 
HETATM    4  C2  UNK     1      20.682  -3.091  16.716  1.00  0.00     0.090 A 
HETATM    5  C3  UNK     1      19.207  -1.314  17.250  1.00  0.00     0.090 A 
HETATM    6  C5  UNK     1      18.501  -2.934  15.574  1.00  0.00     0.187 A 
HETATM    7  C6  UNK     1      18.267  -1.720  16.382  1.00  0.00     0.093 A 
HETATM    8  C7  UNK     1      20.105  -4.778  15.078  1.00  0.00     0.055 A 
HETATM    9  C8  UNK     1      21.907  -3.721  16.938  1.00  0.00     0.041 A 
HETATM   10  C9  UNK     1      21.331  -5.406  15.302  1.00  0.00     0.069 A 
HETATM   11  C11 UNK     1      22.230  -4.878  16.229  1.00  0.00     0.039 A 
ENDROOT
BRANCH   5  12
HETATM   12  C4  UNK     1      19.031  -0.103  18.075  1.00  0.00     0.001 A 
HETATM   13  C10 UNK     1      19.307   1.159  17.540  1.00  0.00     0.051 A 
HETATM   14  C13 UNK     1      19.142   2.303  18.320  1.00  0.00     0.069 A 
HETATM   15  C15 UNK     1      18.701   2.189  19.638  1.00  0.00     0.037 A 
HETATM   16  C14 UNK     1      18.425   0.932  20.177  1.00  0.00     0.004 A 
HETATM   17  C12 UNK     1      18.590  -0.212  19.397  1.00  0.00     0.014 A 
BRANCH  14  18
HETATM   18  O3  UNK     1      19.411   3.529  17.796  1.00  0.00    -0.356 OA
HETATM   19  C17 UNK     1      20.444   4.290  18.420  1.00  0.00     0.210 C 
ENDBRANCH  14  18
ENDBRANCH   5  12
BRANCH  10  20
HETATM   20  O2  UNK     1      21.652  -6.535  14.612  1.00  0.00    -0.356 OA
HETATM   21  C16 UNK     1      20.755  -6.943  13.581  1.00  0.00     0.210 C 
ENDBRANCH  10  20
TORSDOF 3
ENDMDL
MODEL 6
REMARK VINA RESULT:      -7.7      2.852      7.944
REMARK  3 active torsions:
REMARK  status: ('A' for Active; 'I' for Inactive)
REMARK    1  A    between atoms: C9_13  and  O2_2 
REMARK    2  A    between atoms: C13_17  and  O3_3 
REMARK    3  A    between atoms: C3_7  and  C4_8 
ROOT
HETATM    1  O1  UNK     1      18.385   3.947  34.606  1.00  0.00    -0.309 OA
HETATM    2  O4  UNK     1      18.190   1.680  31.227  1.00  0.00    -0.287 OA
HETATM    3  C1  UNK     1      18.343   1.745  33.583  1.00  0.00     0.051 A 
HETATM    4  C2  UNK     1      18.408   2.579  34.698  1.00  0.00     0.090 A 
HETATM    5  C3  UNK     1      18.283   4.523  33.349  1.00  0.00     0.090 A 
HETATM    6  C5  UNK     1      18.245   2.352  32.247  1.00  0.00     0.187 A 
HETATM    7  C6  UNK     1      18.220   3.828  32.203  1.00  0.00     0.093 A 
HETATM    8  C7  UNK     1      18.371   0.356  33.737  1.00  0.00     0.055 A 
HETATM    9  C8  UNK     1      18.503   2.028  35.977  1.00  0.00     0.041 A 
HETATM   10  C9  UNK     1      18.465  -0.191  35.018  1.00  0.00     0.069 A 
HETATM   11  C11 UNK     1      18.531   0.643  36.135  1.00  0.00     0.039 A 
ENDROOT
BRANCH   5  12
HETATM   12  C4  UNK     1      18.271   6.000  33.364  1.00  0.00     0.001 A 
HETATM   13  C10 UNK     1      17.288   6.702  32.661  1.00  0.00     0.051 A 
HETATM   14  C13 UNK     1      17.278   8.096  32.674  1.00  0.00     0.069 A 
HETATM   15  C15 UNK     1      18.251   8.793  33.390  1.00  0.00     0.037 A 
HETATM   16  C14 UNK     1      19.235   8.097  34.093  1.00  0.00     0.004 A 
HETATM   17  C12 UNK     1      19.245   6.702  34.080  1.00  0.00     0.014 A 
BRANCH  14  18
HETATM   18  O3  UNK     1      16.319   8.776  31.989  1.00  0.00    -0.356 OA
HETATM   19  C17 UNK     1      15.169   9.194  32.724  1.00  0.00     0.210 C 
ENDBRANCH  14  18
ENDBRANCH   5  12
BRANCH  10  20
HETATM   20  O2  UNK     1      18.495  -1.544  35.177  1.00  0.00    -0.356 OA
HETATM   21  C16 UNK     1      18.498  -2.039  36.515  1.00  0.00     0.210 C 
ENDBRANCH  10  20
TORSDOF 3
ENDMDL
MODEL 7
REMARK VINA RESULT:      -7.6      2.991      5.462
REMARK  3 active torsions:
REMARK  status: ('A' for Active; 'I' for Inactive)
REMARK    1  A    between atoms: C9_13  and  O2_2 
REMARK    2  A    between atoms: C13_17  and  O3_3 
REMARK    3  A    between atoms: C3_7  and  C4_8 
ROOT
HETATM    1  O1  UNK     1      17.059   7.413  32.418  1.00  0.00    -0.309 OA
HETATM    2  O4  UNK     1      20.032   9.199  34.556  1.00  0.00    -0.287 OA
HETATM    3  C1  UNK     1      17.808   9.290  33.765  1.00  0.00     0.051 A 
HETATM    4  C2  UNK     1      16.836   8.626  33.019  1.00  0.00     0.090 A 
HETATM    5  C3  UNK     1      18.303   6.820  32.569  1.00  0.00     0.090 A 
HETATM    6  C5  UNK     1      19.132   8.669  33.919  1.00  0.00     0.187 A 
HETATM    7  C6  UNK     1      19.321   7.363  33.257  1.00  0.00     0.093 A 
HETATM    8  C7  UNK     1      17.524  10.525  34.355  1.00  0.00     0.055 A 
HETATM    9  C8  UNK     1      15.572   9.193  32.857  1.00  0.00     0.041 A 
HETATM   10  C9  UNK     1      16.258  11.090  34.191  1.00  0.00     0.069 A 
HETATM   11  C11 UNK     1      15.285  10.426  33.443  1.00  0.00     0.039 A 
ENDROOT
BRANCH   5  12
HETATM   12  C4  UNK     1      18.438   5.522  31.878  1.00  0.00     0.001 A 
HETATM   13  C10 UNK     1      18.076   4.339  32.530  1.00  0.00     0.051 A 
HETATM   14  C13 UNK     1      18.205   3.113  31.878  1.00  0.00     0.069 A 
HETATM   15  C15 UNK     1      18.694   3.065  30.573  1.00  0.00     0.037 A 
HETATM   16  C14 UNK     1      19.057   4.243  29.919  1.00  0.00     0.004 A 
HETATM   17  C12 UNK     1      18.928   5.470  30.571  1.00  0.00     0.014 A 
BRANCH  14  18
HETATM   18  O3  UNK     1      17.852   1.963  32.515  1.00  0.00    -0.356 OA
HETATM   19  C17 UNK     1      18.077   1.906  33.923  1.00  0.00     0.210 C 
ENDBRANCH  14  18
ENDBRANCH   5  12
BRANCH  10  20
HETATM   20  O2  UNK     1      15.973  12.293  34.761  1.00  0.00    -0.356 OA
HETATM   21  C16 UNK     1      17.051  12.989  35.383  1.00  0.00     0.210 C 
ENDBRANCH  10  20
TORSDOF 3
ENDMDL
MODEL 8
REMARK VINA RESULT:      -7.6      2.175      4.020
REMARK  3 active torsions:
REMARK  status: ('A' for Active; 'I' for Inactive)
REMARK    1  A    between atoms: C9_13  and  O2_2 
REMARK    2  A    between atoms: C13_17  and  O3_3 
REMARK    3  A    between atoms: C3_7  and  C4_8 
ROOT
HETATM    1  O1  UNK     1      16.962   5.587  32.394  1.00  0.00    -0.309 OA
HETATM    2  O4  UNK     1      20.070   7.815  33.799  1.00  0.00    -0.287 OA
HETATM    3  C1  UNK     1      17.730   7.547  33.604  1.00  0.00     0.051 A 
HETATM    4  C2  UNK     1      16.715   6.740  33.094  1.00  0.00     0.090 A 
HETATM    5  C3  UNK     1      18.279   5.205  32.192  1.00  0.00     0.090 A 
HETATM    6  C5  UNK     1      19.130   7.151  33.384  1.00  0.00     0.187 A 
HETATM    7  C6  UNK     1      19.342   5.901  32.628  1.00  0.00     0.093 A 
HETATM    8  C7  UNK     1      17.420   8.712  34.311  1.00  0.00     0.055 A 
HETATM    9  C8  UNK     1      15.379   7.094  33.288  1.00  0.00     0.041 A 
HETATM   10  C9  UNK     1      16.082   9.063  34.504  1.00  0.00     0.069 A 
HETATM   11  C11 UNK     1      15.065   8.255  33.993  1.00  0.00     0.039 A 
ENDROOT
BRANCH   5  12
HETATM   12  C4  UNK     1      18.432   3.954  31.423  1.00  0.00     0.001 A 
HETATM   13  C10 UNK     1      18.458   2.723  32.083  1.00  0.00     0.051 A 
HETATM   14  C13 UNK     1      18.603   1.541  31.356  1.00  0.00     0.069 A 
HETATM   15  C15 UNK     1      18.723   1.587  29.968  1.00  0.00     0.037 A 
HETATM   16  C14 UNK     1      18.698   2.815  29.305  1.00  0.00     0.004 A 
HETATM   17  C12 UNK     1      18.552   3.997  30.031  1.00  0.00     0.014 A 
BRANCH  14  18
HETATM   18  O3  UNK     1      18.628   0.344  32.002  1.00  0.00    -0.356 OA
HETATM   19  C17 UNK     1      19.522  -0.648  31.498  1.00  0.00     0.210 C 
ENDBRANCH  14  18
ENDBRANCH   5  12
BRANCH  10  20
HETATM   20  O2  UNK     1      15.770  10.197  35.190  1.00  0.00    -0.356 OA
HETATM   21  C16 UNK     1      16.261  11.428  34.666  1.00  0.00     0.210 C 
ENDBRANCH  10  20
TORSDOF 3
ENDMDL
MODEL 9
REMARK VINA RESULT:      -7.5      2.644      7.254
REMARK  3 active torsions:
REMARK  status: ('A' for Active; 'I' for Inactive)
REMARK    1  A    between atoms: C9_13  and  O2_2 
REMARK    2  A    between atoms: C13_17  and  O3_3 
REMARK    3  A    between atoms: C3_7  and  C4_8 
ROOT
HETATM    1  O1  UNK     1      18.163   3.085  34.085  1.00  0.00    -0.309 OA
HETATM    2  O4  UNK     1      18.665  -0.500  32.216  1.00  0.00    -0.287 OA
HETATM    3  C1  UNK     1      18.329   0.667  34.243  1.00  0.00     0.051 A 
HETATM    4  C2  UNK     1      18.164   1.926  34.818  1.00  0.00     0.090 A 
HETATM    5  C3  UNK     1      18.324   2.998  32.711  1.00  0.00     0.090 A 
HETATM    6  C5  UNK     1      18.510   0.571  32.786  1.00  0.00     0.187 A 
HETATM    7  C6  UNK     1      18.498   1.846  32.042  1.00  0.00     0.093 A 
HETATM    8  C7  UNK     1      18.321  -0.480  35.039  1.00  0.00     0.055 A 
HETATM    9  C8  UNK     1      17.992   2.045  36.197  1.00  0.00     0.041 A 
HETATM   10  C9  UNK     1      18.148  -0.358  36.419  1.00  0.00     0.069 A 
HETATM   11  C11 UNK     1      17.984   0.902  36.997  1.00  0.00     0.039 A 
ENDROOT
BRANCH   5  12
HETATM   12  C4  UNK     1      18.313   4.303  32.020  1.00  0.00     0.001 A 
HETATM   13  C10 UNK     1      17.627   5.386  32.577  1.00  0.00     0.051 A 
HETATM   14  C13 UNK     1      17.616   6.619  31.924  1.00  0.00     0.069 A 
HETATM   15  C15 UNK     1      18.291   6.772  30.713  1.00  0.00     0.037 A 
HETATM   16  C14 UNK     1      18.977   5.694  30.154  1.00  0.00     0.004 A 
HETATM   17  C12 UNK     1      18.988   4.461  30.807  1.00  0.00     0.014 A 
BRANCH  14  18
HETATM   18  O3  UNK     1      16.947   7.671  32.469  1.00  0.00    -0.356 OA
HETATM   19  C17 UNK     1      15.811   8.158  31.755  1.00  0.00     0.210 C 
ENDBRANCH  14  18
ENDBRANCH   5  12
BRANCH  10  20
HETATM   20  O2  UNK     1      18.141  -1.471  37.204  1.00  0.00    -0.356 OA
HETATM   21  C16 UNK     1      18.920  -2.581  36.763  1.00  0.00     0.210 C 
ENDBRANCH  10  20
TORSDOF 3
ENDMDL
MODEL 10
REMARK VINA RESULT:      -7.4     13.965     17.512
REMARK  3 active torsions:
REMARK  status: ('A' for Active; 'I' for Inactive)
REMARK    1  A    between atoms: C9_13  and  O2_2 
REMARK    2  A    between atoms: C13_17  and  O3_3 
REMARK    3  A    between atoms: C3_7  and  C4_8 
ROOT
HETATM    1  O1  UNK     1      19.459  -0.502  14.867  1.00  0.00    -0.309 OA
HETATM    2  O4  UNK     1      17.614  -4.009  15.815  1.00  0.00    -0.287 OA
HETATM    3  C1  UNK     1      18.807  -2.748  14.211  1.00  0.00     0.051 A 
HETATM    4  C2  UNK     1      19.419  -1.523  13.952  1.00  0.00     0.090 A 
HETATM    5  C3  UNK     1      18.872  -0.702  16.106  1.00  0.00     0.090 A 
HETATM    6  C5  UNK     1      18.174  -2.961  15.522  1.00  0.00     0.187 A 
HETATM    7  C6  UNK     1      18.247  -1.833  16.472  1.00  0.00     0.093 A 
HETATM    8  C7  UNK     1      18.797  -3.753  13.241  1.00  0.00     0.055 A 
HETATM    9  C8  UNK     1      20.026  -1.296  12.716  1.00  0.00     0.041 A 
HETATM   10  C9  UNK     1      19.405  -3.522  12.006  1.00  0.00     0.069 A 
HETATM   11  C11 UNK     1      20.018  -2.296  11.744  1.00  0.00     0.039 A 
ENDROOT
BRANCH   5  12
HETATM   12  C4  UNK     1      18.968   0.460  17.011  1.00  0.00     0.001 A 
HETATM   13  C10 UNK     1      18.797   0.294  18.389  1.00  0.00     0.051 A 
HETATM   14  C13 UNK     1      18.885   1.393  19.243  1.00  0.00     0.069 A 
HETATM   15  C15 UNK     1      19.146   2.661  18.724  1.00  0.00     0.037 A 
HETATM   16  C14 UNK     1      19.316   2.831  17.349  1.00  0.00     0.004 A 
HETATM   17  C12 UNK     1      19.228   1.732  16.495  1.00  0.00     0.014 A 
BRANCH  14  18
HETATM   18  O3  UNK     1      18.719   1.228  20.584  1.00  0.00    -0.356 OA
HETATM   19  C17 UNK     1      19.633   1.911  21.441  1.00  0.00     0.210 C 
ENDBRANCH  14  18
ENDBRANCH   5  12
BRANCH  10  20
HETATM   20  O2  UNK     1      19.399  -4.495  11.053  1.00  0.00    -0.356 OA
HETATM   21  C16 UNK     1      18.608  -4.259   9.890  1.00  0.00     0.210 C 
ENDBRANCH  10  20
TORSDOF 3
ENDMDL
