MODEL 1
REMARK VINA RESULT:      -7.3      0.000      0.000
REMARK  6 active torsions:
REMARK  status: ('A' for Active; 'I' for Inactive)
REMARK    1  A    between atoms: C3_7  and  O1_1 
REMARK    2  A    between atoms: C10_14  and  O2_2 
REMARK    3  A    between atoms: C15_19  and  O4_4 
REMARK    4  A    between atoms: C1_5  and  C4_8 
REMARK    5  A    between atoms: C2_6  and  C6_10 
REMARK    6  A    between atoms: C4_8  and  C7_11 
ROOT
HETATM    1  O3  UNK     1      18.520   9.671  33.109  1.00  0.00    -0.287 OA
HETATM    2  C4  UNK     1      18.030   8.738  33.736  1.00  0.00     0.184 C 
ENDROOT
BRANCH   2   3
HETATM    3  C1  UNK     1      16.662   8.269  33.406  1.00  0.00     0.047 A 
HETATM    4  C3  UNK     1      16.338   7.951  32.102  1.00  0.00     0.082 A 
HETATM    5  C8  UNK     1      15.046   7.509  31.813  1.00  0.00     0.074 A 
HETATM    6  C10 UNK     1      14.103   7.397  32.835  1.00  0.00     0.068 A 
HETATM    7  C9  UNK     1      14.452   7.723  34.145  1.00  0.00     0.037 A 
HETATM    8  C5  UNK     1      15.743   8.165  34.434  1.00  0.00     0.021 A 
BRANCH   4   9
HETATM    9  O1  UNK     1      17.245   8.057  31.090  1.00  0.00    -0.360 OA
HETATM   10  H10 UNK     1      18.063   7.587  31.313  1.00  0.00     0.217 HD
ENDBRANCH   4   9
BRANCH   6  11
HETATM   11  O2  UNK     1      12.843   6.967  32.553  1.00  0.00    -0.361 OA
HETATM   12  H11 UNK     1      12.222   7.705  32.682  1.00  0.00     0.217 HD
ENDBRANCH   6  11
ENDBRANCH   2   3
BRANCH   2  13
HETATM   13  C7  UNK     1      18.766   8.020  34.812  1.00  0.00     0.056 C 
HETATM   14  C6  UNK     1      19.310   6.805  34.575  1.00  0.00     0.015 C 
BRANCH  14  15
HETATM   15  C2  UNK     1      19.245   6.091  33.310  1.00  0.00    -0.036 A 
HETATM   16  C11 UNK     1      18.294   5.089  33.121  1.00  0.00     0.014 A 
HETATM   17  C13 UNK     1      18.233   4.405  31.907  1.00  0.00     0.037 A 
HETATM   18  C15 UNK     1      19.124   4.722  30.882  1.00  0.00     0.065 A 
HETATM   19  C14 UNK     1      20.076   5.723  31.070  1.00  0.00     0.037 A 
HETATM   20  C12 UNK     1      20.136   6.408  32.284  1.00  0.00     0.014 A 
BRANCH  18  21
HETATM   21  O4  UNK     1      19.065   4.053  29.698  1.00  0.00    -0.361 OA
HETATM   22  H12 UNK     1      19.964   3.781  29.445  1.00  0.00     0.217 HD
ENDBRANCH  18  21
ENDBRANCH  14  15
ENDBRANCH   2  13
TORSDOF 6
ENDMDL
MODEL 2
REMARK VINA RESULT:      -7.0      3.703      7.416
REMARK  6 active torsions:
REMARK  status: ('A' for Active; 'I' for Inactive)
REMARK    1  A    between atoms: C3_7  and  O1_1 
REMARK    2  A    between atoms: C10_14  and  O2_2 
REMARK    3  A    between atoms: C15_19  and  O4_4 
REMARK    4  A    between atoms: C1_5  and  C4_8 
REMARK    5  A    between atoms: C2_6  and  C6_10 
REMARK    6  A    between atoms: C4_8  and  C7_11 
ROOT
HETATM    1  O3  UNK     1      17.951   2.658  31.752  1.00  0.00    -0.287 OA
HETATM    2  C4  UNK     1      18.557   2.400  30.717  1.00  0.00     0.184 C 
ENDROOT
BRANCH   2   3
HETATM    3  C1  UNK     1      19.147   1.053  30.528  1.00  0.00     0.047 A 
HETATM    4  C3  UNK     1      19.229   0.180  31.596  1.00  0.00     0.082 A 
HETATM    5  C8  UNK     1      19.785  -1.084  31.395  1.00  0.00     0.074 A 
HETATM    6  C10 UNK     1      20.250  -1.450  30.132  1.00  0.00     0.068 A 
HETATM    7  C9  UNK     1      20.156  -0.552  29.068  1.00  0.00     0.037 A 
HETATM    8  C5  UNK     1      19.601   0.711  29.267  1.00  0.00     0.021 A 
BRANCH   4   9
HETATM    9  O1  UNK     1      18.782   0.520  32.837  1.00  0.00    -0.360 OA
HETATM   10  H10 UNK     1      18.243  -0.191  33.214  1.00  0.00     0.217 HD
ENDBRANCH   4   9
BRANCH   6  11
HETATM   11  O2  UNK     1      20.793  -2.682  29.937  1.00  0.00    -0.361 OA
HETATM   12  H11 UNK     1      21.612  -2.752  30.458  1.00  0.00     0.217 HD
ENDBRANCH   6  11
ENDBRANCH   2   3
BRANCH   2  13
HETATM   13  C7  UNK     1      18.706   3.383  29.609  1.00  0.00     0.056 C 
HETATM   14  C6  UNK     1      18.877   4.696  29.878  1.00  0.00     0.015 C 
BRANCH  14  15
HETATM   15  C2  UNK     1      18.933   5.279  31.209  1.00  0.00    -0.036 A 
HETATM   16  C11 UNK     1      17.761   5.462  31.941  1.00  0.00     0.014 A 
HETATM   17  C13 UNK     1      17.815   6.020  33.218  1.00  0.00     0.037 A 
HETATM   18  C15 UNK     1      19.043   6.396  33.764  1.00  0.00     0.065 A 
HETATM   19  C14 UNK     1      20.216   6.214  33.032  1.00  0.00     0.037 A 
HETATM   20  C12 UNK     1      20.161   5.654  31.755  1.00  0.00     0.014 A 
BRANCH  18  21
HETATM   21  O4  UNK     1      19.096   6.942  35.009  1.00  0.00    -0.361 OA
HETATM   22  H12 UNK     1      18.586   7.770  35.012  1.00  0.00     0.217 HD
ENDBRANCH  18  21
ENDBRANCH  14  15
ENDBRANCH   2  13
TORSDOF 6
ENDMDL
MODEL 3
REMARK VINA RESULT:      -7.0     14.248     15.805
REMARK  6 active torsions:
REMARK  status: ('A' for Active; 'I' for Inactive)
REMARK    1  A    between atoms: C3_7  and  O1_1 
REMARK    2  A    between atoms: C10_14  and  O2_2 
REMARK    3  A    between atoms: C15_19  and  O4_4 
REMARK    4  A    between atoms: C1_5  and  C4_8 
REMARK    5  A    between atoms: C2_6  and  C6_10 
REMARK    6  A    between atoms: C4_8  and  C7_11 
ROOT
HETATM    1  O3  UNK     1      21.585  -5.225  37.274  1.00  0.00    -0.287 OA
HETATM    2  C4  UNK     1      20.767  -6.016  37.730  1.00  0.00     0.184 C 
ENDROOT
BRANCH   2   3
HETATM    3  C1  UNK     1      19.631  -6.464  36.888  1.00  0.00     0.047 A 
HETATM    4  C3  UNK     1      19.868  -6.977  35.627  1.00  0.00     0.082 A 
HETATM    5  C8  UNK     1      18.785  -7.395  34.853  1.00  0.00     0.074 A 
HETATM    6  C10 UNK     1      17.487  -7.291  35.353  1.00  0.00     0.068 A 
HETATM    7  C9  UNK     1      17.272  -6.770  36.629  1.00  0.00     0.037 A 
HETATM    8  C5  UNK     1      18.353  -6.352  37.404  1.00  0.00     0.021 A 
BRANCH   4   9
HETATM    9  O1  UNK     1      21.128  -7.085  35.121  1.00  0.00    -0.360 OA
HETATM   10  H10 UNK     1      21.723  -7.496  35.766  1.00  0.00     0.217 HD
ENDBRANCH   4   9
BRANCH   6  11
HETATM   11  O2  UNK     1      16.432  -7.698  34.597  1.00  0.00    -0.361 OA
HETATM   12  H11 UNK     1      15.636  -7.725  35.156  1.00  0.00     0.217 HD
ENDBRANCH   6  11
ENDBRANCH   2   3
BRANCH   2  13
HETATM   13  C7  UNK     1      20.877  -6.583  39.102  1.00  0.00     0.056 C 
HETATM   14  C6  UNK     1      21.310  -7.851  39.285  1.00  0.00     0.015 C 
BRANCH  14  15
HETATM   15  C2  UNK     1      21.701  -8.764  38.223  1.00  0.00    -0.036 A 
HETATM   16  C11 UNK     1      22.925  -8.600  37.576  1.00  0.00     0.014 A 
HETATM   17  C13 UNK     1      23.299  -9.476  36.557  1.00  0.00     0.037 A 
HETATM   18  C15 UNK     1      22.448 -10.518  36.186  1.00  0.00     0.065 A 
HETATM   19  C14 UNK     1      21.224 -10.683  36.832  1.00  0.00     0.037 A 
HETATM   20  C12 UNK     1      20.850  -9.806  37.851  1.00  0.00     0.014 A 
BRANCH  18  21
HETATM   21  O4  UNK     1      22.813 -11.372  35.192  1.00  0.00    -0.361 OA
HETATM   22  H12 UNK     1      22.216 -11.247  34.434  1.00  0.00     0.217 HD
ENDBRANCH  18  21
ENDBRANCH  14  15
ENDBRANCH   2  13
TORSDOF 6
ENDMDL
MODEL 4
REMARK VINA RESULT:      -7.0      2.026      5.734
REMARK  6 active torsions:
REMARK  status: ('A' for Active; 'I' for Inactive)
REMARK    1  A    between atoms: C3_7  and  O1_1 
REMARK    2  A    between atoms: C10_14  and  O2_2 
REMARK    3  A    between atoms: C15_19  and  O4_4 
REMARK    4  A    between atoms: C1_5  and  C4_8 
REMARK    5  A    between atoms: C2_6  and  C6_10 
REMARK    6  A    between atoms: C4_8  and  C7_11 
ROOT
HETATM    1  O3  UNK     1      16.791   7.720  31.054  1.00  0.00    -0.287 OA
HETATM    2  C4  UNK     1      17.375   7.085  31.925  1.00  0.00     0.184 C 
ENDROOT
BRANCH   2   3
HETATM    3  C1  UNK     1      18.782   6.668  31.711  1.00  0.00     0.047 A 
HETATM    4  C3  UNK     1      19.207   6.295  30.451  1.00  0.00     0.082 A 
HETATM    5  C8  UNK     1      20.536   5.908  30.271  1.00  0.00     0.074 A 
HETATM    6  C10 UNK     1      21.413   5.900  31.355  1.00  0.00     0.068 A 
HETATM    7  C9  UNK     1      20.962   6.280  32.620  1.00  0.00     0.037 A 
HETATM    8  C5  UNK     1      19.634   6.666  32.800  1.00  0.00     0.021 A 
BRANCH   4   9
HETATM    9  O1  UNK     1      18.364   6.296  29.380  1.00  0.00    -0.360 OA
HETATM   10  H10 UNK     1      18.464   7.111  28.866  1.00  0.00     0.217 HD
ENDBRANCH   4   9
BRANCH   6  11
HETATM   11  O2  UNK     1      22.708   5.521  31.180  1.00  0.00    -0.361 OA
HETATM   12  H11 UNK     1      23.209   5.725  31.989  1.00  0.00     0.217 HD
ENDBRANCH   6  11
ENDBRANCH   2   3
BRANCH   2  13
HETATM   13  C7  UNK     1      16.739   6.732  33.224  1.00  0.00     0.056 C 
HETATM   14  C6  UNK     1      16.681   7.639  34.225  1.00  0.00     0.015 C 
BRANCH  14  15
HETATM   15  C2  UNK     1      17.203   8.994  34.159  1.00  0.00    -0.036 A 
HETATM   16  C11 UNK     1      16.329  10.075  34.048  1.00  0.00     0.014 A 
HETATM   17  C13 UNK     1      16.831  11.375  33.985  1.00  0.00     0.037 A 
HETATM   18  C15 UNK     1      18.208  11.595  34.033  1.00  0.00     0.065 A 
HETATM   19  C14 UNK     1      19.082  10.515  34.144  1.00  0.00     0.037 A 
HETATM   20  C12 UNK     1      18.580   9.214  34.207  1.00  0.00     0.014 A 
BRANCH  18  21
HETATM   21  O4  UNK     1      18.697  12.863  33.971  1.00  0.00    -0.361 OA
HETATM   22  H12 UNK     1      19.029  13.028  33.072  1.00  0.00     0.217 HD
ENDBRANCH  18  21
ENDBRANCH  14  15
ENDBRANCH   2  13
TORSDOF 6
ENDMDL
MODEL 5
REMARK VINA RESULT:      -6.9      1.931      5.425
REMARK  6 active torsions:
REMARK  status: ('A' for Active; 'I' for Inactive)
REMARK    1  A    between atoms: C3_7  and  O1_1 
REMARK    2  A    between atoms: C10_14  and  O2_2 
REMARK    3  A    between atoms: C15_19  and  O4_4 
REMARK    4  A    between atoms: C1_5  and  C4_8 
REMARK    5  A    between atoms: C2_6  and  C6_10 
REMARK    6  A    between atoms: C4_8  and  C7_11 
ROOT
HETATM    1  O3  UNK     1      18.484   4.473  34.170  1.00  0.00    -0.287 OA
HETATM    2  C4  UNK     1      18.835   5.016  33.128  1.00  0.00     0.184 C 
ENDROOT
BRANCH   2   3
HETATM    3  C1  UNK     1      18.651   4.313  31.836  1.00  0.00     0.047 A 
HETATM    4  C3  UNK     1      18.135   3.031  31.815  1.00  0.00     0.082 A 
HETATM    5  C8  UNK     1      17.967   2.389  30.588  1.00  0.00     0.074 A 
HETATM    6  C10 UNK     1      18.320   3.039  29.406  1.00  0.00     0.068 A 
HETATM    7  C9  UNK     1      18.840   4.333  29.450  1.00  0.00     0.037 A 
HETATM    8  C5  UNK     1      19.008   4.976  30.676  1.00  0.00     0.021 A 
BRANCH   4   9
HETATM    9  O1  UNK     1      17.785   2.380  32.960  1.00  0.00    -0.360 OA
HETATM   10  H10 UNK     1      17.827   2.977  33.721  1.00  0.00     0.217 HD
ENDBRANCH   4   9
BRANCH   6  11
HETATM   11  O2  UNK     1      18.158   2.411  28.209  1.00  0.00    -0.361 OA
HETATM   12  H11 UNK     1      17.221   2.174  28.102  1.00  0.00     0.217 HD
ENDBRANCH   6  11
ENDBRANCH   2   3
BRANCH   2  13
HETATM   13  C7  UNK     1      19.421   6.384  33.094  1.00  0.00     0.056 C 
HETATM   14  C6  UNK     1      18.618   7.468  33.004  1.00  0.00     0.015 C 
BRANCH  14  15
HETATM   15  C2  UNK     1      17.166   7.433  32.935  1.00  0.00    -0.036 A 
HETATM   16  C11 UNK     1      16.526   7.441  31.696  1.00  0.00     0.014 A 
HETATM   17  C13 UNK     1      15.133   7.407  31.631  1.00  0.00     0.037 A 
HETATM   18  C15 UNK     1      14.380   7.367  32.804  1.00  0.00     0.065 A 
HETATM   19  C14 UNK     1      15.020   7.360  34.043  1.00  0.00     0.037 A 
HETATM   20  C12 UNK     1      16.413   7.393  34.109  1.00  0.00     0.014 A 
BRANCH  18  21
HETATM   21  O4  UNK     1      13.021   7.335  32.740  1.00  0.00    -0.361 OA
HETATM   22  H12 UNK     1      12.741   6.455  32.431  1.00  0.00     0.217 HD
ENDBRANCH  18  21
ENDBRANCH  14  15
ENDBRANCH   2  13
TORSDOF 6
ENDMDL
MODEL 6
REMARK VINA RESULT:      -6.7      6.086      8.117
REMARK  6 active torsions:
REMARK  status: ('A' for Active; 'I' for Inactive)
REMARK    1  A    between atoms: C3_7  and  O1_1 
REMARK    2  A    between atoms: C10_14  and  O2_2 
REMARK    3  A    between atoms: C15_19  and  O4_4 
REMARK    4  A    between atoms: C1_5  and  C4_8 
REMARK    5  A    between atoms: C2_6  and  C6_10 
REMARK    6  A    between atoms: C4_8  and  C7_11 
ROOT
HETATM    1  O3  UNK     1      17.707  -1.578  32.350  1.00  0.00    -0.287 OA
HETATM    2  C4  UNK     1      18.719  -1.175  32.911  1.00  0.00     0.184 C 
ENDROOT
BRANCH   2   3
HETATM    3  C1  UNK     1      18.601  -0.352  34.139  1.00  0.00     0.047 A 
HETATM    4  C3  UNK     1      18.690  -0.950  35.381  1.00  0.00     0.082 A 
HETATM    5  C8  UNK     1      18.579  -0.157  36.523  1.00  0.00     0.074 A 
HETATM    6  C10 UNK     1      18.378   1.218  36.401  1.00  0.00     0.068 A 
HETATM    7  C9  UNK     1      18.290   1.801  35.137  1.00  0.00     0.037 A 
HETATM    8  C5  UNK     1      18.402   1.009  33.995  1.00  0.00     0.021 A 
BRANCH   4   9
HETATM    9  O1  UNK     1      18.884  -2.291  35.520  1.00  0.00    -0.360 OA
HETATM   10  H10 UNK     1      19.579  -2.601  34.920  1.00  0.00     0.217 HD
ENDBRANCH   4   9
BRANCH   6  11
HETATM   11  O2  UNK     1      18.267   1.991  37.516  1.00  0.00    -0.361 OA
HETATM   12  H11 UNK     1      19.159   2.236  37.819  1.00  0.00     0.217 HD
ENDBRANCH   6  11
ENDBRANCH   2   3
BRANCH   2  13
HETATM   13  C7  UNK     1      20.089  -1.504  32.428  1.00  0.00     0.056 C 
HETATM   14  C6  UNK     1      20.540  -0.999  31.257  1.00  0.00     0.015 C 
BRANCH  14  15
HETATM   15  C2  UNK     1      19.785  -0.122  30.377  1.00  0.00    -0.036 A 
HETATM   16  C11 UNK     1      19.485  -0.528  29.077  1.00  0.00     0.014 A 
HETATM   17  C13 UNK     1      18.761   0.313  28.233  1.00  0.00     0.037 A 
HETATM   18  C15 UNK     1      18.338   1.562  28.688  1.00  0.00     0.065 A 
HETATM   19  C14 UNK     1      18.639   1.969  29.987  1.00  0.00     0.037 A 
HETATM   20  C12 UNK     1      19.362   1.127  30.832  1.00  0.00     0.014 A 
BRANCH  18  21
HETATM   21  O4  UNK     1      17.632   2.383  27.863  1.00  0.00    -0.361 OA
HETATM   22  H12 UNK     1      17.934   2.246  26.949  1.00  0.00     0.217 HD
ENDBRANCH  18  21
ENDBRANCH  14  15
ENDBRANCH   2  13
TORSDOF 6
ENDMDL
MODEL 7
REMARK VINA RESULT:      -6.7      3.023      6.679
REMARK  6 active torsions:
REMARK  status: ('A' for Active; 'I' for Inactive)
REMARK    1  A    between atoms: C3_7  and  O1_1 
REMARK    2  A    between atoms: C10_14  and  O2_2 
REMARK    3  A    between atoms: C15_19  and  O4_4 
REMARK    4  A    between atoms: C1_5  and  C4_8 
REMARK    5  A    between atoms: C2_6  and  C6_10 
REMARK    6  A    between atoms: C4_8  and  C7_11 
ROOT
HETATM    1  O3  UNK     1      17.744   3.811  31.512  1.00  0.00    -0.287 OA
HETATM    2  C4  UNK     1      18.506   3.607  30.574  1.00  0.00     0.184 C 
ENDROOT
BRANCH   2   3
HETATM    3  C1  UNK     1      18.858   2.215  30.202  1.00  0.00     0.047 A 
HETATM    4  C3  UNK     1      18.529   1.732  28.950  1.00  0.00     0.082 A 
HETATM    5  C8  UNK     1      18.871   0.421  28.619  1.00  0.00     0.074 A 
HETATM    6  C10 UNK     1      19.533  -0.383  29.547  1.00  0.00     0.068 A 
HETATM    7  C9  UNK     1      19.855   0.125  30.805  1.00  0.00     0.037 A 
HETATM    8  C5  UNK     1      19.514   1.436  31.137  1.00  0.00     0.021 A 
BRANCH   4   9
HETATM    9  O1  UNK     1      17.880   2.502  28.031  1.00  0.00    -0.360 OA
HETATM   10  H10 UNK     1      16.924   2.354  28.073  1.00  0.00     0.217 HD
ENDBRANCH   4   9
BRANCH   6  11
HETATM   11  O2  UNK     1      19.865  -1.663  29.224  1.00  0.00    -0.361 OA
HETATM   12  H11 UNK     1      20.583  -1.960  29.810  1.00  0.00     0.217 HD
ENDBRANCH   6  11
ENDBRANCH   2   3
BRANCH   2  13
HETATM   13  C7  UNK     1      19.084   4.709  29.755  1.00  0.00     0.056 C 
HETATM   14  C6  UNK     1      19.237   5.944  30.283  1.00  0.00     0.015 C 
BRANCH  14  15
HETATM   15  C2  UNK     1      18.878   6.326  31.640  1.00  0.00    -0.036 A 
HETATM   16  C11 UNK     1      17.625   6.879  31.901  1.00  0.00     0.014 A 
HETATM   17  C13 UNK     1      17.281   7.245  33.202  1.00  0.00     0.037 A 
HETATM   18  C15 UNK     1      18.191   7.060  34.242  1.00  0.00     0.065 A 
HETATM   19  C14 UNK     1      19.445   6.508  33.982  1.00  0.00     0.037 A 
HETATM   20  C12 UNK     1      19.789   6.141  32.680  1.00  0.00     0.014 A 
BRANCH  18  21
HETATM   21  O4  UNK     1      17.856   7.418  35.511  1.00  0.00    -0.361 OA
HETATM   22  H12 UNK     1      18.522   8.043  35.849  1.00  0.00     0.217 HD
ENDBRANCH  18  21
ENDBRANCH  14  15
ENDBRANCH   2  13
TORSDOF 6
ENDMDL
MODEL 8
REMARK VINA RESULT:      -6.7     23.152     24.733
REMARK  6 active torsions:
REMARK  status: ('A' for Active; 'I' for Inactive)
REMARK    1  A    between atoms: C3_7  and  O1_1 
REMARK    2  A    between atoms: C10_14  and  O2_2 
REMARK    3  A    between atoms: C15_19  and  O4_4 
REMARK    4  A    between atoms: C1_5  and  C4_8 
REMARK    5  A    between atoms: C2_6  and  C6_10 
REMARK    6  A    between atoms: C4_8  and  C7_11 
ROOT
HETATM    1  O3  UNK     1      13.857   6.667   7.172  1.00  0.00    -0.287 OA
HETATM    2  C4  UNK     1      13.048   6.043   7.850  1.00  0.00     0.184 C 
ENDROOT
BRANCH   2   3
HETATM    3  C1  UNK     1      11.597   6.290   7.672  1.00  0.00     0.047 A 
HETATM    4  C3  UNK     1      11.046   6.285   6.405  1.00  0.00     0.082 A 
HETATM    5  C8  UNK     1       9.678   6.517   6.260  1.00  0.00     0.074 A 
HETATM    6  C10 UNK     1       8.887   6.753   7.385  1.00  0.00     0.068 A 
HETATM    7  C9  UNK     1       9.464   6.754   8.655  1.00  0.00     0.037 A 
HETATM    8  C5  UNK     1      10.832   6.522   8.800  1.00  0.00     0.021 A 
BRANCH   4   9
HETATM    9  O1  UNK     1      11.803   6.058   5.295  1.00  0.00    -0.360 OA
HETATM   10  H10 UNK     1      11.440   5.324   4.777  1.00  0.00     0.217 HD
ENDBRANCH   4   9
BRANCH   6  11
HETATM   11  O2  UNK     1       7.553   6.981   7.243  1.00  0.00    -0.361 OA
HETATM   12  H11 UNK     1       7.243   6.544   6.431  1.00  0.00     0.217 HD
ENDBRANCH   6  11
ENDBRANCH   2   3
BRANCH   2  13
HETATM   13  C7  UNK     1      13.457   5.008   8.838  1.00  0.00     0.056 C 
HETATM   14  C6  UNK     1      14.294   5.324   9.852  1.00  0.00     0.015 C 
BRANCH  14  15
HETATM   15  C2  UNK     1      14.864   6.641  10.088  1.00  0.00    -0.036 A 
HETATM   16  C11 UNK     1      14.047   7.691  10.506  1.00  0.00     0.014 A 
HETATM   17  C13 UNK     1      14.595   8.953  10.733  1.00  0.00     0.037 A 
HETATM   18  C15 UNK     1      15.960   9.167  10.541  1.00  0.00     0.065 A 
HETATM   19  C14 UNK     1      16.777   8.117  10.122  1.00  0.00     0.037 A 
HETATM   20  C12 UNK     1      16.229   6.854   9.896  1.00  0.00     0.014 A 
BRANCH  18  21
HETATM   21  O4  UNK     1      16.494  10.399  10.761  1.00  0.00    -0.361 OA
HETATM   22  H12 UNK     1      16.106  10.769  11.573  1.00  0.00     0.217 HD
ENDBRANCH  18  21
ENDBRANCH  14  15
ENDBRANCH   2  13
TORSDOF 6
ENDMDL
MODEL 9
REMARK VINA RESULT:      -6.6     14.697     16.983
REMARK  6 active torsions:
REMARK  status: ('A' for Active; 'I' for Inactive)
REMARK    1  A    between atoms: C3_7  and  O1_1 
REMARK    2  A    between atoms: C10_14  and  O2_2 
REMARK    3  A    between atoms: C15_19  and  O4_4 
REMARK    4  A    between atoms: C1_5  and  C4_8 
REMARK    5  A    between atoms: C2_6  and  C6_10 
REMARK    6  A    between atoms: C4_8  and  C7_11 
ROOT
HETATM    1  O3  UNK     1      18.822  -7.358  35.976  1.00  0.00    -0.287 OA
HETATM    2  C4  UNK     1      19.219  -8.200  36.775  1.00  0.00     0.184 C 
ENDROOT
BRANCH   2   3
HETATM    3  C1  UNK     1      20.288  -9.146  36.374  1.00  0.00     0.047 A 
HETATM    4  C3  UNK     1      21.130  -8.830  35.325  1.00  0.00     0.082 A 
HETATM    5  C8  UNK     1      22.131  -9.733  34.965  1.00  0.00     0.074 A 
HETATM    6  C10 UNK     1      22.269 -10.935  35.660  1.00  0.00     0.068 A 
HETATM    7  C9  UNK     1      21.408 -11.233  36.716  1.00  0.00     0.037 A 
HETATM    8  C5  UNK     1      20.407 -10.331  37.076  1.00  0.00     0.021 A 
BRANCH   4   9
HETATM    9  O1  UNK     1      21.010  -7.662  34.634  1.00  0.00    -0.360 OA
HETATM   10  H10 UNK     1      21.875  -7.357  34.322  1.00  0.00     0.217 HD
ENDBRANCH   4   9
BRANCH   6  11
HETATM   11  O2  UNK     1      23.245 -11.817  35.308  1.00  0.00    -0.361 OA
HETATM   12  H11 UNK     1      23.099 -12.654  35.781  1.00  0.00     0.217 HD
ENDBRANCH   6  11
ENDBRANCH   2   3
BRANCH   2  13
HETATM   13  C7  UNK     1      18.692  -8.300  38.163  1.00  0.00     0.056 C 
HETATM   14  C6  UNK     1      19.424  -7.849  39.207  1.00  0.00     0.015 C 
BRANCH  14  15
HETATM   15  C2  UNK     1      20.742  -7.243  39.106  1.00  0.00    -0.036 A 
HETATM   16  C11 UNK     1      21.860  -7.917  39.597  1.00  0.00     0.014 A 
HETATM   17  C13 UNK     1      23.124  -7.335  39.500  1.00  0.00     0.037 A 
HETATM   18  C15 UNK     1      23.270  -6.079  38.911  1.00  0.00     0.065 A 
HETATM   19  C14 UNK     1      22.153  -5.405  38.420  1.00  0.00     0.037 A 
HETATM   20  C12 UNK     1      20.889  -5.987  38.517  1.00  0.00     0.014 A 
BRANCH  18  21
HETATM   21  O4  UNK     1      24.503  -5.511  38.817  1.00  0.00    -0.361 OA
HETATM   22  H12 UNK     1      24.406  -4.596  38.501  1.00  0.00     0.217 HD
ENDBRANCH  18  21
ENDBRANCH  14  15
ENDBRANCH   2  13
TORSDOF 6
ENDMDL
MODEL 10
REMARK VINA RESULT:      -6.6     17.955     20.037
REMARK  6 active torsions:
REMARK  status: ('A' for Active; 'I' for Inactive)
REMARK    1  A    between atoms: C3_7  and  O1_1 
REMARK    2  A    between atoms: C10_14  and  O2_2 
REMARK    3  A    between atoms: C15_19  and  O4_4 
REMARK    4  A    between atoms: C1_5  and  C4_8 
REMARK    5  A    between atoms: C2_6  and  C6_10 
REMARK    6  A    between atoms: C4_8  and  C7_11 
ROOT
HETATM    1  O3  UNK     1      29.493  -6.803  34.722  1.00  0.00    -0.287 OA
HETATM    2  C4  UNK     1      29.663  -7.196  35.871  1.00  0.00     0.184 C 
ENDROOT
BRANCH   2   3
HETATM    3  C1  UNK     1      29.625  -6.227  36.992  1.00  0.00     0.047 A 
HETATM    4  C3  UNK     1      30.371  -5.066  36.926  1.00  0.00     0.082 A 
HETATM    5  C8  UNK     1      30.319  -4.166  37.991  1.00  0.00     0.074 A 
HETATM    6  C10 UNK     1      29.523  -4.445  39.102  1.00  0.00     0.068 A 
HETATM    7  C9  UNK     1      28.777  -5.622  39.147  1.00  0.00     0.037 A 
HETATM    8  C5  UNK     1      28.829  -6.523  38.083  1.00  0.00     0.021 A 
BRANCH   4   9
HETATM    9  O1  UNK     1      31.156  -4.778  35.850  1.00  0.00    -0.360 OA
HETATM   10  H10 UNK     1      31.224  -3.820  35.722  1.00  0.00     0.217 HD
ENDBRANCH   4   9
BRANCH   6  11
HETATM   11  O2  UNK     1      29.473  -3.567  40.141  1.00  0.00    -0.361 OA
HETATM   12  H11 UNK     1      28.600  -3.631  40.566  1.00  0.00     0.217 HD
ENDBRANCH   6  11
ENDBRANCH   2   3
BRANCH   2  13
HETATM   13  C7  UNK     1      29.879  -8.631  36.204  1.00  0.00     0.056 C 
HETATM   14  C6  UNK     1      31.123  -9.093  36.461  1.00  0.00     0.015 C 
BRANCH  14  15
HETATM   15  C2  UNK     1      32.335  -8.289  36.445  1.00  0.00    -0.036 A 
HETATM   16  C11 UNK     1      32.987  -8.032  35.239  1.00  0.00     0.014 A 
HETATM   17  C13 UNK     1      34.149  -7.261  35.225  1.00  0.00     0.037 A 
HETATM   18  C15 UNK     1      34.661  -6.748  36.417  1.00  0.00     0.065 A 
HETATM   19  C14 UNK     1      34.011  -7.005  37.623  1.00  0.00     0.037 A 
HETATM   20  C12 UNK     1      32.847  -7.776  37.637  1.00  0.00     0.014 A 
BRANCH  18  21
HETATM   21  O4  UNK     1      35.795  -5.997  36.402  1.00  0.00    -0.361 OA
HETATM   22  H12 UNK     1      35.550  -5.055  36.412  1.00  0.00     0.217 HD
ENDBRANCH  18  21
ENDBRANCH  14  15
ENDBRANCH   2  13
TORSDOF 6
ENDMDL
