MODEL 1
REMARK VINA RESULT:      -7.0      0.000      0.000
REMARK  3 active torsions:
REMARK  status: ('A' for Active; 'I' for Inactive)
REMARK    1  A    between atoms: C13_17  and  O2_2 
REMARK    2  A    between atoms: C6_10  and  O2_2 
REMARK    3  A    between atoms: C1_5  and  C5_9 
ROOT
HETATM    1  O1  UNK     1      17.149   4.558  32.157  1.00  0.00    -0.275 OA
HETATM    2  O3  UNK     1      17.420   2.710  30.836  1.00  0.00    -0.260 OA
HETATM    3  C1  UNK     1      18.579   8.165  33.689  1.00  0.00    -0.024 A 
HETATM    4  C2  UNK     1      18.934   6.221  32.266  1.00  0.00     0.005 A 
HETATM    5  C3  UNK     1      19.380   7.437  32.801  1.00  0.00     0.024 A 
HETATM    6  C4  UNK     1      17.671   5.770  32.651  1.00  0.00     0.093 A 
HETATM    7  C6  UNK     1      17.321   7.690  34.055  1.00  0.00     0.088 A 
HETATM    8  C7  UNK     1      19.718   5.404  31.330  1.00  0.00    -0.043 A 
HETATM    9  C8  UNK     1      16.860   6.484  33.535  1.00  0.00     0.076 A 
HETATM   10  C9  UNK     1      19.197   4.255  30.877  1.00  0.00     0.090 A 
HETATM   11  C11 UNK     1      21.080   5.863  30.896  1.00  0.00     0.049 C 
HETATM   12  C12 UNK     1      17.866   3.766  31.273  1.00  0.00     0.288 A 
ENDROOT
BRANCH   7  13
HETATM   13  O2  UNK     1      16.534   8.389  34.918  1.00  0.00    -0.279 OA
BRANCH  13  14
HETATM   14  C13 UNK     1      15.385   8.940  34.328  1.00  0.00     0.260 C 
HETATM   15  O4  UNK     1      14.297   8.389  34.228  1.00  0.00    -0.265 OA
HETATM   16  C14 UNK     1      15.680  10.322  33.825  1.00  0.00     0.126 C 
ENDBRANCH  13  14
ENDBRANCH   7  13
BRANCH   3  17
HETATM   17  C5  UNK     1      19.092   9.457  34.237  1.00  0.00     0.037 C 
HETATM   18  C10 UNK     1      20.597   9.421  34.488  1.00  0.00     0.010 C 
ENDBRANCH   3  17
TORSDOF 3
ENDMDL
MODEL 2
REMARK VINA RESULT:      -7.0      6.214      8.118
REMARK  3 active torsions:
REMARK  status: ('A' for Active; 'I' for Inactive)
REMARK    1  A    between atoms: C13_17  and  O2_2 
REMARK    2  A    between atoms: C6_10  and  O2_2 
REMARK    3  A    between atoms: C1_5  and  C5_9 
ROOT
HETATM    1  O1  UNK     1      19.786  -1.024  30.501  1.00  0.00    -0.275 OA
HETATM    2  O3  UNK     1      20.316  -0.731  28.295  1.00  0.00    -0.260 OA
HETATM    3  C1  UNK     1      18.318   0.469  34.109  1.00  0.00    -0.024 A 
HETATM    4  C2  UNK     1      18.864   0.850  31.767  1.00  0.00     0.005 A 
HETATM    5  C3  UNK     1      18.377   1.316  32.996  1.00  0.00     0.024 A 
HETATM    6  C4  UNK     1      19.284  -0.479  31.700  1.00  0.00     0.093 A 
HETATM    7  C6  UNK     1      18.744  -0.854  34.012  1.00  0.00     0.088 A 
HETATM    8  C7  UNK     1      18.955   1.679  30.558  1.00  0.00    -0.043 A 
HETATM    9  C8  UNK     1      19.231  -1.335  32.801  1.00  0.00     0.076 A 
HETATM   10  C9  UNK     1      19.437   1.135  29.432  1.00  0.00     0.090 A 
HETATM   11  C11 UNK     1      18.510   3.112  30.598  1.00  0.00     0.049 C 
HETATM   12  C12 UNK     1      19.883  -0.266  29.344  1.00  0.00     0.288 A 
ENDROOT
BRANCH   7  13
HETATM   13  O2  UNK     1      18.692  -1.686  35.089  1.00  0.00    -0.279 OA
BRANCH  13  14
HETATM   14  C13 UNK     1      19.951  -2.055  35.590  1.00  0.00     0.260 C 
HETATM   15  O4  UNK     1      20.941  -1.335  35.641  1.00  0.00    -0.265 OA
HETATM   16  C14 UNK     1      19.919  -3.478  36.061  1.00  0.00     0.126 C 
ENDBRANCH  13  14
ENDBRANCH   7  13
BRANCH   3  17
HETATM   17  C5  UNK     1      17.793   1.005  35.402  1.00  0.00     0.037 C 
HETATM   18  C10 UNK     1      18.831   1.839  36.146  1.00  0.00     0.010 C 
ENDBRANCH   3  17
TORSDOF 3
ENDMDL
MODEL 3
REMARK VINA RESULT:      -7.0      3.433      5.974
REMARK  3 active torsions:
REMARK  status: ('A' for Active; 'I' for Inactive)
REMARK    1  A    between atoms: C13_17  and  O2_2 
REMARK    2  A    between atoms: C6_10  and  O2_2 
REMARK    3  A    between atoms: C1_5  and  C5_9 
ROOT
HETATM    1  O1  UNK     1      18.242   2.843  35.458  1.00  0.00    -0.275 OA
HETATM    2  O3  UNK     1      18.269   1.674  37.424  1.00  0.00    -0.260 OA
HETATM    3  C1  UNK     1      18.315   2.933  31.288  1.00  0.00    -0.024 A 
HETATM    4  C2  UNK     1      18.351   1.628  33.343  1.00  0.00     0.005 A 
HETATM    5  C3  UNK     1      18.374   1.697  31.944  1.00  0.00     0.024 A 
HETATM    6  C4  UNK     1      18.270   2.828  34.049  1.00  0.00     0.093 A 
HETATM    7  C6  UNK     1      18.234   4.116  32.020  1.00  0.00     0.088 A 
HETATM    8  C7  UNK     1      18.409   0.369  34.099  1.00  0.00    -0.043 A 
HETATM    9  C8  UNK     1      18.210   4.068  33.410  1.00  0.00     0.076 A 
HETATM   10  C9  UNK     1      18.382   0.413  35.438  1.00  0.00     0.090 A 
HETATM   11  C11 UNK     1      18.496  -0.939  33.368  1.00  0.00     0.049 C 
HETATM   12  C12 UNK     1      18.295   1.672  36.198  1.00  0.00     0.288 A 
ENDROOT
BRANCH   7  13
HETATM   13  O2  UNK     1      18.177   5.323  31.393  1.00  0.00    -0.279 OA
BRANCH  13  14
HETATM   14  C13 UNK     1      19.306   6.131  31.602  1.00  0.00     0.260 C 
HETATM   15  O4  UNK     1      19.430   6.976  32.479  1.00  0.00    -0.265 OA
HETATM   16  C14 UNK     1      20.360   5.813  30.583  1.00  0.00     0.126 C 
ENDBRANCH  13  14
ENDBRANCH   7  13
BRANCH   3  17
HETATM   17  C5  UNK     1      18.342   2.964  29.794  1.00  0.00     0.037 C 
HETATM   18  C10 UNK     1      18.397   1.565  29.188  1.00  0.00     0.010 C 
ENDBRANCH   3  17
TORSDOF 3
ENDMDL
MODEL 4
REMARK VINA RESULT:      -7.0      3.997      6.500
REMARK  3 active torsions:
REMARK  status: ('A' for Active; 'I' for Inactive)
REMARK    1  A    between atoms: C13_17  and  O2_2 
REMARK    2  A    between atoms: C6_10  and  O2_2 
REMARK    3  A    between atoms: C1_5  and  C5_9 
ROOT
HETATM    1  O1  UNK     1      18.586   0.100  34.529  1.00  0.00    -0.275 OA
HETATM    2  O3  UNK     1      19.014  -1.775  35.766  1.00  0.00    -0.260 OA
HETATM    3  C1  UNK     1      18.596   2.120  30.879  1.00  0.00    -0.024 A 
HETATM    4  C2  UNK     1      19.079   0.092  32.137  1.00  0.00     0.005 A 
HETATM    5  C3  UNK     1      19.067   0.803  30.929  1.00  0.00     0.024 A 
HETATM    6  C4  UNK     1      18.608   0.745  33.276  1.00  0.00     0.093 A 
HETATM    7  C6  UNK     1      18.131   2.747  32.033  1.00  0.00     0.088 A 
HETATM    8  C7  UNK     1      19.558  -1.291  32.266  1.00  0.00    -0.043 A 
HETATM    9  C8  UNK     1      18.134   2.058  33.242  1.00  0.00     0.076 A 
HETATM   10  C9  UNK     1      19.526  -1.879  33.470  1.00  0.00     0.090 A 
HETATM   11  C11 UNK     1      20.070  -2.021  31.059  1.00  0.00     0.049 C 
HETATM   12  C12 UNK     1      19.031  -1.204  34.681  1.00  0.00     0.288 A 
ENDROOT
BRANCH   7  13
HETATM   13  O2  UNK     1      17.671   4.028  31.995  1.00  0.00    -0.279 OA
BRANCH  13  14
HETATM   14  C13 UNK     1      18.472   4.945  32.696  1.00  0.00     0.260 C 
HETATM   15  O4  UNK     1      18.448   5.139  33.904  1.00  0.00    -0.265 OA
HETATM   16  C14 UNK     1      19.376   5.668  31.744  1.00  0.00     0.126 C 
ENDBRANCH  13  14
ENDBRANCH   7  13
BRANCH   3  17
HETATM   17  C5  UNK     1      18.601   2.843  29.571  1.00  0.00     0.037 C 
HETATM   18  C10 UNK     1      17.913   2.045  28.467  1.00  0.00     0.010 C 
ENDBRANCH   3  17
TORSDOF 3
ENDMDL
MODEL 5
REMARK VINA RESULT:      -6.9      4.948      7.750
REMARK  3 active torsions:
REMARK  status: ('A' for Active; 'I' for Inactive)
REMARK    1  A    between atoms: C13_17  and  O2_2 
REMARK    2  A    between atoms: C6_10  and  O2_2 
REMARK    3  A    between atoms: C1_5  and  C5_9 
ROOT
HETATM    1  O1  UNK     1      18.847   0.384  31.103  1.00  0.00    -0.275 OA
HETATM    2  O3  UNK     1      18.969   1.246  28.988  1.00  0.00    -0.260 OA
HETATM    3  C1  UNK     1      18.261   0.897  35.202  1.00  0.00    -0.024 A 
HETATM    4  C2  UNK     1      18.381   1.879  32.978  1.00  0.00     0.005 A 
HETATM    5  C3  UNK     1      18.190   2.012  34.359  1.00  0.00     0.024 A 
HETATM    6  C4  UNK     1      18.644   0.602  32.481  1.00  0.00     0.093 A 
HETATM    7  C6  UNK     1      18.525  -0.367  34.677  1.00  0.00     0.088 A 
HETATM    8  C7  UNK     1      18.320   3.003  32.033  1.00  0.00    -0.043 A 
HETATM    9  C8  UNK     1      18.718  -0.520  33.308  1.00  0.00     0.076 A 
HETATM   10  C9  UNK     1      18.519   2.767  30.729  1.00  0.00     0.090 A 
HETATM   11  C11 UNK     1      18.039   4.389  32.537  1.00  0.00     0.049 C 
HETATM   12  C12 UNK     1      18.795   1.425  30.189  1.00  0.00     0.288 A 
ENDROOT
BRANCH   7  13
HETATM   13  O2  UNK     1      18.597  -1.459  35.488  1.00  0.00    -0.279 OA
BRANCH  13  14
HETATM   14  C13 UNK     1      19.902  -1.941  35.684  1.00  0.00     0.260 C 
HETATM   15  O4  UNK     1      20.923  -1.266  35.677  1.00  0.00    -0.265 OA
HETATM   16  C14 UNK     1      19.873  -3.424  35.907  1.00  0.00     0.126 C 
ENDBRANCH  13  14
ENDBRANCH   7  13
BRANCH   3  17
HETATM   17  C5  UNK     1      18.052   1.081  36.670  1.00  0.00     0.037 C 
HETATM   18  C10 UNK     1      16.585   0.941  37.067  1.00  0.00     0.010 C 
ENDBRANCH   3  17
TORSDOF 3
ENDMDL
MODEL 6
REMARK VINA RESULT:      -6.9      3.757      6.044
REMARK  3 active torsions:
REMARK  status: ('A' for Active; 'I' for Inactive)
REMARK    1  A    between atoms: C13_17  and  O2_2 
REMARK    2  A    between atoms: C6_10  and  O2_2 
REMARK    3  A    between atoms: C1_5  and  C5_9 
ROOT
HETATM    1  O1  UNK     1      19.432   0.890  29.429  1.00  0.00    -0.275 OA
HETATM    2  O3  UNK     1      20.294  -0.639  27.963  1.00  0.00    -0.260 OA
HETATM    3  C1  UNK     1      18.283   1.965  33.292  1.00  0.00    -0.024 A 
HETATM    4  C2  UNK     1      19.205   0.290  31.785  1.00  0.00     0.005 A 
HETATM    5  C3  UNK     1      18.808   0.687  33.069  1.00  0.00     0.024 A 
HETATM    6  C4  UNK     1      19.056   1.212  30.748  1.00  0.00     0.093 A 
HETATM    7  C6  UNK     1      18.146   2.865  32.237  1.00  0.00     0.088 A 
HETATM    8  C7  UNK     1      19.764  -1.033  31.476  1.00  0.00    -0.043 A 
HETATM    9  C8  UNK     1      18.534   2.490  30.954  1.00  0.00     0.076 A 
HETATM   10  C9  UNK     1      20.112  -1.312  30.212  1.00  0.00     0.090 A 
HETATM   11  C11 UNK     1      19.938  -2.045  32.570  1.00  0.00     0.049 C 
HETATM   12  C12 UNK     1      19.962  -0.350  29.107  1.00  0.00     0.288 A 
ENDROOT
BRANCH   7  13
HETATM   13  O2  UNK     1      17.635   4.111  32.442  1.00  0.00    -0.279 OA
BRANCH  13  14
HETATM   14  C13 UNK     1      18.549   5.151  32.204  1.00  0.00     0.260 C 
HETATM   15  O4  UNK     1      18.777   5.669  31.119  1.00  0.00    -0.265 OA
HETATM   16  C14 UNK     1      19.221   5.546  33.485  1.00  0.00     0.126 C 
ENDBRANCH  13  14
ENDBRANCH   7  13
BRANCH   3  17
HETATM   17  C5  UNK     1      17.871   2.350  34.676  1.00  0.00     0.037 C 
HETATM   18  C10 UNK     1      18.945   2.025  35.710  1.00  0.00     0.010 C 
ENDBRANCH   3  17
TORSDOF 3
ENDMDL
MODEL 7
REMARK VINA RESULT:      -6.9     16.713     18.882
REMARK  3 active torsions:
REMARK  status: ('A' for Active; 'I' for Inactive)
REMARK    1  A    between atoms: C13_17  and  O2_2 
REMARK    2  A    between atoms: C6_10  and  O2_2 
REMARK    3  A    between atoms: C1_5  and  C5_9 
ROOT
HETATM    1  O1  UNK     1      27.888  -4.904  38.448  1.00  0.00    -0.275 OA
HETATM    2  O3  UNK     1      25.653  -5.119  38.886  1.00  0.00    -0.260 OA
HETATM    3  C1  UNK     1      31.675  -6.593  37.992  1.00  0.00    -0.024 A 
HETATM    4  C2  UNK     1      29.306  -6.892  38.471  1.00  0.00     0.005 A 
HETATM    5  C3  UNK     1      30.593  -7.423  38.310  1.00  0.00     0.024 A 
HETATM    6  C4  UNK     1      29.149  -5.516  38.304  1.00  0.00     0.093 A 
HETATM    7  C6  UNK     1      31.488  -5.222  37.832  1.00  0.00     0.088 A 
HETATM    8  C7  UNK     1      28.125  -7.700  38.802  1.00  0.00    -0.043 A 
HETATM    9  C8  UNK     1      30.218  -4.675  37.987  1.00  0.00     0.076 A 
HETATM   10  C9  UNK     1      26.938  -7.092  38.934  1.00  0.00     0.090 A 
HETATM   11  C11 UNK     1      28.262  -9.184  38.987  1.00  0.00     0.049 C 
HETATM   12  C12 UNK     1      26.756  -5.641  38.761  1.00  0.00     0.288 A 
ENDROOT
BRANCH   7  13
HETATM   13  O2  UNK     1      32.533  -4.405  37.524  1.00  0.00    -0.279 OA
BRANCH  13  14
HETATM   14  C13 UNK     1      32.308  -3.583  36.407  1.00  0.00     0.260 C 
HETATM   15  O4  UNK     1      31.992  -2.401  36.440  1.00  0.00    -0.265 OA
HETATM   16  C14 UNK     1      32.512  -4.367  35.144  1.00  0.00     0.126 C 
ENDBRANCH  13  14
ENDBRANCH   7  13
BRANCH   3  17
HETATM   17  C5  UNK     1      33.031  -7.199  37.830  1.00  0.00     0.037 C 
HETATM   18  C10 UNK     1      33.119  -8.100  36.601  1.00  0.00     0.010 C 
ENDBRANCH   3  17
TORSDOF 3
ENDMDL
MODEL 8
REMARK VINA RESULT:      -6.9      2.777      6.236
REMARK  3 active torsions:
REMARK  status: ('A' for Active; 'I' for Inactive)
REMARK    1  A    between atoms: C13_17  and  O2_2 
REMARK    2  A    between atoms: C6_10  and  O2_2 
REMARK    3  A    between atoms: C1_5  and  C5_9 
ROOT
HETATM    1  O1  UNK     1      18.004   5.315  34.029  1.00  0.00    -0.275 OA
HETATM    2  O3  UNK     1      17.795   7.561  34.405  1.00  0.00    -0.260 OA
HETATM    3  C1  UNK     1      18.699   2.118  31.441  1.00  0.00    -0.024 A 
HETATM    4  C2  UNK     1      18.486   4.520  31.771  1.00  0.00     0.005 A 
HETATM    5  C3  UNK     1      18.715   3.421  30.932  1.00  0.00     0.024 A 
HETATM    6  C4  UNK     1      18.243   4.264  33.120  1.00  0.00     0.093 A 
HETATM    7  C6  UNK     1      18.453   1.892  32.794  1.00  0.00     0.088 A 
HETATM    8  C7  UNK     1      18.489   5.915  31.308  1.00  0.00    -0.043 A 
HETATM    9  C8  UNK     1      18.223   2.970  33.643  1.00  0.00     0.076 A 
HETATM   10  C9  UNK     1      18.258   6.894  32.194  1.00  0.00     0.090 A 
HETATM   11  C11 UNK     1      18.749   6.223  29.862  1.00  0.00     0.049 C 
HETATM   12  C12 UNK     1      18.000   6.640  33.621  1.00  0.00     0.288 A 
ENDROOT
BRANCH   7  13
HETATM   13  O2  UNK     1      18.433   0.628  33.300  1.00  0.00    -0.279 OA
BRANCH  13  14
HETATM   14  C13 UNK     1      17.508   0.441  34.340  1.00  0.00     0.260 C 
HETATM   15  O4  UNK     1      16.299   0.617  34.262  1.00  0.00    -0.265 OA
HETATM   16  C14 UNK     1      18.216  -0.011  35.582  1.00  0.00     0.126 C 
ENDBRANCH  13  14
ENDBRANCH   7  13
BRANCH   3  17
HETATM   17  C5  UNK     1      18.947   0.973  30.514  1.00  0.00     0.037 C 
HETATM   18  C10 UNK     1      18.653   1.332  29.060  1.00  0.00     0.010 C 
ENDBRANCH   3  17
TORSDOF 3
ENDMDL
MODEL 9
REMARK VINA RESULT:      -6.8      2.923      4.914
REMARK  3 active torsions:
REMARK  status: ('A' for Active; 'I' for Inactive)
REMARK    1  A    between atoms: C13_17  and  O2_2 
REMARK    2  A    between atoms: C6_10  and  O2_2 
REMARK    3  A    between atoms: C1_5  and  C5_9 
ROOT
HETATM    1  O1  UNK     1      18.507   0.624  33.184  1.00  0.00    -0.275 OA
HETATM    2  O3  UNK     1      18.852  -1.625  33.421  1.00  0.00    -0.260 OA
HETATM    3  C1  UNK     1      18.639   4.091  30.868  1.00  0.00    -0.024 A 
HETATM    4  C2  UNK     1      19.033   1.696  31.054  1.00  0.00     0.005 A 
HETATM    5  C3  UNK     1      19.063   2.881  30.307  1.00  0.00     0.024 A 
HETATM    6  C4  UNK     1      18.569   1.771  32.367  1.00  0.00     0.093 A 
HETATM    7  C6  UNK     1      18.179   4.136  32.183  1.00  0.00     0.088 A 
HETATM    8  C7  UNK     1      19.461   0.391  30.532  1.00  0.00    -0.043 A 
HETATM    9  C8  UNK     1      18.142   2.969  32.941  1.00  0.00     0.076 A 
HETATM   10  C9  UNK     1      19.392  -0.683  31.331  1.00  0.00     0.090 A 
HETATM   11  C11 UNK     1      19.965   0.277  29.122  1.00  0.00     0.049 C 
HETATM   12  C12 UNK     1      18.904  -0.621  32.719  1.00  0.00     0.288 A 
ENDROOT
BRANCH   7  13
HETATM   13  O2  UNK     1      17.765   5.307  32.739  1.00  0.00    -0.279 OA
BRANCH  13  14
HETATM   14  C13 UNK     1      18.781   6.019  33.398  1.00  0.00     0.260 C 
HETATM   15  O4  UNK     1      19.636   5.536  34.128  1.00  0.00    -0.265 OA
HETATM   16  C14 UNK     1      18.672   7.481  33.080  1.00  0.00     0.126 C 
ENDBRANCH  13  14
ENDBRANCH   7  13
BRANCH   3  17
HETATM   17  C5  UNK     1      18.686   5.333  30.038  1.00  0.00     0.037 C 
HETATM   18  C10 UNK     1      20.090   5.926  29.967  1.00  0.00     0.010 C 
ENDBRANCH   3  17
TORSDOF 3
ENDMDL
MODEL 10
REMARK VINA RESULT:      -6.8      6.199      7.565
REMARK  3 active torsions:
REMARK  status: ('A' for Active; 'I' for Inactive)
REMARK    1  A    between atoms: C13_17  and  O2_2 
REMARK    2  A    between atoms: C6_10  and  O2_2 
REMARK    3  A    between atoms: C1_5  and  C5_9 
ROOT
HETATM    1  O1  UNK     1      18.477   1.753  31.516  1.00  0.00    -0.275 OA
HETATM    2  O3  UNK     1      19.049   2.235  29.354  1.00  0.00    -0.260 OA
HETATM    3  C1  UNK     1      18.475  -0.851  34.774  1.00  0.00    -0.024 A 
HETATM    4  C2  UNK     1      19.112  -0.404  32.468  1.00  0.00     0.005 A 
HETATM    5  C3  UNK     1      19.091  -1.252  33.583  1.00  0.00     0.024 A 
HETATM    6  C4  UNK     1      18.499   0.843  32.591  1.00  0.00     0.093 A 
HETATM    7  C6  UNK     1      17.871   0.401  34.869  1.00  0.00     0.088 A 
HETATM    8  C7  UNK     1      19.739  -0.756  31.186  1.00  0.00    -0.043 A 
HETATM    9  C8  UNK     1      17.881   1.257  33.772  1.00  0.00     0.076 A 
HETATM   10  C9  UNK     1      19.702   0.128  30.180  1.00  0.00     0.090 A 
HETATM   11  C11 UNK     1      20.408  -2.090  31.022  1.00  0.00     0.049 C 
HETATM   12  C12 UNK     1      19.060   1.449  30.295  1.00  0.00     0.288 A 
ENDROOT
BRANCH   7  13
HETATM   13  O2  UNK     1      17.268   0.801  36.023  1.00  0.00    -0.279 OA
BRANCH  13  14
HETATM   14  C13 UNK     1      18.133   1.433  36.932  1.00  0.00     0.260 C 
HETATM   15  O4  UNK     1      19.122   2.093  36.638  1.00  0.00    -0.265 OA
HETATM   16  C14 UNK     1      17.672   1.184  38.336  1.00  0.00     0.126 C 
ENDBRANCH  13  14
ENDBRANCH   7  13
BRANCH   3  17
HETATM   17  C5  UNK     1      18.475  -1.785  35.941  1.00  0.00     0.037 C 
HETATM   18  C10 UNK     1      19.870  -2.313  36.260  1.00  0.00     0.010 C 
ENDBRANCH   3  17
TORSDOF 3
ENDMDL
