MODEL 1
REMARK VINA RESULT:     -10.2      0.000      0.000
REMARK  2 active torsions:
REMARK  status: ('A' for Active; 'I' for Inactive)
REMARK    1  A    between atoms: C4_7  and  C9_12 
REMARK    2  A    between atoms: C11_14  and  C7_10 
ROOT
HETATM    1  O1  UNK     1      18.828   5.103  29.900  1.00  0.00    -0.321 OA
HETATM    2  O2  UNK     1      19.273   0.401  30.902  1.00  0.00    -0.275 OA
HETATM    3  O3  UNK     1      19.457  -1.809  31.452  1.00  0.00    -0.260 OA
HETATM    4  C1  UNK     1      18.244   4.325  31.939  1.00  0.00     0.012 A 
HETATM    5  C2  UNK     1      18.424   1.979  32.559  1.00  0.00     0.010 A 
HETATM    6  C3  UNK     1      18.741   3.992  30.684  1.00  0.00     0.088 A 
HETATM    7  C4  UNK     1      18.018   5.727  31.904  1.00  0.00     0.009 A 
HETATM    8  C5  UNK     1      18.081   3.302  32.896  1.00  0.00     0.030 A 
HETATM    9  C6  UNK     1      18.918   1.715  31.280  1.00  0.00     0.093 A 
HETATM   10  C7  UNK     1      18.277   0.867  33.515  1.00  0.00    -0.007 A 
HETATM   11  C8  UNK     1      19.094   2.701  30.302  1.00  0.00     0.076 A 
HETATM   12  C10 UNK     1      18.388   6.149  30.649  1.00  0.00     0.155 A 
HETATM   13  C12 UNK     1      18.625  -0.368  33.119  1.00  0.00     0.095 A 
HETATM   14  C13 UNK     1      19.149  -0.667  31.774  1.00  0.00     0.289 A 
ENDROOT
BRANCH   7  15
HETATM   15  C9  UNK     1      17.516   6.615  32.909  1.00  0.00    -0.023 A 
HETATM   16  C14 UNK     1      16.156   6.934  32.947  1.00  0.00     0.012 A 
HETATM   17  C18 UNK     1      15.667   7.800  33.925  1.00  0.00     0.001 A 
HETATM   18  C22 UNK     1      16.535   8.349  34.868  1.00  0.00     0.000 A 
HETATM   19  C19 UNK     1      17.893   8.033  34.832  1.00  0.00     0.001 A 
HETATM   20  C15 UNK     1      18.383   7.167  33.854  1.00  0.00     0.012 A 
ENDBRANCH   7  15
BRANCH  10  21
HETATM   21  C11 UNK     1      17.778   0.969  34.884  1.00  0.00    -0.025 A 
HETATM   22  C16 UNK     1      18.574   1.548  35.869  1.00  0.00     0.012 A 
HETATM   23  C20 UNK     1      18.096   1.648  37.175  1.00  0.00     0.001 A 
HETATM   24  C23 UNK     1      16.825   1.167  37.491  1.00  0.00     0.000 A 
HETATM   25  C21 UNK     1      16.032   0.589  36.501  1.00  0.00     0.001 A 
HETATM   26  C17 UNK     1      16.510   0.489  35.194  1.00  0.00     0.012 A 
ENDBRANCH  10  21
TORSDOF 2
ENDMDL
MODEL 2
REMARK VINA RESULT:      -9.3      3.479      5.610
REMARK  2 active torsions:
REMARK  status: ('A' for Active; 'I' for Inactive)
REMARK    1  A    between atoms: C4_7  and  C9_12 
REMARK    2  A    between atoms: C11_14  and  C7_10 
ROOT
HETATM    1  O1  UNK     1      20.983  -2.255  30.415  1.00  0.00    -0.321 OA
HETATM    2  O2  UNK     1      20.471  -3.759  34.974  1.00  0.00    -0.275 OA
HETATM    3  O3  UNK     1      20.184  -4.403  37.148  1.00  0.00    -0.260 OA
HETATM    4  C1  UNK     1      19.748  -1.045  31.869  1.00  0.00     0.012 A 
HETATM    5  C2  UNK     1      19.419  -1.701  34.188  1.00  0.00     0.010 A 
HETATM    6  C3  UNK     1      20.527  -2.185  31.696  1.00  0.00     0.088 A 
HETATM    7  C4  UNK     1      19.738  -0.391  30.608  1.00  0.00     0.009 A 
HETATM    8  C5  UNK     1      19.182  -0.796  33.136  1.00  0.00     0.030 A 
HETATM    9  C6  UNK     1      20.210  -2.826  33.946  1.00  0.00     0.093 A 
HETATM   10  C7  UNK     1      18.856  -1.497  35.535  1.00  0.00    -0.007 A 
HETATM   11  C8  UNK     1      20.789  -3.108  32.703  1.00  0.00     0.076 A 
HETATM   12  C10 UNK     1      20.501  -1.164  29.763  1.00  0.00     0.155 A 
HETATM   13  C12 UNK     1      19.127  -2.405  36.486  1.00  0.00     0.095 A 
HETATM   14  C13 UNK     1      19.960  -3.598  36.251  1.00  0.00     0.289 A 
ENDROOT
BRANCH   7  15
HETATM   15  C9  UNK     1      19.103   0.823  30.192  1.00  0.00    -0.023 A 
HETATM   16  C14 UNK     1      19.024   1.909  31.067  1.00  0.00     0.012 A 
HETATM   17  C18 UNK     1      18.405   3.091  30.661  1.00  0.00     0.001 A 
HETATM   18  C22 UNK     1      17.863   3.192  29.380  1.00  0.00     0.000 A 
HETATM   19  C19 UNK     1      17.941   2.109  28.504  1.00  0.00     0.001 A 
HETATM   20  C15 UNK     1      18.560   0.926  28.909  1.00  0.00     0.012 A 
ENDBRANCH   7  15
BRANCH  10  21
HETATM   21  C11 UNK     1      18.013  -0.381  35.954  1.00  0.00    -0.025 A 
HETATM   22  C16 UNK     1      16.627  -0.503  35.904  1.00  0.00     0.012 A 
HETATM   23  C20 UNK     1      15.823   0.562  36.308  1.00  0.00     0.001 A 
HETATM   24  C23 UNK     1      16.407   1.746  36.759  1.00  0.00     0.000 A 
HETATM   25  C21 UNK     1      17.796   1.863  36.807  1.00  0.00     0.001 A 
HETATM   26  C17 UNK     1      18.601   0.797  36.404  1.00  0.00     0.012 A 
ENDBRANCH  10  21
TORSDOF 2
ENDMDL
MODEL 3
REMARK VINA RESULT:      -9.0     14.265     16.400
REMARK  2 active torsions:
REMARK  status: ('A' for Active; 'I' for Inactive)
REMARK    1  A    between atoms: C4_7  and  C9_12 
REMARK    2  A    between atoms: C11_14  and  C7_10 
ROOT
HETATM    1  O1  UNK     1      30.919  -7.238  34.984  1.00  0.00    -0.321 OA
HETATM    2  O2  UNK     1      29.098  -9.310  38.946  1.00  0.00    -0.275 OA
HETATM    3  O3  UNK     1      28.168 -10.308  40.779  1.00  0.00    -0.260 OA
HETATM    4  C1  UNK     1      28.881  -8.211  34.912  1.00  0.00     0.012 A 
HETATM    5  C2  UNK     1      27.861  -9.286  36.842  1.00  0.00     0.010 A 
HETATM    6  C3  UNK     1      29.981  -7.912  35.708  1.00  0.00     0.088 A 
HETATM    7  C4  UNK     1      29.179  -7.683  33.628  1.00  0.00     0.009 A 
HETATM    8  C5  UNK     1      27.801  -8.911  35.486  1.00  0.00     0.030 A 
HETATM    9  C6  UNK     1      28.996  -8.952  37.583  1.00  0.00     0.093 A 
HETATM   10  C7  UNK     1      26.764 -10.018  37.499  1.00  0.00    -0.007 A 
HETATM   11  C8  UNK     1      30.090  -8.259  37.050  1.00  0.00     0.076 A 
HETATM   12  C10 UNK     1      30.423  -7.104  33.725  1.00  0.00     0.155 A 
HETATM   13  C12 UNK     1      26.897 -10.339  38.796  1.00  0.00     0.095 A 
HETATM   14  C13 UNK     1      28.086  -9.996  39.596  1.00  0.00     0.289 A 
ENDROOT
BRANCH   7  15
HETATM   15  C9  UNK     1      28.417  -7.693  32.415  1.00  0.00    -0.023 A 
HETATM   16  C14 UNK     1      28.490  -8.787  31.549  1.00  0.00     0.012 A 
HETATM   17  C18 UNK     1      27.747  -8.796  30.369  1.00  0.00     0.001 A 
HETATM   18  C22 UNK     1      26.931  -7.712  30.050  1.00  0.00     0.000 A 
HETATM   19  C19 UNK     1      26.856  -6.618  30.911  1.00  0.00     0.001 A 
HETATM   20  C15 UNK     1      27.599  -6.608  32.093  1.00  0.00     0.012 A 
ENDBRANCH   7  15
BRANCH  10  21
HETATM   21  C11 UNK     1      25.515 -10.441  36.873  1.00  0.00    -0.025 A 
HETATM   22  C16 UNK     1      24.434  -9.566  36.824  1.00  0.00     0.012 A 
HETATM   23  C20 UNK     1      23.242  -9.971  36.223  1.00  0.00     0.001 A 
HETATM   24  C23 UNK     1      23.137 -11.249  35.674  1.00  0.00     0.000 A 
HETATM   25  C21 UNK     1      24.223 -12.122  35.725  1.00  0.00     0.001 A 
HETATM   26  C17 UNK     1      25.416 -11.717  36.326  1.00  0.00     0.012 A 
ENDBRANCH  10  21
TORSDOF 2
ENDMDL
MODEL 4
REMARK VINA RESULT:      -8.9     14.302     16.802
REMARK  2 active torsions:
REMARK  status: ('A' for Active; 'I' for Inactive)
REMARK    1  A    between atoms: C4_7  and  C9_12 
REMARK    2  A    between atoms: C11_14  and  C7_10 
ROOT
HETATM    1  O1  UNK     1      28.147  -9.320  38.814  1.00  0.00    -0.321 OA
HETATM    2  O2  UNK     1      31.102  -6.824  35.926  1.00  0.00    -0.275 OA
HETATM    3  O3  UNK     1      32.451  -5.658  34.496  1.00  0.00    -0.260 OA
HETATM    4  C1  UNK     1      27.632  -9.059  36.630  1.00  0.00     0.012 A 
HETATM    5  C2  UNK     1      29.042  -7.823  35.079  1.00  0.00     0.010 A 
HETATM    6  C3  UNK     1      28.552  -8.774  37.634  1.00  0.00     0.088 A 
HETATM    7  C4  UNK     1      26.609  -9.824  37.251  1.00  0.00     0.009 A 
HETATM    8  C5  UNK     1      27.878  -8.575  35.329  1.00  0.00     0.030 A 
HETATM    9  C6  UNK     1      29.924  -7.575  36.133  1.00  0.00     0.093 A 
HETATM   10  C7  UNK     1      29.356  -7.290  33.742  1.00  0.00    -0.007 A 
HETATM   11  C8  UNK     1      29.715  -8.037  37.439  1.00  0.00     0.076 A 
HETATM   12  C10 UNK     1      26.969  -9.954  38.572  1.00  0.00     0.155 A 
HETATM   13  C12 UNK     1      30.485  -6.582  33.583  1.00  0.00     0.095 A 
HETATM   14  C13 UNK     1      31.429  -6.309  34.682  1.00  0.00     0.289 A 
ENDROOT
BRANCH   7  15
HETATM   15  C9  UNK     1      25.412 -10.393  36.709  1.00  0.00    -0.023 A 
HETATM   16  C14 UNK     1      25.408 -11.711  36.245  1.00  0.00     0.012 A 
HETATM   17  C18 UNK     1      24.242 -12.264  35.719  1.00  0.00     0.001 A 
HETATM   18  C22 UNK     1      23.075 -11.503  35.653  1.00  0.00     0.000 A 
HETATM   19  C19 UNK     1      23.076 -10.187  36.115  1.00  0.00     0.001 A 
HETATM   20  C15 UNK     1      24.242  -9.632  36.643  1.00  0.00     0.012 A 
ENDBRANCH   7  15
BRANCH  10  21
HETATM   21  C11 UNK     1      28.546  -7.457  32.538  1.00  0.00    -0.025 A 
HETATM   22  C16 UNK     1      28.686  -8.604  31.762  1.00  0.00     0.012 A 
HETATM   23  C20 UNK     1      27.910  -8.764  30.614  1.00  0.00     0.001 A 
HETATM   24  C23 UNK     1      26.999  -7.774  30.246  1.00  0.00     0.000 A 
HETATM   25  C21 UNK     1      26.862  -6.626  31.026  1.00  0.00     0.001 A 
HETATM   26  C17 UNK     1      27.637  -6.467  32.175  1.00  0.00     0.012 A 
ENDBRANCH  10  21
TORSDOF 2
ENDMDL
MODEL 5
REMARK VINA RESULT:      -8.9     15.302     17.985
REMARK  2 active torsions:
REMARK  status: ('A' for Active; 'I' for Inactive)
REMARK    1  A    between atoms: C4_7  and  C9_12 
REMARK    2  A    between atoms: C11_14  and  C7_10 
ROOT
HETATM    1  O1  UNK     1      26.856  -9.126  36.845  1.00  0.00    -0.321 OA
HETATM    2  O2  UNK     1      28.556  -5.221  39.120  1.00  0.00    -0.275 OA
HETATM    3  O3  UNK     1      29.430  -3.381  40.154  1.00  0.00    -0.260 OA
HETATM    4  C1  UNK     1      28.914  -8.337  36.346  1.00  0.00     0.012 A 
HETATM    5  C2  UNK     1      29.876  -6.380  37.425  1.00  0.00     0.010 A 
HETATM    6  C3  UNK     1      27.776  -8.162  37.127  1.00  0.00     0.088 A 
HETATM    7  C4  UNK     1      28.657  -9.481  35.544  1.00  0.00     0.009 A 
HETATM    8  C5  UNK     1      29.984  -7.431  36.494  1.00  0.00     0.030 A 
HETATM    9  C6  UNK     1      28.706  -6.262  38.177  1.00  0.00     0.093 A 
HETATM   10  C7  UNK     1      30.959  -5.402  37.626  1.00  0.00    -0.007 A 
HETATM   11  C8  UNK     1      27.621  -7.140  38.058  1.00  0.00     0.076 A 
HETATM   12  C10 UNK     1      27.399  -9.920  35.884  1.00  0.00     0.155 A 
HETATM   13  C12 UNK     1      30.780  -4.427  38.532  1.00  0.00     0.095 A 
HETATM   14  C13 UNK     1      29.553  -4.286  39.336  1.00  0.00     0.289 A 
ENDROOT
BRANCH   7  15
HETATM   15  C9  UNK     1      29.468 -10.128  34.556  1.00  0.00    -0.023 A 
HETATM   16  C14 UNK     1      29.035 -10.199  33.229  1.00  0.00     0.012 A 
HETATM   17  C18 UNK     1      29.825 -10.830  32.269  1.00  0.00     0.001 A 
HETATM   18  C22 UNK     1      31.049 -11.391  32.630  1.00  0.00     0.000 A 
HETATM   19  C19 UNK     1      31.484 -11.322  33.953  1.00  0.00     0.001 A 
HETATM   20  C15 UNK     1      30.694 -10.691  34.915  1.00  0.00     0.012 A 
ENDBRANCH   7  15
BRANCH  10  21
HETATM   21  C11 UNK     1      32.240  -5.380  36.926  1.00  0.00    -0.025 A 
HETATM   22  C16 UNK     1      32.351  -4.723  35.705  1.00  0.00     0.012 A 
HETATM   23  C20 UNK     1      33.576  -4.701  35.038  1.00  0.00     0.001 A 
HETATM   24  C23 UNK     1      34.685  -5.338  35.596  1.00  0.00     0.000 A 
HETATM   25  C21 UNK     1      34.569  -5.995  36.820  1.00  0.00     0.001 A 
HETATM   26  C17 UNK     1      33.343  -6.017  37.487  1.00  0.00     0.012 A 
ENDBRANCH  10  21
TORSDOF 2
ENDMDL
MODEL 6
REMARK VINA RESULT:      -8.4     22.895     25.030
REMARK  2 active torsions:
REMARK  status: ('A' for Active; 'I' for Inactive)
REMARK    1  A    between atoms: C4_7  and  C9_12 
REMARK    2  A    between atoms: C11_14  and  C7_10 
ROOT
HETATM    1  O1  UNK     1      14.909  10.628  12.087  1.00  0.00    -0.321 OA
HETATM    2  O2  UNK     1      15.604   6.123  10.495  1.00  0.00    -0.275 OA
HETATM    3  O3  UNK     1      15.863   3.997   9.699  1.00  0.00    -0.260 OA
HETATM    4  C1  UNK     1      13.438   9.704  10.642  1.00  0.00     0.012 A 
HETATM    5  C2  UNK     1      13.684   7.445   9.772  1.00  0.00     0.010 A 
HETATM    6  C3  UNK     1      14.610   9.511  11.366  1.00  0.00     0.088 A 
HETATM    7  C4  UNK     1      13.008  11.022  10.950  1.00  0.00     0.009 A 
HETATM    8  C5  UNK     1      12.964   8.654   9.829  1.00  0.00     0.030 A 
HETATM    9  C6  UNK     1      14.852   7.319  10.525  1.00  0.00     0.093 A 
HETATM   10  C7  UNK     1      13.240   6.311   8.942  1.00  0.00    -0.007 A 
HETATM   11  C8  UNK     1      15.356   8.338  11.344  1.00  0.00     0.076 A 
HETATM   12  C10 UNK     1      13.932  11.537  11.828  1.00  0.00     0.155 A 
HETATM   13  C12 UNK     1      13.980   5.191   8.940  1.00  0.00     0.095 A 
HETATM   14  C13 UNK     1      15.216   5.038   9.728  1.00  0.00     0.289 A 
ENDROOT
BRANCH   7  15
HETATM   15  C9  UNK     1      11.866  11.759  10.498  1.00  0.00    -0.023 A 
HETATM   16  C14 UNK     1      10.640  11.113  10.318  1.00  0.00     0.012 A 
HETATM   17  C18 UNK     1       9.529  11.832   9.878  1.00  0.00     0.001 A 
HETATM   18  C22 UNK     1       9.639  13.198   9.617  1.00  0.00     0.000 A 
HETATM   19  C19 UNK     1      10.861  13.845   9.797  1.00  0.00     0.001 A 
HETATM   20  C15 UNK     1      11.973  13.127  10.237  1.00  0.00     0.012 A 
ENDBRANCH   7  15
BRANCH  10  21
HETATM   21  C11 UNK     1      12.048   6.277   8.099  1.00  0.00    -0.025 A 
HETATM   22  C16 UNK     1      10.814   5.955   8.657  1.00  0.00     0.012 A 
HETATM   23  C20 UNK     1       9.676   5.925   7.852  1.00  0.00     0.001 A 
HETATM   24  C23 UNK     1       9.776   6.216   6.491  1.00  0.00     0.000 A 
HETATM   25  C21 UNK     1      11.014   6.539   5.937  1.00  0.00     0.001 A 
HETATM   26  C17 UNK     1      12.153   6.569   6.743  1.00  0.00     0.012 A 
ENDBRANCH  10  21
TORSDOF 2
ENDMDL
MODEL 7
REMARK VINA RESULT:      -8.4     15.391     18.627
REMARK  2 active torsions:
REMARK  status: ('A' for Active; 'I' for Inactive)
REMARK    1  A    between atoms: C4_7  and  C9_12 
REMARK    2  A    between atoms: C11_14  and  C7_10 
ROOT
HETATM    1  O1  UNK     1      36.359  -8.174  31.536  1.00  0.00    -0.321 OA
HETATM    2  O2  UNK     1      32.659  -9.167  28.597  1.00  0.00    -0.275 OA
HETATM    3  O3  UNK     1      30.857  -9.602  27.262  1.00  0.00    -0.260 OA
HETATM    4  C1  UNK     1      34.265  -7.553  32.112  1.00  0.00     0.012 A 
HETATM    5  C2  UNK     1      32.324  -7.998  30.714  1.00  0.00     0.010 A 
HETATM    6  C3  UNK     1      35.052  -8.179  31.151  1.00  0.00     0.088 A 
HETATM    7  C4  UNK     1      35.159  -7.146  33.137  1.00  0.00     0.009 A 
HETATM    8  C5  UNK     1      32.876  -7.458  31.892  1.00  0.00     0.030 A 
HETATM    9  C6  UNK     1      33.172  -8.614  29.792  1.00  0.00     0.093 A 
HETATM   10  C7  UNK     1      30.880  -7.931  30.427  1.00  0.00    -0.007 A 
HETATM   11  C8  UNK     1      34.556  -8.727  29.973  1.00  0.00     0.076 A 
HETATM   12  C10 UNK     1      36.414  -7.546  32.740  1.00  0.00     0.155 A 
HETATM   13  C12 UNK     1      30.430  -8.468  29.282  1.00  0.00     0.095 A 
HETATM   14  C13 UNK     1      31.308  -9.123  28.296  1.00  0.00     0.289 A 
ENDROOT
BRANCH   7  15
HETATM   15  C9  UNK     1      34.914  -6.459  34.369  1.00  0.00    -0.023 A 
HETATM   16  C14 UNK     1      34.909  -7.163  35.576  1.00  0.00     0.012 A 
HETATM   17  C18 UNK     1      34.670  -6.493  36.776  1.00  0.00     0.001 A 
HETATM   18  C22 UNK     1      34.436  -5.118  36.774  1.00  0.00     0.000 A 
HETATM   19  C19 UNK     1      34.441  -4.413  35.570  1.00  0.00     0.001 A 
HETATM   20  C15 UNK     1      34.680  -5.082  34.370  1.00  0.00     0.012 A 
ENDBRANCH   7  15
BRANCH  10  21
HETATM   21  C11 UNK     1      29.860  -7.326  31.279  1.00  0.00    -0.025 A 
HETATM   22  C16 UNK     1      29.125  -8.123  32.152  1.00  0.00     0.012 A 
HETATM   23  C20 UNK     1      28.154  -7.544  32.968  1.00  0.00     0.001 A 
HETATM   24  C23 UNK     1      27.920  -6.170  32.906  1.00  0.00     0.000 A 
HETATM   25  C21 UNK     1      28.659  -5.375  32.030  1.00  0.00     0.001 A 
HETATM   26  C17 UNK     1      29.632  -5.955  31.214  1.00  0.00     0.012 A 
ENDBRANCH  10  21
TORSDOF 2
ENDMDL
MODEL 8
REMARK VINA RESULT:      -8.4     15.278     18.458
REMARK  2 active torsions:
REMARK  status: ('A' for Active; 'I' for Inactive)
REMARK    1  A    between atoms: C4_7  and  C9_12 
REMARK    2  A    between atoms: C11_14  and  C7_10 
ROOT
HETATM    1  O1  UNK     1      33.086  -8.862  28.624  1.00  0.00    -0.321 OA
HETATM    2  O2  UNK     1      36.259  -7.791  32.103  1.00  0.00    -0.275 OA
HETATM    3  O3  UNK     1      37.699  -7.253  33.793  1.00  0.00    -0.260 OA
HETATM    4  C1  UNK     1      32.372  -7.920  30.550  1.00  0.00     0.012 A 
HETATM    5  C2  UNK     1      33.876  -7.337  32.372  1.00  0.00     0.010 A 
HETATM    6  C3  UNK     1      33.474  -8.386  29.841  1.00  0.00     0.088 A 
HETATM    7  C4  UNK     1      31.252  -8.133  29.704  1.00  0.00     0.009 A 
HETATM    8  C5  UNK     1      32.573  -7.387  31.839  1.00  0.00     0.030 A 
HETATM    9  C6  UNK     1      34.937  -7.821  31.605  1.00  0.00     0.093 A 
HETATM   10  C7  UNK     1      34.150  -6.791  33.713  1.00  0.00    -0.007 A 
HETATM   11  C8  UNK     1      34.779  -8.359  30.322  1.00  0.00     0.076 A 
HETATM   12  C10 UNK     1      31.738  -8.704  28.551  1.00  0.00     0.155 A 
HETATM   13  C12 UNK     1      35.420  -6.778  34.151  1.00  0.00     0.095 A 
HETATM   14  C13 UNK     1      36.553  -7.283  33.357  1.00  0.00     0.289 A 
ENDROOT
BRANCH   7  15
HETATM   15  C9  UNK     1      29.863  -7.848  29.906  1.00  0.00    -0.023 A 
HETATM   16  C14 UNK     1      28.924  -8.882  29.885  1.00  0.00     0.012 A 
HETATM   17  C18 UNK     1      27.572  -8.604  30.083  1.00  0.00     0.001 A 
HETATM   18  C22 UNK     1      27.153  -7.292  30.301  1.00  0.00     0.000 A 
HETATM   19  C19 UNK     1      28.088  -6.257  30.323  1.00  0.00     0.001 A 
HETATM   20  C15 UNK     1      29.441  -6.534  30.126  1.00  0.00     0.012 A 
ENDBRANCH   7  15
BRANCH  10  21
HETATM   21  C11 UNK     1      33.162  -6.247  34.639  1.00  0.00    -0.025 A 
HETATM   22  C16 UNK     1      32.384  -7.109  35.407  1.00  0.00     0.012 A 
HETATM   23  C20 UNK     1      31.442  -6.589  36.294  1.00  0.00     0.001 A 
HETATM   24  C23 UNK     1      31.280  -5.208  36.408  1.00  0.00     0.000 A 
HETATM   25  C21 UNK     1      32.061  -4.348  35.637  1.00  0.00     0.001 A 
HETATM   26  C17 UNK     1      33.005  -4.869  34.750  1.00  0.00     0.012 A 
ENDBRANCH  10  21
TORSDOF 2
ENDMDL
MODEL 9
REMARK VINA RESULT:      -8.4     15.914     18.404
REMARK  2 active torsions:
REMARK  status: ('A' for Active; 'I' for Inactive)
REMARK    1  A    between atoms: C4_7  and  C9_12 
REMARK    2  A    between atoms: C11_14  and  C7_10 
ROOT
HETATM    1  O1  UNK     1      35.789  -5.961  35.942  1.00  0.00    -0.321 OA
HETATM    2  O2  UNK     1      35.722  -7.440  31.347  1.00  0.00    -0.275 OA
HETATM    3  O3  UNK     1      35.608  -8.143  29.175  1.00  0.00    -0.260 OA
HETATM    4  C1  UNK     1      33.816  -6.316  34.901  1.00  0.00     0.012 A 
HETATM    5  C2  UNK     1      33.656  -7.061  32.590  1.00  0.00     0.010 A 
HETATM    6  C3  UNK     1      35.201  -6.343  34.774  1.00  0.00     0.088 A 
HETATM    7  C4  UNK     1      33.559  -5.889  36.232  1.00  0.00     0.009 A 
HETATM    8  C5  UNK     1      33.027  -6.680  33.791  1.00  0.00     0.030 A 
HETATM    9  C6  UNK     1      35.051  -7.066  32.532  1.00  0.00     0.093 A 
HETATM   10  C7  UNK     1      32.887  -7.452  31.396  1.00  0.00    -0.007 A 
HETATM   11  C8  UNK     1      35.870  -6.711  33.612  1.00  0.00     0.076 A 
HETATM   12  C10 UNK     1      34.787  -5.689  36.819  1.00  0.00     0.155 A 
HETATM   13  C12 UNK     1      33.560  -7.803  30.288  1.00  0.00     0.095 A 
HETATM   14  C13 UNK     1      35.031  -7.815  30.207  1.00  0.00     0.289 A 
ENDROOT
BRANCH   7  15
HETATM   15  C9  UNK     1      32.322  -5.680  36.922  1.00  0.00    -0.023 A 
HETATM   16  C14 UNK     1      31.738  -6.722  37.648  1.00  0.00     0.012 A 
HETATM   17  C18 UNK     1      30.534  -6.518  38.319  1.00  0.00     0.001 A 
HETATM   18  C22 UNK     1      29.908  -5.273  38.267  1.00  0.00     0.000 A 
HETATM   19  C19 UNK     1      30.488  -4.231  37.544  1.00  0.00     0.001 A 
HETATM   20  C15 UNK     1      31.693  -4.434  36.872  1.00  0.00     0.012 A 
ENDBRANCH   7  15
BRANCH  10  21
HETATM   21  C11 UNK     1      31.432  -7.501  31.288  1.00  0.00    -0.025 A 
HETATM   22  C16 UNK     1      30.734  -6.389  30.824  1.00  0.00     0.012 A 
HETATM   23  C20 UNK     1      29.344  -6.437  30.719  1.00  0.00     0.001 A 
HETATM   24  C23 UNK     1      28.658  -7.597  31.078  1.00  0.00     0.000 A 
HETATM   25  C21 UNK     1      29.361  -8.709  31.542  1.00  0.00     0.001 A 
HETATM   26  C17 UNK     1      30.752  -8.661  31.647  1.00  0.00     0.012 A 
ENDBRANCH  10  21
TORSDOF 2
ENDMDL
MODEL 10
REMARK VINA RESULT:      -8.3     15.384     17.520
REMARK  2 active torsions:
REMARK  status: ('A' for Active; 'I' for Inactive)
REMARK    1  A    between atoms: C4_7  and  C9_12 
REMARK    2  A    between atoms: C11_14  and  C7_10 
ROOT
HETATM    1  O1  UNK     1      32.445  -5.899  34.033  1.00  0.00    -0.321 OA
HETATM    2  O2  UNK     1      30.459  -4.120  38.058  1.00  0.00    -0.275 OA
HETATM    3  O3  UNK     1      29.477  -3.348  39.972  1.00  0.00    -0.260 OA
HETATM    4  C1  UNK     1      31.019  -7.167  35.242  1.00  0.00     0.012 A 
HETATM    5  C2  UNK     1      29.958  -6.380  37.285  1.00  0.00     0.010 A 
HETATM    6  C3  UNK     1      31.655  -5.935  35.143  1.00  0.00     0.088 A 
HETATM    7  C4  UNK     1      31.457  -7.918  34.119  1.00  0.00     0.009 A 
HETATM    8  C5  UNK     1      30.155  -7.397  36.332  1.00  0.00     0.030 A 
HETATM    9  C6  UNK     1      30.628  -5.166  37.124  1.00  0.00     0.093 A 
HETATM   10  C7  UNK     1      29.067  -6.559  38.445  1.00  0.00    -0.007 A 
HETATM   11  C8  UNK     1      31.494  -4.899  36.057  1.00  0.00     0.076 A 
HETATM   12  C10 UNK     1      32.318  -7.105  33.420  1.00  0.00     0.155 A 
HETATM   13  C12 UNK     1      28.931  -5.542  39.311  1.00  0.00     0.095 A 
HETATM   14  C13 UNK     1      29.629  -4.253  39.158  1.00  0.00     0.289 A 
ENDROOT
BRANCH   7  15
HETATM   15  C9  UNK     1      31.132  -9.250  33.704  1.00  0.00    -0.023 A 
HETATM   16  C14 UNK     1      31.817 -10.341  34.247  1.00  0.00     0.012 A 
HETATM   17  C18 UNK     1      31.501 -11.637  33.842  1.00  0.00     0.001 A 
HETATM   18  C22 UNK     1      30.500 -11.848  32.894  1.00  0.00     0.000 A 
HETATM   19  C19 UNK     1      29.815 -10.762  32.350  1.00  0.00     0.001 A 
HETATM   20  C15 UNK     1      30.131  -9.464  32.755  1.00  0.00     0.012 A 
ENDBRANCH   7  15
BRANCH  10  21
HETATM   21  C11 UNK     1      28.296  -7.758  38.761  1.00  0.00    -0.025 A 
HETATM   22  C16 UNK     1      26.905  -7.711  38.746  1.00  0.00     0.012 A 
HETATM   23  C20 UNK     1      26.169  -8.858  39.045  1.00  0.00     0.001 A 
HETATM   24  C23 UNK     1      26.828 -10.046  39.359  1.00  0.00     0.000 A 
HETATM   25  C21 UNK     1      28.222 -10.089  39.372  1.00  0.00     0.001 A 
HETATM   26  C17 UNK     1      28.958  -8.942  39.073  1.00  0.00     0.012 A 
ENDBRANCH  10  21
TORSDOF 2
ENDMDL
