MODEL 1
REMARK VINA RESULT:      -7.8      0.000      0.000
REMARK  4 active torsions:
REMARK  status: ('A' for Active; 'I' for Inactive)
REMARK    1  A    between atoms: C3_8  and  O2_2 
REMARK    2  A    between atoms: C4_9  and  O3_3 
REMARK    3  A    between atoms: C8_13  and  O4_4 
REMARK    4  A    between atoms: C10_15  and  C5_10 
ROOT
HETATM    1  O1  UNK     1      18.287   4.056  34.407  1.00  0.00    -0.309 OA
HETATM    2  O5  UNK     1      18.272   2.035  30.870  1.00  0.00    -0.287 OA
HETATM    3  C1  UNK     1      18.324   1.931  33.230  1.00  0.00     0.084 A 
HETATM    4  C2  UNK     1      18.326   2.684  34.403  1.00  0.00     0.096 A 
HETATM    5  C3  UNK     1      18.365   0.537  33.285  1.00  0.00     0.121 A 
HETATM    6  C4  UNK     1      18.407  -0.102  34.525  1.00  0.00     0.136 A 
HETATM    7  C5  UNK     1      18.253   4.720  33.190  1.00  0.00     0.090 A 
HETATM    8  C6  UNK     1      18.368   2.045  35.641  1.00  0.00     0.078 A 
HETATM    9  C7  UNK     1      18.279   2.632  31.937  1.00  0.00     0.190 A 
HETATM   10  C8  UNK     1      18.409   0.651  35.701  1.00  0.00     0.107 A 
HETATM   11  C9  UNK     1      18.241   4.107  31.996  1.00  0.00     0.094 A 
ENDROOT
BRANCH   7  12
HETATM   12  C10 UNK     1      18.207   6.190  33.310  1.00  0.00    -0.002 A 
HETATM   13  C11 UNK     1      17.137   6.906  32.768  1.00  0.00     0.014 A 
HETATM   14  C13 UNK     1      17.093   8.296  32.881  1.00  0.00     0.001 A 
HETATM   15  C16 UNK     1      18.119   8.974  33.539  1.00  0.00     0.000 A 
HETATM   16  C14 UNK     1      19.190   8.263  34.082  1.00  0.00     0.001 A 
HETATM   17  C12 UNK     1      19.233   6.873  33.968  1.00  0.00     0.014 A 
ENDBRANCH   7  12
BRANCH   5  18
HETATM   18  O2  UNK     1      18.365  -0.232  32.159  1.00  0.00    -0.352 OA
HETATM   19  C15 UNK     1      19.629  -0.703  31.698  1.00  0.00     0.210 C 
ENDBRANCH   5  18
BRANCH  10  20
HETATM   20  O4  UNK     1      18.449   0.035  36.916  1.00  0.00    -0.353 OA
HETATM   21  C18 UNK     1      17.683   0.624  37.966  1.00  0.00     0.210 C 
ENDBRANCH  10  20
BRANCH   6  22
HETATM   22  O3  UNK     1      18.446  -1.463  34.594  1.00  0.00    -0.351 OA
HETATM   23  C17 UNK     1      19.692  -2.058  34.946  1.00  0.00     0.210 C 
ENDBRANCH   6  22
TORSDOF 4
ENDMDL
MODEL 2
REMARK VINA RESULT:      -7.7      1.793      6.442
REMARK  4 active torsions:
REMARK  status: ('A' for Active; 'I' for Inactive)
REMARK    1  A    between atoms: C3_8  and  O2_2 
REMARK    2  A    between atoms: C4_9  and  O3_3 
REMARK    3  A    between atoms: C8_13  and  O4_4 
REMARK    4  A    between atoms: C10_15  and  C5_10 
ROOT
HETATM    1  O1  UNK     1      18.176   2.181  34.456  1.00  0.00    -0.309 OA
HETATM    2  O5  UNK     1      19.008   0.288  30.946  1.00  0.00    -0.287 OA
HETATM    3  C1  UNK     1      18.590   2.326  32.067  1.00  0.00     0.084 A 
HETATM    4  C2  UNK     1      18.307   2.909  33.301  1.00  0.00     0.096 A 
HETATM    5  C3  UNK     1      18.713   3.116  30.923  1.00  0.00     0.121 A 
HETATM    6  C4  UNK     1      18.552   4.499  31.021  1.00  0.00     0.136 A 
HETATM    7  C5  UNK     1      18.322   0.804  34.390  1.00  0.00     0.090 A 
HETATM    8  C6  UNK     1      18.145   4.291  33.397  1.00  0.00     0.078 A 
HETATM    9  C7  UNK     1      18.756   0.866  31.995  1.00  0.00     0.190 A 
HETATM   10  C8  UNK     1      18.268   5.085  32.257  1.00  0.00     0.107 A 
HETATM   11  C9  UNK     1      18.602   0.128  33.264  1.00  0.00     0.094 A 
ENDROOT
BRANCH   7  12
HETATM   12  C10 UNK     1      18.167   0.120  35.689  1.00  0.00    -0.002 A 
HETATM   13  C11 UNK     1      17.786   0.843  36.823  1.00  0.00     0.014 A 
HETATM   14  C13 UNK     1      17.639   0.197  38.050  1.00  0.00     0.001 A 
HETATM   15  C16 UNK     1      17.871  -1.174  38.147  1.00  0.00     0.000 A 
HETATM   16  C14 UNK     1      18.251  -1.901  37.018  1.00  0.00     0.001 A 
HETATM   17  C12 UNK     1      18.398  -1.254  35.791  1.00  0.00     0.014 A 
ENDBRANCH   7  12
BRANCH   5  18
HETATM   18  O2  UNK     1      18.989   2.581  29.700  1.00  0.00    -0.352 OA
HETATM   19  C15 UNK     1      17.877   2.284  28.858  1.00  0.00     0.210 C 
ENDBRANCH   5  18
BRANCH  10  20
HETATM   20  O4  UNK     1      18.108   6.434  32.361  1.00  0.00    -0.353 OA
HETATM   21  C18 UNK     1      19.104   7.148  33.092  1.00  0.00     0.210 C 
ENDBRANCH  10  20
BRANCH   6  22
HETATM   22  O3  UNK     1      18.670   5.283  29.912  1.00  0.00    -0.351 OA
HETATM   23  C17 UNK     1      19.911   5.958  29.726  1.00  0.00     0.210 C 
ENDBRANCH   6  22
TORSDOF 4
ENDMDL
MODEL 3
REMARK VINA RESULT:      -7.6      1.668      2.491
REMARK  4 active torsions:
REMARK  status: ('A' for Active; 'I' for Inactive)
REMARK    1  A    between atoms: C3_8  and  O2_2 
REMARK    2  A    between atoms: C4_9  and  O3_3 
REMARK    3  A    between atoms: C8_13  and  O4_4 
REMARK    4  A    between atoms: C10_15  and  C5_10 
ROOT
HETATM    1  O1  UNK     1      17.876   3.954  33.317  1.00  0.00    -0.309 OA
HETATM    2  O5  UNK     1      18.897   3.986  29.373  1.00  0.00    -0.287 OA
HETATM    3  C1  UNK     1      18.636   2.733  31.359  1.00  0.00     0.084 A 
HETATM    4  C2  UNK     1      18.273   2.793  32.703  1.00  0.00     0.096 A 
HETATM    5  C3  UNK     1      19.032   1.522  30.787  1.00  0.00     0.121 A 
HETATM    6  C4  UNK     1      19.062   0.368  31.571  1.00  0.00     0.136 A 
HETATM    7  C5  UNK     1      17.844   5.120  32.566  1.00  0.00     0.090 A 
HETATM    8  C6  UNK     1      18.303   1.638  33.485  1.00  0.00     0.078 A 
HETATM    9  C7  UNK     1      18.594   3.966  30.558  1.00  0.00     0.190 A 
HETATM   10  C8  UNK     1      18.698   0.427  32.918  1.00  0.00     0.107 A 
HETATM   11  C9  UNK     1      18.163   5.189  31.264  1.00  0.00     0.094 A 
ENDROOT
BRANCH   7  12
HETATM   12  C10 UNK     1      17.398   6.307  33.321  1.00  0.00    -0.002 A 
HETATM   13  C11 UNK     1      16.127   6.845  33.099  1.00  0.00     0.014 A 
HETATM   14  C13 UNK     1      15.706   7.967  33.812  1.00  0.00     0.001 A 
HETATM   15  C16 UNK     1      16.553   8.554  34.752  1.00  0.00     0.000 A 
HETATM   16  C14 UNK     1      17.822   8.020  34.978  1.00  0.00     0.001 A 
HETATM   17  C12 UNK     1      18.243   6.898  34.264  1.00  0.00     0.014 A 
ENDBRANCH   7  12
BRANCH   5  18
HETATM   18  O2  UNK     1      19.394   1.426  29.477  1.00  0.00    -0.352 OA
HETATM   19  C15 UNK     1      18.412   0.931  28.569  1.00  0.00     0.210 C 
ENDBRANCH   5  18
BRANCH  10  20
HETATM   20  O4  UNK     1      18.725  -0.696  33.690  1.00  0.00    -0.353 OA
HETATM   21  C18 UNK     1      17.810  -0.750  34.785  1.00  0.00     0.210 C 
ENDBRANCH  10  20
BRANCH   6  22
HETATM   22  O3  UNK     1      19.446  -0.821  31.025  1.00  0.00    -0.351 OA
HETATM   23  C17 UNK     1      20.833  -1.144  31.087  1.00  0.00     0.210 C 
ENDBRANCH   6  22
TORSDOF 4
ENDMDL
MODEL 4
REMARK VINA RESULT:      -7.5     15.517     18.256
REMARK  4 active torsions:
REMARK  status: ('A' for Active; 'I' for Inactive)
REMARK    1  A    between atoms: C3_8  and  O2_2 
REMARK    2  A    between atoms: C4_9  and  O3_3 
REMARK    3  A    between atoms: C8_13  and  O4_4 
REMARK    4  A    between atoms: C10_15  and  C5_10 
ROOT
HETATM    1  O1  UNK     1      20.464  -1.709  17.784  1.00  0.00    -0.309 OA
HETATM    2  O5  UNK     1      17.698  -2.339  14.860  1.00  0.00    -0.287 OA
HETATM    3  C1  UNK     1      19.750  -2.981  15.842  1.00  0.00     0.084 A 
HETATM    4  C2  UNK     1      20.654  -2.712  16.867  1.00  0.00     0.096 A 
HETATM    5  C3  UNK     1      19.995  -4.015  14.936  1.00  0.00     0.121 A 
HETATM    6  C4  UNK     1      21.154  -4.780  15.064  1.00  0.00     0.136 A 
HETATM    7  C5  UNK     1      19.325  -0.925  17.679  1.00  0.00     0.090 A 
HETATM    8  C6  UNK     1      21.813  -3.478  16.993  1.00  0.00     0.078 A 
HETATM    9  C7  UNK     1      18.536  -2.157  15.733  1.00  0.00     0.190 A 
HETATM   10  C8  UNK     1      22.062  -4.512  16.090  1.00  0.00     0.107 A 
HETATM   11  C9  UNK     1      18.378  -1.091  16.741  1.00  0.00     0.094 A 
ENDROOT
BRANCH   7  12
HETATM   12  C10 UNK     1      19.217   0.118  18.718  1.00  0.00    -0.002 A 
HETATM   13  C11 UNK     1      18.941   1.441  18.360  1.00  0.00     0.014 A 
HETATM   14  C13 UNK     1      18.838   2.427  19.341  1.00  0.00     0.001 A 
HETATM   15  C16 UNK     1      19.010   2.092  20.684  1.00  0.00     0.000 A 
HETATM   16  C14 UNK     1      19.284   0.774  21.047  1.00  0.00     0.001 A 
HETATM   17  C12 UNK     1      19.387  -0.212  20.064  1.00  0.00     0.014 A 
ENDBRANCH   7  12
BRANCH   5  18
HETATM   18  O2  UNK     1      19.133  -4.306  13.921  1.00  0.00    -0.352 OA
HETATM   19  C15 UNK     1      19.498  -3.863  12.615  1.00  0.00     0.210 C 
ENDBRANCH   5  18
BRANCH  10  20
HETATM   20  O4  UNK     1      23.197  -5.255  16.221  1.00  0.00    -0.353 OA
HETATM   21  C18 UNK     1      24.268  -4.675  16.965  1.00  0.00     0.210 C 
ENDBRANCH  10  20
BRANCH   6  22
HETATM   22  O3  UNK     1      21.406  -5.794  14.186  1.00  0.00    -0.351 OA
HETATM   23  C17 UNK     1      20.680  -7.006  14.372  1.00  0.00     0.210 C 
ENDBRANCH   6  22
TORSDOF 4
ENDMDL
MODEL 5
REMARK VINA RESULT:      -7.3      2.959      9.012
REMARK  4 active torsions:
REMARK  status: ('A' for Active; 'I' for Inactive)
REMARK    1  A    between atoms: C3_8  and  O2_2 
REMARK    2  A    between atoms: C4_9  and  O3_3 
REMARK    3  A    between atoms: C8_13  and  O4_4 
REMARK    4  A    between atoms: C10_15  and  C5_10 
ROOT
HETATM    1  O1  UNK     1      19.831  -3.183  35.313  1.00  0.00    -0.309 OA
HETATM    2  O5  UNK     1      18.061  -0.846  38.142  1.00  0.00    -0.287 OA
HETATM    3  C1  UNK     1      18.614  -1.155  35.865  1.00  0.00     0.084 A 
HETATM    4  C2  UNK     1      19.236  -2.002  34.950  1.00  0.00     0.096 A 
HETATM    5  C3  UNK     1      18.024   0.037  35.439  1.00  0.00     0.121 A 
HETATM    6  C4  UNK     1      18.060   0.376  34.086  1.00  0.00     0.136 A 
HETATM    7  C5  UNK     1      19.819  -3.544  36.652  1.00  0.00     0.090 A 
HETATM    8  C6  UNK     1      19.271  -1.660  33.598  1.00  0.00     0.078 A 
HETATM    9  C7  UNK     1      18.592  -1.540  37.285  1.00  0.00     0.190 A 
HETATM   10  C8  UNK     1      18.683  -0.471  33.167  1.00  0.00     0.107 A 
HETATM   11  C9  UNK     1      19.247  -2.818  37.625  1.00  0.00     0.094 A 
ENDROOT
BRANCH   7  12
HETATM   12  C10 UNK     1      20.481  -4.834  36.931  1.00  0.00    -0.002 A 
HETATM   13  C11 UNK     1      21.415  -4.935  37.966  1.00  0.00     0.014 A 
HETATM   14  C13 UNK     1      22.040  -6.154  38.230  1.00  0.00     0.001 A 
HETATM   15  C16 UNK     1      21.731  -7.276  37.461  1.00  0.00     0.000 A 
HETATM   16  C14 UNK     1      20.798  -7.180  36.428  1.00  0.00     0.001 A 
HETATM   17  C12 UNK     1      20.174  -5.961  36.164  1.00  0.00     0.014 A 
ENDBRANCH   7  12
BRANCH   5  18
HETATM   18  O2  UNK     1      17.407   0.889  36.305  1.00  0.00    -0.352 OA
HETATM   19  C15 UNK     1      15.988   0.792  36.408  1.00  0.00     0.210 C 
ENDBRANCH   5  18
BRANCH  10  20
HETATM   20  O4  UNK     1      18.722  -0.147  31.844  1.00  0.00    -0.353 OA
HETATM   21  C18 UNK     1      19.886  -0.537  31.116  1.00  0.00     0.210 C 
ENDBRANCH  10  20
BRANCH   6  22
HETATM   22  O3  UNK     1      17.487   1.536  33.655  1.00  0.00    -0.351 OA
HETATM   23  C17 UNK     1      18.258   2.727  33.789  1.00  0.00     0.210 C 
ENDBRANCH   6  22
TORSDOF 4
ENDMDL
MODEL 6
REMARK VINA RESULT:      -7.3      3.605      9.119
REMARK  4 active torsions:
REMARK  status: ('A' for Active; 'I' for Inactive)
REMARK    1  A    between atoms: C3_8  and  O2_2 
REMARK    2  A    between atoms: C4_9  and  O3_3 
REMARK    3  A    between atoms: C8_13  and  O4_4 
REMARK    4  A    between atoms: C10_15  and  C5_10 
ROOT
HETATM    1  O1  UNK     1      19.389  -3.463  37.672  1.00  0.00    -0.309 OA
HETATM    2  O5  UNK     1      20.617  -2.988  33.817  1.00  0.00    -0.287 OA
HETATM    3  C1  UNK     1      19.380  -2.133  35.639  1.00  0.00     0.084 A 
HETATM    4  C2  UNK     1      18.998  -2.357  36.961  1.00  0.00     0.096 A 
HETATM    5  C3  UNK     1      18.951  -0.989  34.964  1.00  0.00     0.121 A 
HETATM    6  C4  UNK     1      18.136  -0.067  35.621  1.00  0.00     0.136 A 
HETATM    7  C5  UNK     1      20.193  -4.402  37.044  1.00  0.00     0.090 A 
HETATM    8  C6  UNK     1      18.182  -1.435  37.616  1.00  0.00     0.078 A 
HETATM    9  C7  UNK     1      20.241  -3.122  34.973  1.00  0.00     0.190 A 
HETATM   10  C8  UNK     1      17.751  -0.290  36.945  1.00  0.00     0.107 A 
HETATM   11  C9  UNK     1      20.633  -4.295  35.780  1.00  0.00     0.094 A 
ENDROOT
BRANCH   7  12
HETATM   12  C10 UNK     1      20.560  -5.547  37.900  1.00  0.00    -0.002 A 
HETATM   13  C11 UNK     1      19.596  -6.493  38.260  1.00  0.00     0.014 A 
HETATM   14  C13 UNK     1      19.942  -7.575  39.068  1.00  0.00     0.001 A 
HETATM   15  C16 UNK     1      21.255  -7.716  39.519  1.00  0.00     0.000 A 
HETATM   16  C14 UNK     1      22.220  -6.775  39.162  1.00  0.00     0.001 A 
HETATM   17  C12 UNK     1      21.873  -5.692  38.354  1.00  0.00     0.014 A 
ENDBRANCH   7  12
BRANCH   5  18
HETATM   18  O2  UNK     1      19.305  -0.737  33.672  1.00  0.00    -0.352 OA
HETATM   19  C15 UNK     1      18.377  -1.122  32.660  1.00  0.00     0.210 C 
ENDBRANCH   5  18
BRANCH  10  20
HETATM   20  O4  UNK     1      16.955   0.605  37.593  1.00  0.00    -0.353 OA
HETATM   21  C18 UNK     1      17.592   1.487  38.517  1.00  0.00     0.210 C 
ENDBRANCH  10  20
BRANCH   6  22
HETATM   22  O3  UNK     1      17.710   1.055  34.973  1.00  0.00    -0.351 OA
HETATM   23  C17 UNK     1      18.553   2.202  35.044  1.00  0.00     0.210 C 
ENDBRANCH   6  22
TORSDOF 4
ENDMDL
MODEL 7
REMARK VINA RESULT:      -7.2     24.852     26.928
REMARK  4 active torsions:
REMARK  status: ('A' for Active; 'I' for Inactive)
REMARK    1  A    between atoms: C3_8  and  O2_2 
REMARK    2  A    between atoms: C4_9  and  O3_3 
REMARK    3  A    between atoms: C8_13  and  O4_4 
REMARK    4  A    between atoms: C10_15  and  C5_10 
ROOT
HETATM    1  O1  UNK     1       8.003   4.591   8.862  1.00  0.00    -0.309 OA
HETATM    2  O5  UNK     1       6.546   7.491  11.325  1.00  0.00    -0.287 OA
HETATM    3  C1  UNK     1       6.441   5.243  10.605  1.00  0.00     0.084 A 
HETATM    4  C2  UNK     1       6.987   4.299   9.736  1.00  0.00     0.096 A 
HETATM    5  C3  UNK     1       5.407   4.889  11.473  1.00  0.00     0.121 A 
HETATM    6  C4  UNK     1       4.921   3.581  11.468  1.00  0.00     0.136 A 
HETATM    7  C5  UNK     1       8.502   5.885   8.838  1.00  0.00     0.090 A 
HETATM    8  C6  UNK     1       6.499   2.993   9.731  1.00  0.00     0.078 A 
HETATM    9  C7  UNK     1       6.975   6.613  10.588  1.00  0.00     0.190 A 
HETATM   10  C8  UNK     1       5.466   2.634  10.598  1.00  0.00     0.107 A 
HETATM   11  C9  UNK     1       8.066   6.878   9.629  1.00  0.00     0.094 A 
ENDROOT
BRANCH   7  12
HETATM   12  C10 UNK     1       9.596   6.088   7.867  1.00  0.00    -0.002 A 
HETATM   13  C11 UNK     1       9.310   6.237   6.507  1.00  0.00     0.014 A 
HETATM   14  C13 UNK     1      10.342   6.430   5.590  1.00  0.00     0.001 A 
HETATM   15  C16 UNK     1      11.665   6.475   6.030  1.00  0.00     0.000 A 
HETATM   16  C14 UNK     1      11.956   6.327   7.386  1.00  0.00     0.001 A 
HETATM   17  C12 UNK     1      10.922   6.134   8.303  1.00  0.00     0.014 A 
ENDBRANCH   7  12
BRANCH   5  18
HETATM   18  O2  UNK     1       4.849   5.785  12.336  1.00  0.00    -0.352 OA
HETATM   19  C15 UNK     1       5.385   5.830  13.657  1.00  0.00     0.210 C 
ENDBRANCH   5  18
BRANCH  10  20
HETATM   20  O4  UNK     1       4.997   1.355  10.587  1.00  0.00    -0.353 OA
HETATM   21  C18 UNK     1       4.822   0.741   9.310  1.00  0.00     0.210 C 
ENDBRANCH  10  20
BRANCH   6  22
HETATM   22  O3  UNK     1       3.912   3.222  12.312  1.00  0.00    -0.351 OA
HETATM   23  C17 UNK     1       4.281   2.555  13.516  1.00  0.00     0.210 C 
ENDBRANCH   6  22
TORSDOF 4
ENDMDL
MODEL 8
REMARK VINA RESULT:      -7.1      5.988      9.699
REMARK  4 active torsions:
REMARK  status: ('A' for Active; 'I' for Inactive)
REMARK    1  A    between atoms: C3_8  and  O2_2 
REMARK    2  A    between atoms: C4_9  and  O3_3 
REMARK    3  A    between atoms: C8_13  and  O4_4 
REMARK    4  A    between atoms: C10_15  and  C5_10 
ROOT
HETATM    1  O1  UNK     1      18.108   9.456  33.276  1.00  0.00    -0.309 OA
HETATM    2  O5  UNK     1      14.257   8.638  34.324  1.00  0.00    -0.287 OA
HETATM    3  C1  UNK     1      16.043  10.185  34.329  1.00  0.00     0.084 A 
HETATM    4  C2  UNK     1      17.365  10.399  33.941  1.00  0.00     0.096 A 
HETATM    5  C3  UNK     1      15.335  11.181  35.003  1.00  0.00     0.121 A 
HETATM    6  C4  UNK     1      15.958  12.397  35.287  1.00  0.00     0.136 A 
HETATM    7  C5  UNK     1      17.519   8.235  32.987  1.00  0.00     0.090 A 
HETATM    8  C6  UNK     1      17.986  11.615  34.225  1.00  0.00     0.078 A 
HETATM    9  C7  UNK     1      15.413   8.893  34.016  1.00  0.00     0.190 A 
HETATM   10  C8  UNK     1      17.282  12.613  34.899  1.00  0.00     0.107 A 
HETATM   11  C9  UNK     1      16.255   7.912  33.303  1.00  0.00     0.094 A 
ENDROOT
BRANCH   7  12
HETATM   12  C10 UNK     1      18.404   7.298  32.267  1.00  0.00    -0.002 A 
HETATM   13  C11 UNK     1      18.033   6.804  31.013  1.00  0.00     0.014 A 
HETATM   14  C13 UNK     1      18.869   5.920  30.332  1.00  0.00     0.001 A 
HETATM   15  C16 UNK     1      20.079   5.526  30.902  1.00  0.00     0.000 A 
HETATM   16  C14 UNK     1      20.454   6.017  32.153  1.00  0.00     0.001 A 
HETATM   17  C12 UNK     1      19.617   6.901  32.834  1.00  0.00     0.014 A 
ENDBRANCH   7  12
BRANCH   5  18
HETATM   18  O2  UNK     1      14.042  11.007  35.399  1.00  0.00    -0.352 OA
HETATM   19  C15 UNK     1      13.040  11.703  34.660  1.00  0.00     0.210 C 
ENDBRANCH   5  18
BRANCH  10  20
HETATM   20  O4  UNK     1      17.897  13.798  35.172  1.00  0.00    -0.353 OA
HETATM   21  C18 UNK     1      18.458  14.505  34.067  1.00  0.00     0.210 C 
ENDBRANCH  10  20
BRANCH   6  22
HETATM   22  O3  UNK     1      15.277  13.379  35.944  1.00  0.00    -0.351 OA
HETATM   23  C17 UNK     1      15.394  13.408  37.364  1.00  0.00     0.210 C 
ENDBRANCH   6  22
TORSDOF 4
ENDMDL
MODEL 9
REMARK VINA RESULT:      -7.1      5.998      9.752
REMARK  4 active torsions:
REMARK  status: ('A' for Active; 'I' for Inactive)
REMARK    1  A    between atoms: C3_8  and  O2_2 
REMARK    2  A    between atoms: C4_9  and  O3_3 
REMARK    3  A    between atoms: C8_13  and  O4_4 
REMARK    4  A    between atoms: C10_15  and  C5_10 
ROOT
HETATM    1  O1  UNK     1      18.107   9.465  33.268  1.00  0.00    -0.309 OA
HETATM    2  O5  UNK     1      14.258   8.634  34.311  1.00  0.00    -0.287 OA
HETATM    3  C1  UNK     1      16.039  10.186  34.320  1.00  0.00     0.084 A 
HETATM    4  C2  UNK     1      17.361  10.405  33.933  1.00  0.00     0.096 A 
HETATM    5  C3  UNK     1      15.327  11.180  34.994  1.00  0.00     0.121 A 
HETATM    6  C4  UNK     1      15.946  12.397  35.279  1.00  0.00     0.136 A 
HETATM    7  C5  UNK     1      17.523   8.241  32.978  1.00  0.00     0.090 A 
HETATM    8  C6  UNK     1      17.978  11.622  34.219  1.00  0.00     0.078 A 
HETATM    9  C7  UNK     1      15.413   8.893  34.004  1.00  0.00     0.190 A 
HETATM   10  C8  UNK     1      17.270  12.618  34.892  1.00  0.00     0.107 A 
HETATM   11  C9  UNK     1      16.259   7.915  33.291  1.00  0.00     0.094 A 
ENDROOT
BRANCH   7  12
HETATM   12  C10 UNK     1      18.411   7.308  32.257  1.00  0.00    -0.002 A 
HETATM   13  C11 UNK     1      19.626   6.914  32.825  1.00  0.00     0.014 A 
HETATM   14  C13 UNK     1      20.464   6.031  32.145  1.00  0.00     0.001 A 
HETATM   15  C16 UNK     1      20.091   5.540  30.894  1.00  0.00     0.000 A 
HETATM   16  C14 UNK     1      18.879   5.930  30.324  1.00  0.00     0.001 A 
HETATM   17  C12 UNK     1      18.041   6.813  31.005  1.00  0.00     0.014 A 
ENDBRANCH   7  12
BRANCH   5  18
HETATM   18  O2  UNK     1      14.034  11.001  35.388  1.00  0.00    -0.352 OA
HETATM   19  C15 UNK     1      13.031  11.695  34.648  1.00  0.00     0.210 C 
ENDBRANCH   5  18
BRANCH  10  20
HETATM   20  O4  UNK     1      17.882  13.804  35.167  1.00  0.00    -0.353 OA
HETATM   21  C18 UNK     1      18.376  14.550  34.055  1.00  0.00     0.210 C 
ENDBRANCH  10  20
BRANCH   6  22
HETATM   22  O3  UNK     1      15.262  13.376  35.936  1.00  0.00    -0.351 OA
HETATM   23  C17 UNK     1      15.368  13.398  37.358  1.00  0.00     0.210 C 
ENDBRANCH   6  22
TORSDOF 4
ENDMDL
MODEL 10
REMARK VINA RESULT:      -7.1     24.144     26.713
REMARK  4 active torsions:
REMARK  status: ('A' for Active; 'I' for Inactive)
REMARK    1  A    between atoms: C3_8  and  O2_2 
REMARK    2  A    between atoms: C4_9  and  O3_3 
REMARK    3  A    between atoms: C8_13  and  O4_4 
REMARK    4  A    between atoms: C10_15  and  C5_10 
ROOT
HETATM    1  O1  UNK     1      12.944   8.374   7.997  1.00  0.00    -0.309 OA
HETATM    2  O5  UNK     1      14.869   6.174  10.835  1.00  0.00    -0.287 OA
HETATM    3  C1  UNK     1      14.872   8.086   9.446  1.00  0.00     0.084 A 
HETATM    4  C2  UNK     1      14.160   8.790   8.477  1.00  0.00     0.096 A 
HETATM    5  C3  UNK     1      16.106   8.558   9.898  1.00  0.00     0.121 A 
HETATM    6  C4  UNK     1      16.624   9.742   9.373  1.00  0.00     0.136 A 
HETATM    7  C5  UNK     1      12.406   7.196   8.493  1.00  0.00     0.090 A 
HETATM    8  C6  UNK     1      14.679   9.973   7.953  1.00  0.00     0.078 A 
HETATM    9  C7  UNK     1      14.300   6.841   9.981  1.00  0.00     0.190 A 
HETATM   10  C8  UNK     1      15.912  10.449   8.401  1.00  0.00     0.107 A 
HETATM   11  C9  UNK     1      12.992   6.435   9.431  1.00  0.00     0.094 A 
ENDROOT
BRANCH   7  12
HETATM   12  C10 UNK     1      11.095   6.844   7.914  1.00  0.00    -0.002 A 
HETATM   13  C11 UNK     1       9.948   6.855   8.713  1.00  0.00     0.014 A 
HETATM   14  C13 UNK     1       8.709   6.523   8.166  1.00  0.00     0.001 A 
HETATM   15  C16 UNK     1       8.612   6.180   6.817  1.00  0.00     0.000 A 
HETATM   16  C14 UNK     1       9.754   6.168   6.016  1.00  0.00     0.001 A 
HETATM   17  C12 UNK     1      10.993   6.500   6.564  1.00  0.00     0.014 A 
ENDBRANCH   7  12
BRANCH   5  18
HETATM   18  O2  UNK     1      16.831   7.896  10.844  1.00  0.00    -0.352 OA
HETATM   19  C15 UNK     1      17.906   7.080  10.382  1.00  0.00     0.210 C 
ENDBRANCH   5  18
BRANCH  10  20
HETATM   20  O4  UNK     1      16.411  11.606   7.884  1.00  0.00    -0.353 OA
HETATM   21  C18 UNK     1      15.473  12.638   7.584  1.00  0.00     0.210 C 
ENDBRANCH  10  20
BRANCH   6  22
HETATM   22  O3  UNK     1      17.828  10.214   9.806  1.00  0.00    -0.351 OA
HETATM   23  C17 UNK     1      17.814  11.415  10.573  1.00  0.00     0.210 C 
ENDBRANCH   6  22
TORSDOF 4
ENDMDL
