MODEL 1
REMARK VINA RESULT:      -8.8      0.000      0.000
REMARK  2 active torsions:
REMARK  status: ('A' for Active; 'I' for Inactive)
REMARK    1  A    between atoms: C9_12  and  O2_2 
REMARK    2  A    between atoms: C1_4  and  C4_7 
ROOT
HETATM    1  O1  UNK     1      13.284   7.474   8.518  1.00  0.00    -0.309 OA
HETATM    2  O3  UNK     1      15.361   4.184   9.724  1.00  0.00    -0.287 OA
HETATM    3  C1  UNK     1      12.763   6.196   8.386  1.00  0.00     0.093 A 
HETATM    4  C2  UNK     1      15.290   6.536   9.518  1.00  0.00     0.048 A 
HETATM    5  C3  UNK     1      14.527   7.618   9.082  1.00  0.00     0.090 A 
HETATM    6  C5  UNK     1      13.403   5.076   8.761  1.00  0.00     0.094 A 
HETATM    7  C6  UNK     1      14.745   5.178   9.369  1.00  0.00     0.187 A 
HETATM    8  C7  UNK     1      16.550   6.743  10.083  1.00  0.00     0.018 A 
HETATM    9  C8  UNK     1      15.021   8.916   9.209  1.00  0.00     0.038 A 
HETATM   10  C11 UNK     1      17.042   8.042  10.210  1.00  0.00     0.001 A 
HETATM   11  C12 UNK     1      16.279   9.126   9.774  1.00  0.00     0.003 A 
ENDROOT
BRANCH   3  12
HETATM   12  C4  UNK     1      11.424   6.155   7.764  1.00  0.00     0.031 A 
HETATM   13  C10 UNK     1      10.294   6.092   8.585  1.00  0.00     0.017 A 
HETATM   14  C14 UNK     1       9.018   6.052   8.020  1.00  0.00     0.001 A 
HETATM   15  C15 UNK     1       8.868   6.075   6.633  1.00  0.00     0.003 A 
HETATM   16  C13 UNK     1       9.993   6.138   5.811  1.00  0.00     0.037 A 
HETATM   17  C9  UNK     1      11.268   6.178   6.375  1.00  0.00     0.078 A 
BRANCH  17  18
HETATM   18  O2  UNK     1      12.350   6.240   5.547  1.00  0.00    -0.360 OA
HETATM   19  H10 UNK     1      13.122   6.547   6.053  1.00  0.00     0.217 HD
ENDBRANCH  17  18
ENDBRANCH   3  12
TORSDOF 2
ENDMDL
MODEL 2
REMARK VINA RESULT:      -8.8     23.848     26.175
REMARK  2 active torsions:
REMARK  status: ('A' for Active; 'I' for Inactive)
REMARK    1  A    between atoms: C9_12  and  O2_2 
REMARK    2  A    between atoms: C1_4  and  C4_7 
ROOT
HETATM    1  O1  UNK     1      19.002  -0.259  32.793  1.00  0.00    -0.309 OA
HETATM    2  O3  UNK     1      18.743   2.896  30.229  1.00  0.00    -0.287 OA
HETATM    3  C1  UNK     1      18.461   0.956  33.185  1.00  0.00     0.093 A 
HETATM    4  C2  UNK     1      19.385   0.649  30.572  1.00  0.00     0.048 A 
HETATM    5  C3  UNK     1      19.447  -0.389  31.501  1.00  0.00     0.090 A 
HETATM    6  C5  UNK     1      18.354   2.030  32.387  1.00  0.00     0.094 A 
HETATM    7  C6  UNK     1      18.822   1.942  30.989  1.00  0.00     0.187 A 
HETATM    8  C7  UNK     1      19.855   0.460  29.270  1.00  0.00     0.018 A 
HETATM    9  C8  UNK     1      19.979  -1.624  31.132  1.00  0.00     0.038 A 
HETATM   10  C11 UNK     1      20.386  -0.777  28.904  1.00  0.00     0.001 A 
HETATM   11  C12 UNK     1      20.447  -1.817  29.832  1.00  0.00     0.003 A 
ENDROOT
BRANCH   3  12
HETATM   12  C4  UNK     1      18.019   0.988  34.594  1.00  0.00     0.031 A 
HETATM   13  C10 UNK     1      18.635   1.874  35.483  1.00  0.00     0.017 A 
HETATM   14  C14 UNK     1      18.234   1.922  36.819  1.00  0.00     0.001 A 
HETATM   15  C15 UNK     1      17.216   1.083  37.272  1.00  0.00     0.003 A 
HETATM   16  C13 UNK     1      16.598   0.198  36.389  1.00  0.00     0.037 A 
HETATM   17  C9  UNK     1      16.998   0.149  35.054  1.00  0.00     0.078 A 
BRANCH  17  18
HETATM   18  O2  UNK     1      16.376  -0.726  34.213  1.00  0.00    -0.360 OA
HETATM   19  H10 UNK     1      15.496  -0.938  34.567  1.00  0.00     0.217 HD
ENDBRANCH  17  18
ENDBRANCH   3  12
TORSDOF 2
ENDMDL
MODEL 3
REMARK VINA RESULT:      -8.4     24.389     26.598
REMARK  2 active torsions:
REMARK  status: ('A' for Active; 'I' for Inactive)
REMARK    1  A    between atoms: C9_12  and  O2_2 
REMARK    2  A    between atoms: C1_4  and  C4_7 
ROOT
HETATM    1  O1  UNK     1      18.648   0.272  32.506  1.00  0.00    -0.309 OA
HETATM    2  O3  UNK     1      20.961  -3.078  32.641  1.00  0.00    -0.287 OA
HETATM    3  C1  UNK     1      18.776  -0.477  33.665  1.00  0.00     0.093 A 
HETATM    4  C2  UNK     1      20.143  -1.266  31.365  1.00  0.00     0.048 A 
HETATM    5  C3  UNK     1      19.332  -0.132  31.387  1.00  0.00     0.090 A 
HETATM    6  C5  UNK     1      19.519  -1.591  33.768  1.00  0.00     0.094 A 
HETATM    7  C6  UNK     1      20.272  -2.070  32.591  1.00  0.00     0.187 A 
HETATM    8  C7  UNK     1      20.815  -1.631  30.197  1.00  0.00     0.018 A 
HETATM    9  C8  UNK     1      19.190   0.646  30.238  1.00  0.00     0.038 A 
HETATM   10  C11 UNK     1      20.672  -0.851  29.049  1.00  0.00     0.001 A 
HETATM   11  C12 UNK     1      19.861   0.285  29.070  1.00  0.00     0.003 A 
ENDROOT
BRANCH   3  12
HETATM   12  C4  UNK     1      17.995   0.043  34.806  1.00  0.00     0.031 A 
HETATM   13  C10 UNK     1      18.587   0.966  35.673  1.00  0.00     0.017 A 
HETATM   14  C14 UNK     1      17.869   1.472  36.758  1.00  0.00     0.001 A 
HETATM   15  C15 UNK     1      16.556   1.056  36.979  1.00  0.00     0.003 A 
HETATM   16  C13 UNK     1      15.961   0.136  36.116  1.00  0.00     0.037 A 
HETATM   17  C9  UNK     1      16.678  -0.370  35.032  1.00  0.00     0.078 A 
BRANCH  17  18
HETATM   18  O2  UNK     1      16.072  -1.268  34.205  1.00  0.00    -0.360 OA
HETATM   19  H10 UNK     1      16.346  -2.167  34.453  1.00  0.00     0.217 HD
ENDBRANCH  17  18
ENDBRANCH   3  12
TORSDOF 2
ENDMDL
MODEL 4
REMARK VINA RESULT:      -8.3     24.215     26.532
REMARK  2 active torsions:
REMARK  status: ('A' for Active; 'I' for Inactive)
REMARK    1  A    between atoms: C9_12  and  O2_2 
REMARK    2  A    between atoms: C1_4  and  C4_7 
ROOT
HETATM    1  O1  UNK     1      19.015  -0.799  32.850  1.00  0.00    -0.309 OA
HETATM    2  O3  UNK     1      18.868   2.660  30.703  1.00  0.00    -0.287 OA
HETATM    3  C1  UNK     1      18.458   0.359  33.372  1.00  0.00     0.093 A 
HETATM    4  C2  UNK     1      19.495   0.383  30.783  1.00  0.00     0.048 A 
HETATM    5  C3  UNK     1      19.516  -0.765  31.573  1.00  0.00     0.090 A 
HETATM    6  C5  UNK     1      18.386   1.527  32.714  1.00  0.00     0.094 A 
HETATM    7  C6  UNK     1      18.914   1.616  31.337  1.00  0.00     0.187 A 
HETATM    8  C7  UNK     1      20.020   0.359  29.489  1.00  0.00     0.018 A 
HETATM    9  C8  UNK     1      20.063  -1.947  31.073  1.00  0.00     0.038 A 
HETATM   10  C11 UNK     1      20.566  -0.824  28.990  1.00  0.00     0.001 A 
HETATM   11  C12 UNK     1      20.587  -1.974  29.780  1.00  0.00     0.003 A 
ENDROOT
BRANCH   3  12
HETATM   12  C4  UNK     1      17.955   0.213  34.753  1.00  0.00     0.031 A 
HETATM   13  C10 UNK     1      16.677   0.685  35.066  1.00  0.00     0.017 A 
HETATM   14  C14 UNK     1      16.180   0.558  36.364  1.00  0.00     0.001 A 
HETATM   15  C15 UNK     1      16.960  -0.040  37.354  1.00  0.00     0.003 A 
HETATM   16  C13 UNK     1      18.236  -0.513  37.046  1.00  0.00     0.037 A 
HETATM   17  C9  UNK     1      18.733  -0.386  35.749  1.00  0.00     0.078 A 
BRANCH  17  18
HETATM   18  O2  UNK     1      19.983  -0.857  35.476  1.00  0.00    -0.360 OA
HETATM   19  H10 UNK     1      20.260  -0.539  34.600  1.00  0.00     0.217 HD
ENDBRANCH  17  18
ENDBRANCH   3  12
TORSDOF 2
ENDMDL
MODEL 5
REMARK VINA RESULT:      -8.2     24.730     26.904
REMARK  2 active torsions:
REMARK  status: ('A' for Active; 'I' for Inactive)
REMARK    1  A    between atoms: C9_12  and  O2_2 
REMARK    2  A    between atoms: C1_4  and  C4_7 
ROOT
HETATM    1  O1  UNK     1      18.380  -0.440  33.398  1.00  0.00    -0.309 OA
HETATM    2  O3  UNK     1      20.505  -3.035  35.711  1.00  0.00    -0.287 OA
HETATM    3  C1  UNK     1      19.399  -1.220  32.871  1.00  0.00     0.093 A 
HETATM    4  C2  UNK     1      18.770  -1.436  35.580  1.00  0.00     0.048 A 
HETATM    5  C3  UNK     1      18.086  -0.566  34.732  1.00  0.00     0.090 A 
HETATM    6  C5  UNK     1      20.134  -2.087  33.584  1.00  0.00     0.094 A 
HETATM    7  C6  UNK     1      19.859  -2.256  35.026  1.00  0.00     0.187 A 
HETATM    8  C7  UNK     1      18.428  -1.521  36.931  1.00  0.00     0.018 A 
HETATM    9  C8  UNK     1      17.051   0.225  35.233  1.00  0.00     0.038 A 
HETATM   10  C11 UNK     1      17.393  -0.730  37.429  1.00  0.00     0.001 A 
HETATM   11  C12 UNK     1      16.706   0.141  36.582  1.00  0.00     0.003 A 
ENDROOT
BRANCH   3  12
HETATM   12  C4  UNK     1      19.635  -1.002  31.429  1.00  0.00     0.031 A 
HETATM   13  C10 UNK     1      20.158  -2.046  30.659  1.00  0.00     0.017 A 
HETATM   14  C14 UNK     1      20.390  -1.864  29.295  1.00  0.00     0.001 A 
HETATM   15  C15 UNK     1      20.100  -0.638  28.695  1.00  0.00     0.003 A 
HETATM   16  C13 UNK     1      19.577   0.405  29.460  1.00  0.00     0.037 A 
HETATM   17  C9  UNK     1      19.346   0.224  30.823  1.00  0.00     0.078 A 
BRANCH  17  18
HETATM   18  O2  UNK     1      18.834   1.261  31.546  1.00  0.00    -0.360 OA
HETATM   19  H10 UNK     1      17.865   1.184  31.573  1.00  0.00     0.217 HD
ENDBRANCH  17  18
ENDBRANCH   3  12
TORSDOF 2
ENDMDL
MODEL 6
REMARK VINA RESULT:      -8.0     23.796     25.995
REMARK  2 active torsions:
REMARK  status: ('A' for Active; 'I' for Inactive)
REMARK    1  A    between atoms: C9_12  and  O2_2 
REMARK    2  A    between atoms: C1_4  and  C4_7 
ROOT
HETATM    1  O1  UNK     1      18.001   3.602  33.452  1.00  0.00    -0.309 OA
HETATM    2  O3  UNK     1      19.103   1.644  30.053  1.00  0.00    -0.287 OA
HETATM    3  C1  UNK     1      18.090   2.219  33.404  1.00  0.00     0.093 A 
HETATM    4  C2  UNK     1      18.692   3.709  31.125  1.00  0.00     0.048 A 
HETATM    5  C3  UNK     1      18.305   4.315  32.320  1.00  0.00     0.090 A 
HETATM    6  C5  UNK     1      18.443   1.520  32.313  1.00  0.00     0.094 A 
HETATM    7  C6  UNK     1      18.777   2.242  31.068  1.00  0.00     0.187 A 
HETATM    8  C7  UNK     1      18.988   4.486  30.003  1.00  0.00     0.018 A 
HETATM    9  C8  UNK     1      18.214   5.704  32.399  1.00  0.00     0.038 A 
HETATM   10  C11 UNK     1      18.897   5.876  30.086  1.00  0.00     0.001 A 
HETATM   11  C12 UNK     1      18.511   6.483  31.281  1.00  0.00     0.003 A 
ENDROOT
BRANCH   3  12
HETATM   12  C4  UNK     1      17.737   1.551  34.674  1.00  0.00     0.031 A 
HETATM   13  C10 UNK     1      16.728   0.583  34.677  1.00  0.00     0.017 A 
HETATM   14  C14 UNK     1      16.377  -0.062  35.864  1.00  0.00     0.001 A 
HETATM   15  C15 UNK     1      17.033   0.261  37.053  1.00  0.00     0.003 A 
HETATM   16  C13 UNK     1      18.040   1.226  37.054  1.00  0.00     0.037 A 
HETATM   17  C9  UNK     1      18.391   1.870  35.868  1.00  0.00     0.078 A 
BRANCH  17  18
HETATM   18  O2  UNK     1      19.379   2.810  35.898  1.00  0.00    -0.360 OA
HETATM   19  H10 UNK     1      20.030   2.612  35.203  1.00  0.00     0.217 HD
ENDBRANCH  17  18
ENDBRANCH   3  12
TORSDOF 2
ENDMDL
MODEL 7
REMARK VINA RESULT:      -8.0      1.211      2.386
REMARK  2 active torsions:
REMARK  status: ('A' for Active; 'I' for Inactive)
REMARK    1  A    between atoms: C9_12  and  O2_2 
REMARK    2  A    between atoms: C1_4  and  C4_7 
ROOT
HETATM    1  O1  UNK     1      13.286   6.456   8.439  1.00  0.00    -0.309 OA
HETATM    2  O3  UNK     1      14.055  10.277   9.624  1.00  0.00    -0.287 OA
HETATM    3  C1  UNK     1      12.357   7.472   8.271  1.00  0.00     0.093 A 
HETATM    4  C2  UNK     1      14.824   8.051   9.435  1.00  0.00     0.048 A 
HETATM    5  C3  UNK     1      14.495   6.765   9.010  1.00  0.00     0.090 A 
HETATM    6  C5  UNK     1      12.553   8.746   8.645  1.00  0.00     0.094 A 
HETATM    7  C6  UNK     1      13.836   9.128   9.269  1.00  0.00     0.187 A 
HETATM    8  C7  UNK     1      16.070   8.307  10.012  1.00  0.00     0.018 A 
HETATM    9  C8  UNK     1      15.412   5.725   9.159  1.00  0.00     0.038 A 
HETATM   10  C11 UNK     1      16.986   7.265  10.159  1.00  0.00     0.001 A 
HETATM   11  C12 UNK     1      16.658   5.978   9.734  1.00  0.00     0.003 A 
ENDROOT
BRANCH   3  12
HETATM   12  C4  UNK     1      11.091   7.030   7.651  1.00  0.00     0.031 A 
HETATM   13  C10 UNK     1       9.897   7.172   8.365  1.00  0.00     0.017 A 
HETATM   14  C14 UNK     1       8.688   6.761   7.800  1.00  0.00     0.001 A 
HETATM   15  C15 UNK     1       8.669   6.206   6.520  1.00  0.00     0.003 A 
HETATM   16  C13 UNK     1       9.858   6.063   5.805  1.00  0.00     0.037 A 
HETATM   17  C9  UNK     1      11.066   6.473   6.369  1.00  0.00     0.078 A 
BRANCH  17  18
HETATM   18  O2  UNK     1      12.213   6.321   5.647  1.00  0.00    -0.360 OA
HETATM   19  H10 UNK     1      12.008   6.405   4.700  1.00  0.00     0.217 HD
ENDBRANCH  17  18
ENDBRANCH   3  12
TORSDOF 2
ENDMDL
MODEL 8
REMARK VINA RESULT:      -7.9     11.284     12.897
REMARK  2 active torsions:
REMARK  status: ('A' for Active; 'I' for Inactive)
REMARK    1  A    between atoms: C9_12  and  O2_2 
REMARK    2  A    between atoms: C1_4  and  C4_7 
ROOT
HETATM    1  O1  UNK     1      18.895  -0.901  17.398  1.00  0.00    -0.309 OA
HETATM    2  O3  UNK     1      19.429   2.668  15.506  1.00  0.00    -0.287 OA
HETATM    3  C1  UNK     1      19.032  -0.820  16.020  1.00  0.00     0.093 A 
HETATM    4  C2  UNK     1      19.137   1.512  17.546  1.00  0.00     0.048 A 
HETATM    5  C3  UNK     1      18.953   0.259  18.128  1.00  0.00     0.090 A 
HETATM    6  C5  UNK     1      19.206   0.326  15.342  1.00  0.00     0.094 A 
HETATM    7  C6  UNK     1      19.271   1.602  16.084  1.00  0.00     0.187 A 
HETATM    8  C7  UNK     1      19.187   2.660  18.340  1.00  0.00     0.018 A 
HETATM    9  C8  UNK     1      18.820   0.146  19.512  1.00  0.00     0.038 A 
HETATM   10  C11 UNK     1      19.054   2.544  19.724  1.00  0.00     0.001 A 
HETATM   11  C12 UNK     1      18.871   1.291  20.309  1.00  0.00     0.003 A 
ENDROOT
BRANCH   3  12
HETATM   12  C4  UNK     1      18.949  -2.125  15.332  1.00  0.00     0.031 A 
HETATM   13  C10 UNK     1      19.928  -2.463  14.392  1.00  0.00     0.017 A 
HETATM   14  C14 UNK     1      19.870  -3.690  13.729  1.00  0.00     0.001 A 
HETATM   15  C15 UNK     1      18.833  -4.583  14.003  1.00  0.00     0.003 A 
HETATM   16  C13 UNK     1      17.855  -4.249  14.939  1.00  0.00     0.037 A 
HETATM   17  C9  UNK     1      17.912  -3.023  15.602  1.00  0.00     0.078 A 
BRANCH  17  18
HETATM   18  O2  UNK     1      16.942  -2.723  16.513  1.00  0.00    -0.360 OA
HETATM   19  H10 UNK     1      17.360  -2.390  17.325  1.00  0.00     0.217 HD
ENDBRANCH  17  18
ENDBRANCH   3  12
TORSDOF 2
ENDMDL
MODEL 9
REMARK VINA RESULT:      -7.7     23.254     25.071
REMARK  2 active torsions:
REMARK  status: ('A' for Active; 'I' for Inactive)
REMARK    1  A    between atoms: C9_12  and  O2_2 
REMARK    2  A    between atoms: C1_4  and  C4_7 
ROOT
HETATM    1  O1  UNK     1      17.354   8.669  32.869  1.00  0.00    -0.309 OA
HETATM    2  O3  UNK     1      13.802   6.885  31.977  1.00  0.00    -0.287 OA
HETATM    3  C1  UNK     1      17.297   7.447  32.217  1.00  0.00     0.093 A 
HETATM    4  C2  UNK     1      14.926   8.732  32.928  1.00  0.00     0.048 A 
HETATM    5  C3  UNK     1      16.175   9.285  33.206  1.00  0.00     0.090 A 
HETATM    6  C5  UNK     1      16.158   6.810  31.901  1.00  0.00     0.094 A 
HETATM    7  C6  UNK     1      14.863   7.430  32.246  1.00  0.00     0.187 A 
HETATM    8  C7  UNK     1      13.759   9.404  33.297  1.00  0.00     0.018 A 
HETATM    9  C8  UNK     1      16.264  10.517  33.855  1.00  0.00     0.038 A 
HETATM   10  C11 UNK     1      13.850  10.636  33.944  1.00  0.00     0.001 A 
HETATM   11  C12 UNK     1      15.100  11.191  34.223  1.00  0.00     0.003 A 
ENDROOT
BRANCH   3  12
HETATM   12  C4  UNK     1      18.621   6.871  31.905  1.00  0.00     0.031 A 
HETATM   13  C10 UNK     1      18.860   6.364  30.624  1.00  0.00     0.017 A 
HETATM   14  C14 UNK     1      20.103   5.815  30.306  1.00  0.00     0.001 A 
HETATM   15  C15 UNK     1      21.112   5.770  31.269  1.00  0.00     0.003 A 
HETATM   16  C13 UNK     1      20.878   6.274  32.548  1.00  0.00     0.037 A 
HETATM   17  C9  UNK     1      19.636   6.823  32.866  1.00  0.00     0.078 A 
BRANCH  17  18
HETATM   18  O2  UNK     1      19.435   7.309  34.124  1.00  0.00    -0.360 OA
HETATM   19  H10 UNK     1      18.773   6.759  34.577  1.00  0.00     0.217 HD
ENDBRANCH  17  18
ENDBRANCH   3  12
TORSDOF 2
ENDMDL
MODEL 10
REMARK VINA RESULT:      -7.7     11.423     12.790
REMARK  2 active torsions:
REMARK  status: ('A' for Active; 'I' for Inactive)
REMARK    1  A    between atoms: C9_12  and  O2_2 
REMARK    2  A    between atoms: C1_4  and  C4_7 
ROOT
HETATM    1  O1  UNK     1      19.456  -0.477  15.012  1.00  0.00    -0.309 OA
HETATM    2  O3  UNK     1      17.566  -4.006  15.770  1.00  0.00    -0.287 OA
HETATM    3  C1  UNK     1      18.846  -0.729  16.232  1.00  0.00     0.093 A 
HETATM    4  C2  UNK     1      18.797  -2.686  14.245  1.00  0.00     0.048 A 
HETATM    5  C3  UNK     1      19.423  -1.456  14.051  1.00  0.00     0.090 A 
HETATM    6  C5  UNK     1      18.205  -1.870  16.536  1.00  0.00     0.094 A 
HETATM    7  C6  UNK     1      18.139  -2.952  15.533  1.00  0.00     0.187 A 
HETATM    8  C7  UNK     1      18.793  -3.645  13.229  1.00  0.00     0.018 A 
HETATM    9  C8  UNK     1      20.052  -1.177  12.837  1.00  0.00     0.038 A 
HETATM   10  C11 UNK     1      19.424  -3.364  12.017  1.00  0.00     0.001 A 
HETATM   11  C12 UNK     1      20.051  -2.133  11.821  1.00  0.00     0.003 A 
ENDROOT
BRANCH   3  12
HETATM   12  C4  UNK     1      18.936   0.391  17.190  1.00  0.00     0.031 A 
HETATM   13  C10 UNK     1      18.846   0.125  18.560  1.00  0.00     0.017 A 
HETATM   14  C14 UNK     1      18.929   1.166  19.485  1.00  0.00     0.001 A 
HETATM   15  C15 UNK     1      19.101   2.479  19.043  1.00  0.00     0.003 A 
HETATM   16  C13 UNK     1      19.192   2.749  17.678  1.00  0.00     0.037 A 
HETATM   17  C9  UNK     1      19.109   1.708  16.753  1.00  0.00     0.078 A 
BRANCH  17  18
HETATM   18  O2  UNK     1      19.201   2.000  15.425  1.00  0.00    -0.360 OA
HETATM   19  H10 UNK     1      19.904   2.659  15.291  1.00  0.00     0.217 HD
ENDBRANCH  17  18
ENDBRANCH   3  12
TORSDOF 2
ENDMDL
