MODEL 1
REMARK VINA RESULT:      -9.5      0.000      0.000
REMARK  6 active torsions:
REMARK  status: ('A' for Active; 'I' for Inactive)
REMARK    1  A    between atoms: C5_12  and  N1_5 
REMARK    2  A    between atoms: C6_13  and  N2_6 
REMARK    3  A    between atoms: C18_25  and  N3_7 
REMARK       I    between atoms: C9_16  and  N3_7 
REMARK    4  A    between atoms: C5_12  and  C7_14 
REMARK    5  A    between atoms: C6_13  and  C9_16 
REMARK    6  A    between atoms: C13_20  and  C17_24 
ROOT
HETATM    1  N1  UNK     1      19.282  -3.162  36.451  1.00  0.00     0.096 N 
HETATM    2  N2  UNK     1      18.430  -0.447  35.938  1.00  0.00     0.100 N 
HETATM    3  C1  UNK     1      18.815  -2.290  37.537  1.00  0.00     0.303 C 
HETATM    4  C2  UNK     1      19.885  -2.363  35.376  1.00  0.00     0.303 C 
HETATM    5  C3  UNK     1      17.826  -1.245  37.012  1.00  0.00     0.303 C 
HETATM    6  C4  UNK     1      18.895  -1.318  34.852  1.00  0.00     0.303 C 
ENDROOT
BRANCH   1   7
HETATM    7  C5  UNK     1      20.228  -4.155  36.953  1.00  0.00     0.312 C 
BRANCH   7   8
HETATM    8  C7  UNK     1      19.722  -5.546  36.789  1.00  0.00    -0.011 A 
HETATM    9  C10 UNK     1      18.592  -5.797  36.112  1.00  0.00     0.092 A 
HETATM   10  C14 UNK     1      18.053  -7.154  35.924  1.00  0.00     0.288 A 
HETATM   11  O1  UNK     1      18.775  -8.195  36.487  1.00  0.00    -0.275 OA
HETATM   12  O3  UNK     1      17.016  -7.345  35.296  1.00  0.00    -0.260 OA
HETATM   13  C11 UNK     1      19.966  -7.963  37.203  1.00  0.00     0.090 A 
HETATM   14  C8  UNK     1      20.465  -6.670  37.374  1.00  0.00     0.007 A 
HETATM   15  C15 UNK     1      20.609  -9.086  37.725  1.00  0.00     0.039 A 
HETATM   16  C12 UNK     1      21.654  -6.524  38.100  1.00  0.00     0.022 A 
HETATM   17  C13 UNK     1      22.312  -7.640  38.630  1.00  0.00    -0.058 A 
HETATM   18  C16 UNK     1      21.789  -8.919  38.443  1.00  0.00     0.010 A 
BRANCH  17  19
HETATM   19  C17 UNK     1      23.577  -7.461  39.400  1.00  0.00     0.034 C 
HETATM   20  C19 UNK     1      24.779  -8.078  38.690  1.00  0.00     0.010 C 
ENDBRANCH  17  19
ENDBRANCH   7   8
ENDBRANCH   1   7
BRANCH   2  21
HETATM   21  C6  UNK     1      17.485   0.550  35.437  1.00  0.00     0.375 C 
BRANCH  21  22
HETATM   22  C9  UNK     1      18.249   1.683  34.774  1.00  0.00     0.250 C 
HETATM   23  N3  UNK     1      17.691   1.978  33.531  1.00  0.00    -0.326 N 
HETATM   24  H16 UNK     1      16.882   1.437  33.236  1.00  0.00     0.169 HD
HETATM   25  O2  UNK     1      19.217   2.224  35.299  1.00  0.00    -0.271 OA
BRANCH  23  26
HETATM   26  C18 UNK     1      18.113   2.965  32.609  1.00  0.00     0.034 A 
HETATM   27  C20 UNK     1      18.217   4.296  33.013  1.00  0.00     0.031 A 
HETATM   28  C22 UNK     1      18.633   5.270  32.105  1.00  0.00     0.026 A 
HETATM   29  C24 UNK     1      18.947   4.912  30.794  1.00  0.00     0.034 A 
HETATM   30  C23 UNK     1      18.844   3.581  30.390  1.00  0.00     0.026 A 
HETATM   31 Cl1  UNK     1      19.462   6.112  29.674  1.00  0.00    -0.084 Cl
HETATM   32  C21 UNK     1      18.426   2.607  31.299  1.00  0.00     0.031 A 
ENDBRANCH  23  26
ENDBRANCH  21  22
ENDBRANCH   2  21
TORSDOF 6
ENDMDL
MODEL 2
REMARK VINA RESULT:      -9.2      6.086      8.808
REMARK  6 active torsions:
REMARK  status: ('A' for Active; 'I' for Inactive)
REMARK    1  A    between atoms: C5_12  and  N1_5 
REMARK    2  A    between atoms: C6_13  and  N2_6 
REMARK    3  A    between atoms: C18_25  and  N3_7 
REMARK       I    between atoms: C9_16  and  N3_7 
REMARK    4  A    between atoms: C5_12  and  C7_14 
REMARK    5  A    between atoms: C6_13  and  C9_16 
REMARK    6  A    between atoms: C13_20  and  C17_24 
ROOT
HETATM    1  N1  UNK     1      18.871   3.642  31.296  1.00  0.00     0.096 N 
HETATM    2  N2  UNK     1      19.196   6.322  32.332  1.00  0.00     0.100 N 
HETATM    3  C1  UNK     1      19.373   4.732  30.449  1.00  0.00     0.303 C 
HETATM    4  C2  UNK     1      17.981   4.170  32.337  1.00  0.00     0.303 C 
HETATM    5  C3  UNK     1      20.087   5.794  31.291  1.00  0.00     0.303 C 
HETATM    6  C4  UNK     1      18.697   5.232  33.179  1.00  0.00     0.303 C 
ENDROOT
BRANCH   1   7
HETATM    7  C5  UNK     1      18.187   2.633  30.491  1.00  0.00     0.312 C 
BRANCH   7   8
HETATM    8  C7  UNK     1      18.918   1.335  30.477  1.00  0.00    -0.011 A 
HETATM    9  C10 UNK     1      19.594   0.933  29.391  1.00  0.00     0.092 A 
HETATM   10  C14 UNK     1      20.331  -0.340  29.330  1.00  0.00     0.288 A 
HETATM   11  O1  UNK     1      20.302  -1.133  30.467  1.00  0.00    -0.275 OA
HETATM   12  O3  UNK     1      20.940  -0.674  28.319  1.00  0.00    -0.260 OA
HETATM   13  C11 UNK     1      19.600  -0.737  31.623  1.00  0.00     0.090 A 
HETATM   14  C8  UNK     1      18.905   0.473  31.667  1.00  0.00     0.007 A 
HETATM   15  C15 UNK     1      19.640  -1.613  32.708  1.00  0.00     0.039 A 
HETATM   16  C12 UNK     1      18.232   0.793  32.853  1.00  0.00     0.022 A 
HETATM   17  C13 UNK     1      18.262  -0.075  33.950  1.00  0.00    -0.058 A 
HETATM   18  C16 UNK     1      18.965  -1.277  33.878  1.00  0.00     0.010 A 
BRANCH  17  19
HETATM   19  C17 UNK     1      17.538   0.287  35.204  1.00  0.00     0.034 C 
HETATM   20  C19 UNK     1      16.117  -0.270  35.233  1.00  0.00     0.010 C 
ENDBRANCH  17  19
ENDBRANCH   7   8
ENDBRANCH   1   7
BRANCH   2  21
HETATM   21  C6  UNK     1      19.879   7.334  33.136  1.00  0.00     0.375 C 
BRANCH  21  22
HETATM   22  C9  UNK     1      18.884   7.987  34.078  1.00  0.00     0.250 C 
HETATM   23  N3  UNK     1      17.931   8.700  33.354  1.00  0.00    -0.326 N 
HETATM   24  H16 UNK     1      18.005   8.694  32.340  1.00  0.00     0.169 HD
HETATM   25  O2  UNK     1      18.957   7.875  35.298  1.00  0.00    -0.271 OA
BRANCH  23  26
HETATM   26  C18 UNK     1      16.840   9.444  33.863  1.00  0.00     0.034 A 
HETATM   27  C20 UNK     1      15.603   8.827  34.052  1.00  0.00     0.031 A 
HETATM   28  C22 UNK     1      14.527   9.560  34.554  1.00  0.00     0.026 A 
HETATM   29  C24 UNK     1      14.689  10.908  34.868  1.00  0.00     0.034 A 
HETATM   30  C23 UNK     1      15.925  11.526  34.680  1.00  0.00     0.026 A 
HETATM   31 Cl1  UNK     1      13.363  11.812  35.490  1.00  0.00    -0.084 Cl
HETATM   32  C21 UNK     1      17.001  10.793  34.177  1.00  0.00     0.031 A 
ENDBRANCH  23  26
ENDBRANCH  21  22
ENDBRANCH   2  21
TORSDOF 6
ENDMDL
MODEL 3
REMARK VINA RESULT:      -8.9      3.790     11.339
REMARK  6 active torsions:
REMARK  status: ('A' for Active; 'I' for Inactive)
REMARK    1  A    between atoms: C5_12  and  N1_5 
REMARK    2  A    between atoms: C6_13  and  N2_6 
REMARK    3  A    between atoms: C18_25  and  N3_7 
REMARK       I    between atoms: C9_16  and  N3_7 
REMARK    4  A    between atoms: C5_12  and  C7_14 
REMARK    5  A    between atoms: C6_13  and  C9_16 
REMARK    6  A    between atoms: C13_20  and  C17_24 
ROOT
HETATM    1  N1  UNK     1      17.921   1.602  35.225  1.00  0.00     0.096 N 
HETATM    2  N2  UNK     1      18.213  -0.942  36.567  1.00  0.00     0.100 N 
HETATM    3  C1  UNK     1      18.980   0.658  34.848  1.00  0.00     0.303 C 
HETATM    4  C2  UNK     1      17.574   1.443  36.643  1.00  0.00     0.303 C 
HETATM    5  C3  UNK     1      18.559  -0.784  35.149  1.00  0.00     0.303 C 
HETATM    6  C4  UNK     1      17.153   0.001  36.943  1.00  0.00     0.303 C 
ENDROOT
BRANCH   1   7
HETATM    7  C5  UNK     1      18.325   2.977  34.940  1.00  0.00     0.312 C 
BRANCH   7   8
HETATM    8  C7  UNK     1      18.306   3.278  33.482  1.00  0.00    -0.011 A 
HETATM    9  C10 UNK     1      18.256   2.295  32.573  1.00  0.00     0.092 A 
HETATM   10  C14 UNK     1      18.235   2.543  31.121  1.00  0.00     0.288 A 
HETATM   11  O1  UNK     1      18.269   3.869  30.715  1.00  0.00    -0.275 OA
HETATM   12  O3  UNK     1      18.187   1.617  30.319  1.00  0.00    -0.260 OA
HETATM   13  C11 UNK     1      18.321   4.924  31.648  1.00  0.00     0.090 A 
HETATM   14  C8  UNK     1      18.341   4.673  33.021  1.00  0.00     0.007 A 
HETATM   15  C15 UNK     1      18.351   6.217  31.125  1.00  0.00     0.039 A 
HETATM   16  C12 UNK     1      18.395   5.777  33.882  1.00  0.00     0.022 A 
HETATM   17  C13 UNK     1      18.425   7.080  33.374  1.00  0.00    -0.058 A 
HETATM   18  C16 UNK     1      18.404   7.300  31.997  1.00  0.00     0.010 A 
BRANCH  17  19
HETATM   19  C17 UNK     1      18.482   8.241  34.310  1.00  0.00     0.034 C 
HETATM   20  C19 UNK     1      19.907   8.747  34.518  1.00  0.00     0.010 C 
ENDBRANCH  17  19
ENDBRANCH   7   8
ENDBRANCH   1   7
BRANCH   2  21
HETATM   21  C6  UNK     1      17.810  -2.318  36.853  1.00  0.00     0.375 C 
BRANCH  21  22
HETATM   22  C9  UNK     1      19.041  -3.206  36.892  1.00  0.00     0.250 C 
HETATM   23  N3  UNK     1      18.699  -4.517  36.564  1.00  0.00    -0.326 N 
HETATM   24  H16 UNK     1      17.726  -4.711  36.342  1.00  0.00     0.169 HD
HETATM   25  O2  UNK     1      20.154  -2.782  37.184  1.00  0.00    -0.271 OA
BRANCH  23  26
HETATM   26  C18 UNK     1      19.558  -5.639  36.489  1.00  0.00     0.034 A 
HETATM   27  C20 UNK     1      20.213  -6.092  37.635  1.00  0.00     0.031 A 
HETATM   28  C22 UNK     1      21.060  -7.199  37.562  1.00  0.00     0.026 A 
HETATM   29  C24 UNK     1      21.251  -7.852  36.346  1.00  0.00     0.034 A 
HETATM   30  C23 UNK     1      20.595  -7.400  35.200  1.00  0.00     0.026 A 
HETATM   31 Cl1  UNK     1      22.293  -9.218  36.256  1.00  0.00    -0.084 Cl
HETATM   32  C21 UNK     1      19.749  -6.293  35.272  1.00  0.00     0.031 A 
ENDBRANCH  23  26
ENDBRANCH  21  22
ENDBRANCH   2  21
TORSDOF 6
ENDMDL
MODEL 4
REMARK VINA RESULT:      -8.6      4.028     11.538
REMARK  6 active torsions:
REMARK  status: ('A' for Active; 'I' for Inactive)
REMARK    1  A    between atoms: C5_12  and  N1_5 
REMARK    2  A    between atoms: C6_13  and  N2_6 
REMARK    3  A    between atoms: C18_25  and  N3_7 
REMARK       I    between atoms: C9_16  and  N3_7 
REMARK    4  A    between atoms: C5_12  and  C7_14 
REMARK    5  A    between atoms: C6_13  and  C9_16 
REMARK    6  A    between atoms: C13_20  and  C17_24 
ROOT
HETATM    1  N1  UNK     1      18.625   0.929  34.059  1.00  0.00     0.096 N 
HETATM    2  N2  UNK     1      19.334  -1.454  35.535  1.00  0.00     0.100 N 
HETATM    3  C1  UNK     1      18.651   0.921  35.527  1.00  0.00     0.303 C 
HETATM    4  C2  UNK     1      18.309  -0.409  33.545  1.00  0.00     0.303 C 
HETATM    5  C3  UNK     1      19.651  -0.116  36.050  1.00  0.00     0.303 C 
HETATM    6  C4  UNK     1      19.310  -1.445  34.068  1.00  0.00     0.303 C 
ENDROOT
BRANCH   1   7
HETATM    7  C5  UNK     1      17.668   1.915  33.563  1.00  0.00     0.312 C 
BRANCH   7   8
HETATM    8  C7  UNK     1      18.136   2.572  32.311  1.00  0.00    -0.011 A 
HETATM    9  C10 UNK     1      18.321   1.867  31.186  1.00  0.00     0.092 A 
HETATM   10  C14 UNK     1      18.782   2.472  29.925  1.00  0.00     0.288 A 
HETATM   11  O1  UNK     1      19.026   3.837  29.942  1.00  0.00    -0.275 OA
HETATM   12  O3  UNK     1      18.937   1.794  28.915  1.00  0.00    -0.260 OA
HETATM   13  C11 UNK     1      18.841   4.604  31.109  1.00  0.00     0.090 A 
HETATM   14  C8  UNK     1      18.404   4.017  32.297  1.00  0.00     0.007 A 
HETATM   15  C15 UNK     1      19.117   5.969  31.009  1.00  0.00     0.039 A 
HETATM   16  C12 UNK     1      18.246   4.849  33.413  1.00  0.00     0.022 A 
HETATM   17  C13 UNK     1      18.518   6.219  33.329  1.00  0.00    -0.058 A 
HETATM   18  C16 UNK     1      18.954   6.778  32.128  1.00  0.00     0.010 A 
BRANCH  17  19
HETATM   19  C17 UNK     1      18.343   7.086  34.531  1.00  0.00     0.034 C 
HETATM   20  C19 UNK     1      19.450   8.129  34.658  1.00  0.00     0.010 C 
ENDBRANCH  17  19
ENDBRANCH   7   8
ENDBRANCH   1   7
BRANCH   2  21
HETATM   21  C6  UNK     1      20.290  -2.442  36.034  1.00  0.00     0.375 C 
BRANCH  21  22
HETATM   22  C9  UNK     1      19.537  -3.646  36.572  1.00  0.00     0.250 C 
HETATM   23  N3  UNK     1      20.412  -4.713  36.766  1.00  0.00    -0.326 N 
HETATM   24  H16 UNK     1      21.394  -4.566  36.545  1.00  0.00     0.169 HD
HETATM   25  O2  UNK     1      18.328  -3.630  36.783  1.00  0.00    -0.271 OA
BRANCH  23  26
HETATM   26  C18 UNK     1      20.101  -6.006  37.252  1.00  0.00     0.034 A 
HETATM   27  C20 UNK     1      19.652  -6.991  36.372  1.00  0.00     0.031 A 
HETATM   28  C22 UNK     1      19.346  -8.266  36.850  1.00  0.00     0.026 A 
HETATM   29  C24 UNK     1      19.490  -8.555  38.206  1.00  0.00     0.034 A 
HETATM   30  C23 UNK     1      19.939  -7.570  39.086  1.00  0.00     0.026 A 
HETATM   31 Cl1  UNK     1      19.114 -10.127  38.796  1.00  0.00    -0.084 Cl
HETATM   32  C21 UNK     1      20.245  -6.295  38.608  1.00  0.00     0.031 A 
ENDBRANCH  23  26
ENDBRANCH  21  22
ENDBRANCH   2  21
TORSDOF 6
ENDMDL
MODEL 5
REMARK VINA RESULT:      -8.5     12.176     16.475
REMARK  6 active torsions:
REMARK  status: ('A' for Active; 'I' for Inactive)
REMARK    1  A    between atoms: C5_12  and  N1_5 
REMARK    2  A    between atoms: C6_13  and  N2_6 
REMARK    3  A    between atoms: C18_25  and  N3_7 
REMARK       I    between atoms: C9_16  and  N3_7 
REMARK    4  A    between atoms: C5_12  and  C7_14 
REMARK    5  A    between atoms: C6_13  and  C9_16 
REMARK    6  A    between atoms: C13_20  and  C17_24 
ROOT
HETATM    1  N1  UNK     1      31.904  -5.949  35.810  1.00  0.00     0.096 N 
HETATM    2  N2  UNK     1      34.492  -6.648  34.726  1.00  0.00     0.100 N 
HETATM    3  C1  UNK     1      32.223  -7.330  35.428  1.00  0.00     0.303 C 
HETATM    4  C2  UNK     1      32.669  -5.001  34.990  1.00  0.00     0.303 C 
HETATM    5  C3  UNK     1      33.727  -7.597  35.547  1.00  0.00     0.303 C 
HETATM    6  C4  UNK     1      34.174  -5.268  35.109  1.00  0.00     0.303 C 
ENDROOT
BRANCH   1   7
HETATM    7  C5  UNK     1      30.470  -5.696  35.693  1.00  0.00     0.312 C 
BRANCH   7   8
HETATM    8  C7  UNK     1      29.798  -5.640  37.021  1.00  0.00    -0.011 A 
HETATM    9  C10 UNK     1      30.042  -4.640  37.878  1.00  0.00     0.092 A 
HETATM   10  C14 UNK     1      29.403  -4.542  39.202  1.00  0.00     0.288 A 
HETATM   11  O1  UNK     1      28.513  -5.550  39.540  1.00  0.00    -0.275 OA
HETATM   12  O3  UNK     1      29.650  -3.609  39.959  1.00  0.00    -0.260 OA
HETATM   13  C11 UNK     1      28.236  -6.614  38.659  1.00  0.00     0.090 A 
HETATM   14  C8  UNK     1      28.850  -6.694  37.408  1.00  0.00     0.007 A 
HETATM   15  C15 UNK     1      27.324  -7.572  39.105  1.00  0.00     0.039 A 
HETATM   16  C12 UNK     1      28.522  -7.784  36.592  1.00  0.00     0.022 A 
HETATM   17  C13 UNK     1      27.609  -8.753  37.023  1.00  0.00    -0.058 A 
HETATM   18  C16 UNK     1      27.011  -8.647  38.279  1.00  0.00     0.010 A 
BRANCH  17  19
HETATM   19  C17 UNK     1      27.274  -9.906  36.137  1.00  0.00     0.034 C 
HETATM   20  C19 UNK     1      25.972 -10.590  36.545  1.00  0.00     0.010 C 
ENDBRANCH  17  19
ENDBRANCH   7   8
ENDBRANCH   1   7
BRANCH   2  21
HETATM   21  C6  UNK     1      35.927  -6.902  34.841  1.00  0.00     0.375 C 
BRANCH  21  22
HETATM   22  C9  UNK     1      36.464  -7.378  33.503  1.00  0.00     0.250 C 
HETATM   23  N3  UNK     1      36.808  -8.727  33.574  1.00  0.00    -0.326 N 
HETATM   24  H16 UNK     1      36.661  -9.206  34.459  1.00  0.00     0.169 HD
HETATM   25  O2  UNK     1      36.565  -6.637  32.530  1.00  0.00    -0.271 OA
BRANCH  23  26
HETATM   26  C18 UNK     1      37.343  -9.536  32.543  1.00  0.00     0.034 A 
HETATM   27  C20 UNK     1      38.579 -10.158  32.717  1.00  0.00     0.031 A 
HETATM   28  C22 UNK     1      39.107 -10.956  31.702  1.00  0.00     0.026 A 
HETATM   29  C24 UNK     1      38.398 -11.133  30.514  1.00  0.00     0.034 A 
HETATM   30  C23 UNK     1      37.161 -10.512  30.340  1.00  0.00     0.026 A 
HETATM   31 Cl1  UNK     1      39.047 -12.119  29.263  1.00  0.00    -0.084 Cl
HETATM   32  C21 UNK     1      36.634  -9.712  31.356  1.00  0.00     0.031 A 
ENDBRANCH  23  26
ENDBRANCH  21  22
ENDBRANCH   2  21
TORSDOF 6
ENDMDL
MODEL 6
REMARK VINA RESULT:      -8.4      8.731     12.475
REMARK  6 active torsions:
REMARK  status: ('A' for Active; 'I' for Inactive)
REMARK    1  A    between atoms: C5_12  and  N1_5 
REMARK    2  A    between atoms: C6_13  and  N2_6 
REMARK    3  A    between atoms: C18_25  and  N3_7 
REMARK       I    between atoms: C9_16  and  N3_7 
REMARK    4  A    between atoms: C5_12  and  C7_14 
REMARK    5  A    between atoms: C6_13  and  C9_16 
REMARK    6  A    between atoms: C13_20  and  C17_24 
ROOT
HETATM    1  N1  UNK     1      26.816  -9.380  37.524  1.00  0.00     0.096 N 
HETATM    2  N2  UNK     1      29.665  -9.078  37.918  1.00  0.00     0.100 N 
HETATM    3  C1  UNK     1      27.658  -8.709  36.525  1.00  0.00     0.303 C 
HETATM    4  C2  UNK     1      27.389  -9.219  38.867  1.00  0.00     0.303 C 
HETATM    5  C3  UNK     1      29.094  -9.240  36.574  1.00  0.00     0.303 C 
HETATM    6  C4  UNK     1      28.825  -9.751  38.916  1.00  0.00     0.303 C 
ENDROOT
BRANCH   1   7
HETATM    7  C5  UNK     1      25.448  -8.869  37.479  1.00  0.00     0.312 C 
BRANCH   7   8
HETATM    8  C7  UNK     1      24.523  -9.803  36.779  1.00  0.00    -0.011 A 
HETATM    9  C10 UNK     1      24.969 -10.950  36.247  1.00  0.00     0.092 A 
HETATM   10  C14 UNK     1      24.093 -11.904  35.546  1.00  0.00     0.288 A 
HETATM   11  O1  UNK     1      22.751 -11.566  35.452  1.00  0.00    -0.275 OA
HETATM   12  O3  UNK     1      24.537 -12.945  35.073  1.00  0.00    -0.260 OA
HETATM   13  C11 UNK     1      22.254 -10.367  36.002  1.00  0.00     0.090 A 
HETATM   14  C8  UNK     1      23.096  -9.472  36.663  1.00  0.00     0.007 A 
HETATM   15  C15 UNK     1      20.887 -10.131  35.848  1.00  0.00     0.039 A 
HETATM   16  C12 UNK     1      22.524  -8.303  37.180  1.00  0.00     0.022 A 
HETATM   17  C13 UNK     1      21.155  -8.051  37.035  1.00  0.00    -0.058 A 
HETATM   18  C16 UNK     1      20.338  -8.963  36.369  1.00  0.00     0.010 A 
BRANCH  17  19
HETATM   19  C17 UNK     1      20.567  -6.798  37.593  1.00  0.00     0.034 C 
HETATM   20  C19 UNK     1      20.365  -6.877  39.104  1.00  0.00     0.010 C 
ENDBRANCH  17  19
ENDBRANCH   7   8
ENDBRANCH   1   7
BRANCH   2  21
HETATM   21  C6  UNK     1      31.035  -9.587  37.964  1.00  0.00     0.375 C 
BRANCH  21  22
HETATM   22  C9  UNK     1      31.885  -8.839  36.951  1.00  0.00     0.250 C 
HETATM   23  N3  UNK     1      31.907  -7.479  37.252  1.00  0.00    -0.326 N 
HETATM   24  H16 UNK     1      31.388  -7.166  38.069  1.00  0.00     0.169 HD
HETATM   25  O2  UNK     1      32.448  -9.401  36.017  1.00  0.00    -0.271 OA
BRANCH  23  26
HETATM   26  C18 UNK     1      32.583  -6.452  36.551  1.00  0.00     0.034 A 
HETATM   27  C20 UNK     1      31.875  -5.616  35.687  1.00  0.00     0.031 A 
HETATM   28  C22 UNK     1      32.541  -4.603  34.996  1.00  0.00     0.026 A 
HETATM   29  C24 UNK     1      33.913  -4.425  35.171  1.00  0.00     0.034 A 
HETATM   30  C23 UNK     1      34.621  -5.260  36.035  1.00  0.00     0.026 A 
HETATM   31 Cl1  UNK     1      34.734  -3.174  34.321  1.00  0.00    -0.084 Cl
HETATM   32  C21 UNK     1      33.955  -6.274  36.726  1.00  0.00     0.031 A 
ENDBRANCH  23  26
ENDBRANCH  21  22
ENDBRANCH   2  21
TORSDOF 6
ENDMDL
MODEL 7
REMARK VINA RESULT:      -8.4      6.274      9.284
REMARK  6 active torsions:
REMARK  status: ('A' for Active; 'I' for Inactive)
REMARK    1  A    between atoms: C5_12  and  N1_5 
REMARK    2  A    between atoms: C6_13  and  N2_6 
REMARK    3  A    between atoms: C18_25  and  N3_7 
REMARK       I    between atoms: C9_16  and  N3_7 
REMARK    4  A    between atoms: C5_12  and  C7_14 
REMARK    5  A    between atoms: C6_13  and  C9_16 
REMARK    6  A    between atoms: C13_20  and  C17_24 
ROOT
HETATM    1  N1  UNK     1      18.702   4.544  32.674  1.00  0.00     0.096 N 
HETATM    2  N2  UNK     1      18.680   7.369  33.291  1.00  0.00     0.100 N 
HETATM    3  C1  UNK     1      19.281   5.531  31.753  1.00  0.00     0.303 C 
HETATM    4  C2  UNK     1      17.612   5.147  33.452  1.00  0.00     0.303 C 
HETATM    5  C3  UNK     1      19.771   6.767  32.513  1.00  0.00     0.303 C 
HETATM    6  C4  UNK     1      18.104   6.383  34.212  1.00  0.00     0.303 C 
ENDROOT
BRANCH   1   7
HETATM    7  C5  UNK     1      18.232   3.368  31.946  1.00  0.00     0.312 C 
BRANCH   7   8
HETATM    8  C7  UNK     1      18.357   2.122  32.751  1.00  0.00    -0.011 A 
HETATM    9  C10 UNK     1      17.981   2.088  34.038  1.00  0.00     0.092 A 
HETATM   10  C14 UNK     1      18.085   0.880  34.874  1.00  0.00     0.288 A 
HETATM   11  O1  UNK     1      18.600  -0.255  34.267  1.00  0.00    -0.275 OA
HETATM   12  O3  UNK     1      17.729   0.887  36.047  1.00  0.00    -0.260 OA
HETATM   13  C11 UNK     1      19.003  -0.251  32.917  1.00  0.00     0.090 A 
HETATM   14  C8  UNK     1      18.899   0.902  32.136  1.00  0.00     0.007 A 
HETATM   15  C15 UNK     1      19.506  -1.450  32.411  1.00  0.00     0.039 A 
HETATM   16  C12 UNK     1      19.322   0.825  30.803  1.00  0.00     0.022 A 
HETATM   17  C13 UNK     1      19.829  -0.371  30.281  1.00  0.00    -0.058 A 
HETATM   18  C16 UNK     1      19.921  -1.507  31.085  1.00  0.00     0.010 A 
BRANCH  17  19
HETATM   19  C17 UNK     1      20.274  -0.431  28.858  1.00  0.00     0.034 C 
HETATM   20  C19 UNK     1      19.099  -0.479  27.886  1.00  0.00     0.010 C 
ENDBRANCH  17  19
ENDBRANCH   7   8
ENDBRANCH   1   7
BRANCH   2  21
HETATM   21  C6  UNK     1      19.150   8.547  34.017  1.00  0.00     0.375 C 
BRANCH  21  22
HETATM   22  C9  UNK     1      18.153   9.680  33.840  1.00  0.00     0.250 C 
HETATM   23  N3  UNK     1      16.870   9.248  34.168  1.00  0.00    -0.326 N 
HETATM   24  H16 UNK     1      16.759   8.285  34.477  1.00  0.00     0.169 HD
HETATM   25  O2  UNK     1      18.484  10.797  33.454  1.00  0.00    -0.271 OA
BRANCH  23  26
HETATM   26  C18 UNK     1      15.672  10.000  34.135  1.00  0.00     0.034 A 
HETATM   27  C20 UNK     1      15.297  10.763  35.241  1.00  0.00     0.031 A 
HETATM   28  C22 UNK     1      14.116  11.506  35.209  1.00  0.00     0.026 A 
HETATM   29  C24 UNK     1      13.312  11.486  34.070  1.00  0.00     0.034 A 
HETATM   30  C23 UNK     1      13.686  10.725  32.963  1.00  0.00     0.026 A 
HETATM   31 Cl1  UNK     1      11.857  12.404  34.028  1.00  0.00    -0.084 Cl
HETATM   32  C21 UNK     1      14.867   9.981  32.996  1.00  0.00     0.031 A 
ENDBRANCH  23  26
ENDBRANCH  21  22
ENDBRANCH   2  21
TORSDOF 6
ENDMDL
MODEL 8
REMARK VINA RESULT:      -8.4      4.297     10.765
REMARK  6 active torsions:
REMARK  status: ('A' for Active; 'I' for Inactive)
REMARK    1  A    between atoms: C5_12  and  N1_5 
REMARK    2  A    between atoms: C6_13  and  N2_6 
REMARK    3  A    between atoms: C18_25  and  N3_7 
REMARK       I    between atoms: C9_16  and  N3_7 
REMARK    4  A    between atoms: C5_12  and  C7_14 
REMARK    5  A    between atoms: C6_13  and  C9_16 
REMARK    6  A    between atoms: C13_20  and  C17_24 
ROOT
HETATM    1  N1  UNK     1      18.754  -1.005  34.999  1.00  0.00     0.096 N 
HETATM    2  N2  UNK     1      19.744  -2.971  36.875  1.00  0.00     0.100 N 
HETATM    3  C1  UNK     1      17.935  -1.461  36.130  1.00  0.00     0.303 C 
HETATM    4  C2  UNK     1      19.680  -2.064  34.577  1.00  0.00     0.303 C 
HETATM    5  C3  UNK     1      18.819  -1.912  37.298  1.00  0.00     0.303 C 
HETATM    6  C4  UNK     1      20.563  -2.514  35.746  1.00  0.00     0.303 C 
ENDROOT
BRANCH   1   7
HETATM    7  C5  UNK     1      17.910  -0.580  33.885  1.00  0.00     0.312 C 
BRANCH   7   8
HETATM    8  C7  UNK     1      18.661  -0.527  32.600  1.00  0.00    -0.011 A 
HETATM    9  C10 UNK     1      19.257  -1.619  32.101  1.00  0.00     0.092 A 
HETATM   10  C14 UNK     1      20.010  -1.615  30.835  1.00  0.00     0.288 A 
HETATM   11  O1  UNK     1      20.082  -0.408  30.157  1.00  0.00    -0.275 OA
HETATM   12  O3  UNK     1      20.541  -2.635  30.409  1.00  0.00    -0.260 OA
HETATM   13  C11 UNK     1      19.465   0.756  30.656  1.00  0.00     0.090 A 
HETATM   14  C8  UNK     1      18.755   0.738  31.858  1.00  0.00     0.007 A 
HETATM   15  C15 UNK     1      19.603   1.913  29.888  1.00  0.00     0.039 A 
HETATM   16  C12 UNK     1      18.172   1.937  32.286  1.00  0.00     0.022 A 
HETATM   17  C13 UNK     1      18.301   3.107  31.528  1.00  0.00    -0.058 A 
HETATM   18  C16 UNK     1      19.016   3.094  30.331  1.00  0.00     0.010 A 
BRANCH  17  19
HETATM   19  C17 UNK     1      17.671   4.373  32.003  1.00  0.00     0.034 C 
HETATM   20  C19 UNK     1      18.251   4.844  33.334  1.00  0.00     0.010 C 
ENDBRANCH  17  19
ENDBRANCH   7   8
ENDBRANCH   1   7
BRANCH   2  21
HETATM   21  C6  UNK     1      20.587  -3.399  37.989  1.00  0.00     0.375 C 
BRANCH  21  22
HETATM   22  C9  UNK     1      20.902  -4.878  37.846  1.00  0.00     0.250 C 
HETATM   23  N3  UNK     1      19.823  -5.645  38.282  1.00  0.00    -0.326 N 
HETATM   24  H16 UNK     1      18.999  -5.153  38.619  1.00  0.00     0.169 HD
HETATM   25  O2  UNK     1      21.973  -5.286  37.407  1.00  0.00    -0.271 OA
BRANCH  23  26
HETATM   26  C18 UNK     1      19.724  -7.056  38.310  1.00  0.00     0.034 A 
HETATM   27  C20 UNK     1      19.061  -7.728  37.282  1.00  0.00     0.031 A 
HETATM   28  C22 UNK     1      18.963  -9.119  37.309  1.00  0.00     0.026 A 
HETATM   29  C24 UNK     1      19.528  -9.838  38.362  1.00  0.00     0.034 A 
HETATM   30  C23 UNK     1      20.191  -9.167  39.389  1.00  0.00     0.026 A 
HETATM   31 Cl1  UNK     1      19.409 -11.554  38.394  1.00  0.00    -0.084 Cl
HETATM   32  C21 UNK     1      20.289  -7.775  39.363  1.00  0.00     0.031 A 
ENDBRANCH  23  26
ENDBRANCH  21  22
ENDBRANCH   2  21
TORSDOF 6
ENDMDL
MODEL 9
REMARK VINA RESULT:      -8.3     27.448     29.671
REMARK  6 active torsions:
REMARK  status: ('A' for Active; 'I' for Inactive)
REMARK    1  A    between atoms: C5_12  and  N1_5 
REMARK    2  A    between atoms: C6_13  and  N2_6 
REMARK    3  A    between atoms: C18_25  and  N3_7 
REMARK       I    between atoms: C9_16  and  N3_7 
REMARK    4  A    between atoms: C5_12  and  C7_14 
REMARK    5  A    between atoms: C6_13  and  C9_16 
REMARK    6  A    between atoms: C13_20  and  C17_24 
ROOT
HETATM    1  N1  UNK     1      11.890   7.136   7.337  1.00  0.00     0.096 N 
HETATM    2  N2  UNK     1       9.486   5.753   8.154  1.00  0.00     0.100 N 
HETATM    3  C1  UNK     1      11.230   6.167   6.453  1.00  0.00     0.303 C 
HETATM    4  C2  UNK     1      11.647   6.795   8.744  1.00  0.00     0.303 C 
HETATM    5  C3  UNK     1       9.728   6.094   6.746  1.00  0.00     0.303 C 
HETATM    6  C4  UNK     1      10.144   6.724   9.037  1.00  0.00     0.303 C 
ENDROOT
BRANCH   1   7
HETATM    7  C5  UNK     1      13.323   7.200   7.059  1.00  0.00     0.312 C 
BRANCH   7   8
HETATM    8  C7  UNK     1      14.142   6.830   8.245  1.00  0.00    -0.011 A 
HETATM    9  C10 UNK     1      14.444   5.550   8.507  1.00  0.00     0.092 A 
HETATM   10  C14 UNK     1      15.251   5.135   9.667  1.00  0.00     0.288 A 
HETATM   11  O1  UNK     1      15.702   6.144  10.504  1.00  0.00    -0.275 OA
HETATM   12  O3  UNK     1      15.508   3.954   9.872  1.00  0.00    -0.260 OA
HETATM   13  C11 UNK     1      15.402   7.498  10.256  1.00  0.00     0.090 A 
HETATM   14  C8  UNK     1      14.635   7.876   9.152  1.00  0.00     0.007 A 
HETATM   15  C15 UNK     1      15.909   8.427  11.165  1.00  0.00     0.039 A 
HETATM   16  C12 UNK     1      14.380   9.242   8.976  1.00  0.00     0.022 A 
HETATM   17  C13 UNK     1      14.882  10.187   9.879  1.00  0.00    -0.058 A 
HETATM   18  C16 UNK     1      15.645   9.779  10.972  1.00  0.00     0.010 A 
BRANCH  17  19
HETATM   19  C17 UNK     1      14.598  11.637   9.671  1.00  0.00     0.034 C 
HETATM   20  C19 UNK     1      15.642  12.310   8.785  1.00  0.00     0.010 C 
ENDBRANCH  17  19
ENDBRANCH   7   8
ENDBRANCH   1   7
BRANCH   2  21
HETATM   21  C6  UNK     1       8.052   5.686   8.433  1.00  0.00     0.375 C 
BRANCH  21  22
HETATM   22  C9  UNK     1       7.803   4.702   9.562  1.00  0.00     0.250 C 
HETATM   23  N3  UNK     1       6.600   4.998  10.202  1.00  0.00    -0.326 N 
HETATM   24  H16 UNK     1       6.060   5.786   9.853  1.00  0.00     0.169 HD
HETATM   25  O2  UNK     1       8.584   3.796   9.835  1.00  0.00    -0.271 OA
BRANCH  23  26
HETATM   26  C18 UNK     1       6.016   4.319  11.298  1.00  0.00     0.034 A 
HETATM   27  C20 UNK     1       5.446   3.059  11.112  1.00  0.00     0.031 A 
HETATM   28  C22 UNK     1       4.870   2.389  12.192  1.00  0.00     0.026 A 
HETATM   29  C24 UNK     1       4.867   2.977  13.456  1.00  0.00     0.034 A 
HETATM   30  C23 UNK     1       5.438   4.236  13.642  1.00  0.00     0.026 A 
HETATM   31 Cl1  UNK     1       4.159   2.149  14.788  1.00  0.00    -0.084 Cl
HETATM   32  C21 UNK     1       6.013   4.907  12.562  1.00  0.00     0.031 A 
ENDBRANCH  23  26
ENDBRANCH  21  22
ENDBRANCH   2  21
TORSDOF 6
ENDMDL
MODEL 10
REMARK VINA RESULT:      -8.2      4.764     10.869
REMARK  6 active torsions:
REMARK  status: ('A' for Active; 'I' for Inactive)
REMARK    1  A    between atoms: C5_12  and  N1_5 
REMARK    2  A    between atoms: C6_13  and  N2_6 
REMARK    3  A    between atoms: C18_25  and  N3_7 
REMARK       I    between atoms: C9_16  and  N3_7 
REMARK    4  A    between atoms: C5_12  and  C7_14 
REMARK    5  A    between atoms: C6_13  and  C9_16 
REMARK    6  A    between atoms: C13_20  and  C17_24 
ROOT
HETATM    1  N1  UNK     1      20.333  -4.421  36.790  1.00  0.00     0.096 N 
HETATM    2  N2  UNK     1      20.627  -7.102  37.833  1.00  0.00     0.100 N 
HETATM    3  C1  UNK     1      21.232  -4.708  37.915  1.00  0.00     0.303 C 
HETATM    4  C2  UNK     1      19.216  -5.374  36.771  1.00  0.00     0.303 C 
HETATM    5  C3  UNK     1      21.745  -6.150  37.851  1.00  0.00     0.303 C 
HETATM    6  C4  UNK     1      19.729  -6.816  36.707  1.00  0.00     0.303 C 
ENDROOT
BRANCH   1   7
HETATM    7  C5  UNK     1      19.842  -3.047  36.855  1.00  0.00     0.312 C 
BRANCH   7   8
HETATM    8  C7  UNK     1      19.763  -2.414  35.509  1.00  0.00    -0.011 A 
HETATM    9  C10 UNK     1      20.404  -2.942  34.457  1.00  0.00     0.092 A 
HETATM   10  C14 UNK     1      20.356  -2.353  33.108  1.00  0.00     0.288 A 
HETATM   11  O1  UNK     1      19.603  -1.199  32.959  1.00  0.00    -0.275 OA
HETATM   12  O3  UNK     1      20.954  -2.867  32.169  1.00  0.00    -0.260 OA
HETATM   13  C11 UNK     1      18.918  -0.620  34.046  1.00  0.00     0.090 A 
HETATM   14  C8  UNK     1      18.973  -1.189  35.320  1.00  0.00     0.007 A 
HETATM   15  C15 UNK     1      18.191   0.541  33.779  1.00  0.00     0.039 A 
HETATM   16  C12 UNK     1      18.266  -0.552  36.347  1.00  0.00     0.022 A 
HETATM   17  C13 UNK     1      17.532   0.612  36.096  1.00  0.00    -0.058 A 
HETATM   18  C16 UNK     1      17.495   1.159  34.814  1.00  0.00     0.010 A 
BRANCH  17  19
HETATM   19  C17 UNK     1      16.786   1.274  37.206  1.00  0.00     0.034 C 
HETATM   20  C19 UNK     1      17.601   1.337  38.495  1.00  0.00     0.010 C 
ENDBRANCH  17  19
ENDBRANCH   7   8
ENDBRANCH   1   7
BRANCH   2  21
HETATM   21  C6  UNK     1      21.117  -8.477  37.770  1.00  0.00     0.375 C 
BRANCH  21  22
HETATM   22  C9  UNK     1      22.472  -8.562  38.451  1.00  0.00     0.250 C 
HETATM   23  N3  UNK     1      23.480  -8.712  37.500  1.00  0.00    -0.326 N 
HETATM   24  H16 UNK     1      23.206  -8.739  36.521  1.00  0.00     0.169 HD
HETATM   25  O2  UNK     1      22.605  -8.506  39.669  1.00  0.00    -0.271 OA
BRANCH  23  26
HETATM   26  C18 UNK     1      24.872  -8.828  37.729  1.00  0.00     0.034 A 
HETATM   27  C20 UNK     1      25.640  -9.679  36.934  1.00  0.00     0.031 A 
HETATM   28  C22 UNK     1      27.013  -9.793  37.159  1.00  0.00     0.026 A 
HETATM   29  C24 UNK     1      27.616  -9.056  38.177  1.00  0.00     0.034 A 
HETATM   30  C23 UNK     1      26.848  -8.205  38.972  1.00  0.00     0.026 A 
HETATM   31 Cl1  UNK     1      29.308  -9.195  38.454  1.00  0.00    -0.084 Cl
HETATM   32  C21 UNK     1      25.475  -8.091  38.747  1.00  0.00     0.031 A 
ENDBRANCH  23  26
ENDBRANCH  21  22
ENDBRANCH   2  21
TORSDOF 6
ENDMDL
