MODEL 1
REMARK VINA RESULT:      -9.6      0.000      0.000
REMARK  2 active torsions:
REMARK  status: ('A' for Active; 'I' for Inactive)
REMARK    1  A    between atoms: C2_7  and  N1_5 
REMARK       I    between atoms: C7_12  and  N1_5 
REMARK    2  A    between atoms: C3_8  and  C7_12 
ROOT
HETATM    1  O2  UNK     1      17.608   3.374  32.951  1.00  0.00    -0.267 OA
HETATM    2  N1  UNK     1      18.582   4.903  31.449  1.00  0.00    -0.322 N 
HETATM    3  C7  UNK     1      18.219   3.650  31.920  1.00  0.00     0.262 C 
HETATM    4  H2  UNK     1      19.109   4.941  30.582  1.00  0.00     0.169 HD
ENDROOT
BRANCH   3   5
HETATM    5  C3  UNK     1      18.653   2.574  31.021  1.00  0.00     0.108 A 
HETATM    6  C10 UNK     1      18.632   2.725  29.549  1.00  0.00     0.304 A 
HETATM    7  O1  UNK     1      19.068   1.633  28.802  1.00  0.00    -0.274 OA
HETATM    8  O3  UNK     1      18.251   3.757  29.008  1.00  0.00    -0.259 OA
HETATM    9  C5  UNK     1      19.508   0.442  29.413  1.00  0.00     0.089 A 
HETATM   10  C1  UNK     1      19.519   0.322  30.799  1.00  0.00    -0.001 A 
HETATM   11  C12 UNK     1      19.926  -0.595  28.582  1.00  0.00     0.038 A 
HETATM   12  C6  UNK     1      19.069   1.445  31.607  1.00  0.00     0.037 A 
HETATM   13  C9  UNK     1      19.962  -0.874  31.368  1.00  0.00     0.014 A 
HETATM   14  C16 UNK     1      20.385  -1.924  30.548  1.00  0.00     0.001 A 
HETATM   15  C17 UNK     1      20.366  -1.785  29.158  1.00  0.00     0.003 A 
ENDBRANCH   3   5
BRANCH   2  16
HETATM   16  C2  UNK     1      18.330   6.160  32.053  1.00  0.00     0.042 A 
HETATM   17  C4  UNK     1      19.306   6.780  32.814  1.00  0.00    -0.013 A 
HETATM   18  C11 UNK     1      19.034   8.017  33.399  1.00  0.00     0.042 A 
HETATM   19  C13 UNK     1      20.640   6.125  33.008  1.00  0.00     0.052 C 
HETATM   20 Cl1  UNK     1      20.210   8.838  34.360  1.00  0.00    -0.084 Cl
HETATM   21  C15 UNK     1      17.789   8.618  33.213  1.00  0.00     0.024 A 
HETATM   22  C14 UNK     1      16.816   7.981  32.442  1.00  0.00     0.004 A 
HETATM   23  C8  UNK     1      17.088   6.744  31.859  1.00  0.00     0.030 A 
ENDBRANCH   2  16
TORSDOF 2
ENDMDL
MODEL 2
REMARK VINA RESULT:      -9.4      1.174      2.102
REMARK  2 active torsions:
REMARK  status: ('A' for Active; 'I' for Inactive)
REMARK    1  A    between atoms: C2_7  and  N1_5 
REMARK       I    between atoms: C7_12  and  N1_5 
REMARK    2  A    between atoms: C3_8  and  C7_12 
ROOT
HETATM    1  O2  UNK     1      18.581   4.616  30.132  1.00  0.00    -0.267 OA
HETATM    2  N1  UNK     1      17.889   4.621  32.382  1.00  0.00    -0.322 N 
HETATM    3  C7  UNK     1      18.382   4.063  31.212  1.00  0.00     0.262 C 
HETATM    4  H2  UNK     1      17.767   4.003  33.179  1.00  0.00     0.169 HD
ENDROOT
BRANCH   3   5
HETATM    5  C3  UNK     1      18.677   2.633  31.362  1.00  0.00     0.108 A 
HETATM    6  C10 UNK     1      18.377   1.896  32.611  1.00  0.00     0.304 A 
HETATM    7  O1  UNK     1      18.704   0.543  32.631  1.00  0.00    -0.274 OA
HETATM    8  O3  UNK     1      17.867   2.445  33.581  1.00  0.00    -0.259 OA
HETATM    9  C5  UNK     1      19.290  -0.099  31.523  1.00  0.00     0.089 A 
HETATM   10  C1  UNK     1      19.564   0.614  30.359  1.00  0.00    -0.001 A 
HETATM   11  C12 UNK     1      19.580  -1.456  31.639  1.00  0.00     0.038 A 
HETATM   12  C6  UNK     1      19.235   2.029  30.306  1.00  0.00     0.037 A 
HETATM   13  C9  UNK     1      20.146  -0.057  29.280  1.00  0.00     0.014 A 
HETATM   14  C16 UNK     1      20.443  -1.419  29.381  1.00  0.00     0.001 A 
HETATM   15  C17 UNK     1      20.161  -2.116  30.558  1.00  0.00     0.003 A 
ENDBRANCH   3   5
BRANCH   2  16
HETATM   16  C2  UNK     1      17.501   5.966  32.602  1.00  0.00     0.042 A 
HETATM   17  C4  UNK     1      18.380   6.860  33.191  1.00  0.00    -0.013 A 
HETATM   18  C11 UNK     1      17.974   8.179  33.397  1.00  0.00     0.042 A 
HETATM   19  C13 UNK     1      19.749   6.413  33.601  1.00  0.00     0.052 C 
HETATM   20 Cl1  UNK     1      19.023   9.340  34.127  1.00  0.00    -0.084 Cl
HETATM   21  C15 UNK     1      16.697   8.586  33.012  1.00  0.00     0.024 A 
HETATM   22  C14 UNK     1      15.824   7.672  32.419  1.00  0.00     0.004 A 
HETATM   23  C8  UNK     1      16.229   6.354  32.214  1.00  0.00     0.030 A 
ENDBRANCH   2  16
TORSDOF 2
ENDMDL
MODEL 3
REMARK VINA RESULT:      -9.1      8.596     11.893
REMARK  2 active torsions:
REMARK  status: ('A' for Active; 'I' for Inactive)
REMARK    1  A    between atoms: C2_7  and  N1_5 
REMARK       I    between atoms: C7_12  and  N1_5 
REMARK    2  A    between atoms: C3_8  and  C7_12 
ROOT
HETATM    1  O2  UNK     1      21.542  -4.397  37.138  1.00  0.00    -0.267 OA
HETATM    2  N1  UNK     1      19.329  -5.175  37.332  1.00  0.00    -0.322 N 
HETATM    3  C7  UNK     1      20.326  -4.265  37.012  1.00  0.00     0.262 C 
HETATM    4  H2  UNK     1      18.367  -4.886  37.180  1.00  0.00     0.169 HD
ENDROOT
BRANCH   3   5
HETATM    5  C3  UNK     1      19.782  -3.018  36.461  1.00  0.00     0.108 A 
HETATM    6  C10 UNK     1      20.008  -2.617  35.054  1.00  0.00     0.304 A 
HETATM    7  O1  UNK     1      19.441  -1.412  34.649  1.00  0.00    -0.274 OA
HETATM    8  O3  UNK     1      20.661  -3.308  34.280  1.00  0.00    -0.259 OA
HETATM    9  C5  UNK     1      18.688  -0.611  35.530  1.00  0.00     0.089 A 
HETATM   10  C1  UNK     1      18.488  -1.007  36.849  1.00  0.00    -0.001 A 
HETATM   11  C12 UNK     1      18.159   0.578  35.032  1.00  0.00     0.038 A 
HETATM   12  C6  UNK     1      19.068  -2.261  37.303  1.00  0.00     0.037 A 
HETATM   13  C9  UNK     1      17.735  -0.186  37.692  1.00  0.00     0.014 A 
HETATM   14  C16 UNK     1      17.199   1.010  37.208  1.00  0.00     0.001 A 
HETATM   15  C17 UNK     1      17.411   1.391  35.881  1.00  0.00     0.003 A 
ENDBRANCH   3   5
BRANCH   2  16
HETATM   16  C2  UNK     1      19.485  -6.472  37.880  1.00  0.00     0.042 A 
HETATM   17  C4  UNK     1      19.127  -7.590  37.145  1.00  0.00    -0.013 A 
HETATM   18  C11 UNK     1      19.291  -8.857  37.707  1.00  0.00     0.042 A 
HETATM   19  C13 UNK     1      18.570  -7.438  35.763  1.00  0.00     0.052 C 
HETATM   20 Cl1  UNK     1      18.862 -10.289  36.842  1.00  0.00    -0.084 Cl
HETATM   21  C15 UNK     1      19.810  -8.989  38.995  1.00  0.00     0.024 A 
HETATM   22  C14 UNK     1      20.167  -7.852  39.721  1.00  0.00     0.004 A 
HETATM   23  C8  UNK     1      20.003  -6.586  39.161  1.00  0.00     0.030 A 
ENDBRANCH   2  16
TORSDOF 2
ENDMDL
MODEL 4
REMARK VINA RESULT:      -9.0      8.134     11.773
REMARK  2 active torsions:
REMARK  status: ('A' for Active; 'I' for Inactive)
REMARK    1  A    between atoms: C2_7  and  N1_5 
REMARK       I    between atoms: C7_12  and  N1_5 
REMARK    2  A    between atoms: C3_8  and  C7_12 
ROOT
HETATM    1  O2  UNK     1      21.313  -4.501  37.223  1.00  0.00    -0.267 OA
HETATM    2  N1  UNK     1      19.737  -5.471  35.767  1.00  0.00    -0.322 N 
HETATM    3  C7  UNK     1      20.383  -4.432  36.421  1.00  0.00     0.262 C 
HETATM    4  H2  UNK     1      18.968  -5.228  35.151  1.00  0.00     0.169 HD
ENDROOT
BRANCH   3   5
HETATM    5  C3  UNK     1      19.832  -3.121  36.057  1.00  0.00     0.108 A 
HETATM    6  C10 UNK     1      20.053  -2.520  34.723  1.00  0.00     0.304 A 
HETATM    7  O1  UNK     1      19.479  -1.272  34.497  1.00  0.00    -0.274 OA
HETATM    8  O3  UNK     1      20.707  -3.089  33.855  1.00  0.00    -0.259 OA
HETATM    9  C5  UNK     1      18.725  -0.610  35.485  1.00  0.00     0.089 A 
HETATM   10  C1  UNK     1      18.530  -1.194  36.734  1.00  0.00    -0.001 A 
HETATM   11  C12 UNK     1      18.189   0.636  35.166  1.00  0.00     0.038 A 
HETATM   12  C6  UNK     1      19.117  -2.497  37.000  1.00  0.00     0.037 A 
HETATM   13  C9  UNK     1      17.776  -0.507  37.688  1.00  0.00     0.014 A 
HETATM   14  C16 UNK     1      17.233   0.744  37.382  1.00  0.00     0.001 A 
HETATM   15  C17 UNK     1      17.440   1.314  36.124  1.00  0.00     0.003 A 
ENDBRANCH   3   5
BRANCH   2  16
HETATM   16  C2  UNK     1      20.003  -6.859  35.875  1.00  0.00     0.042 A 
HETATM   17  C4  UNK     1      19.411  -7.609  36.877  1.00  0.00    -0.013 A 
HETATM   18  C11 UNK     1      19.689  -8.974  36.963  1.00  0.00     0.042 A 
HETATM   19  C13 UNK     1      18.484  -6.959  37.858  1.00  0.00     0.052 C 
HETATM   20 Cl1  UNK     1      18.984  -9.962  38.191  1.00  0.00    -0.084 Cl
HETATM   21  C15 UNK     1      20.555  -9.569  36.045  1.00  0.00     0.024 A 
HETATM   22  C14 UNK     1      21.142  -8.799  35.041  1.00  0.00     0.004 A 
HETATM   23  C8  UNK     1      20.865  -7.435  34.956  1.00  0.00     0.030 A 
ENDBRANCH   2  16
TORSDOF 2
ENDMDL
MODEL 5
REMARK VINA RESULT:      -8.9      8.194     10.041
REMARK  2 active torsions:
REMARK  status: ('A' for Active; 'I' for Inactive)
REMARK    1  A    between atoms: C2_7  and  N1_5 
REMARK       I    between atoms: C7_12  and  N1_5 
REMARK    2  A    between atoms: C3_8  and  C7_12 
ROOT
HETATM    1  O2  UNK     1      20.903  -3.129  37.713  1.00  0.00    -0.267 OA
HETATM    2  N1  UNK     1      18.820  -3.237  36.622  1.00  0.00    -0.322 N 
HETATM    3  C7  UNK     1      19.985  -3.746  37.177  1.00  0.00     0.262 C 
HETATM    4  H2  UNK     1      18.177  -3.899  36.198  1.00  0.00     0.169 HD
ENDROOT
BRANCH   3   5
HETATM    5  C3  UNK     1      20.055  -5.209  37.072  1.00  0.00     0.108 A 
HETATM    6  C10 UNK     1      20.185  -5.896  35.767  1.00  0.00     0.304 A 
HETATM    7  O1  UNK     1      20.241  -7.287  35.797  1.00  0.00    -0.274 OA
HETATM    8  O3  UNK     1      20.241  -5.277  34.710  1.00  0.00    -0.259 OA
HETATM    9  C5  UNK     1      20.178  -8.009  37.005  1.00  0.00     0.089 A 
HETATM   10  C1  UNK     1      20.056  -7.342  38.220  1.00  0.00    -0.001 A 
HETATM   11  C12 UNK     1      20.243  -9.398  36.933  1.00  0.00     0.038 A 
HETATM   12  C6  UNK     1      19.994  -5.889  38.223  1.00  0.00     0.037 A 
HETATM   13  C9  UNK     1      19.997  -8.092  39.397  1.00  0.00     0.014 A 
HETATM   14  C16 UNK     1      20.060  -9.487  39.342  1.00  0.00     0.001 A 
HETATM   15  C17 UNK     1      20.183 -10.138  38.112  1.00  0.00     0.003 A 
ENDBRANCH   3   5
BRANCH   2  16
HETATM   16  C2  UNK     1      18.419  -1.880  36.547  1.00  0.00     0.042 A 
HETATM   17  C4  UNK     1      18.621  -1.154  35.385  1.00  0.00    -0.013 A 
HETATM   18  C11 UNK     1      18.218   0.181  35.336  1.00  0.00     0.042 A 
HETATM   19  C13 UNK     1      19.266  -1.798  34.196  1.00  0.00     0.052 C 
HETATM   20 Cl1  UNK     1      18.443   1.138  33.916  1.00  0.00    -0.084 Cl
HETATM   21  C15 UNK     1      17.619   0.772  36.448  1.00  0.00     0.024 A 
HETATM   22  C14 UNK     1      17.423   0.026  37.611  1.00  0.00     0.004 A 
HETATM   23  C8  UNK     1      17.826  -1.308  37.661  1.00  0.00     0.030 A 
ENDBRANCH   2  16
TORSDOF 2
ENDMDL
MODEL 6
REMARK VINA RESULT:      -8.8     13.860     16.411
REMARK  2 active torsions:
REMARK  status: ('A' for Active; 'I' for Inactive)
REMARK    1  A    between atoms: C2_7  and  N1_5 
REMARK       I    between atoms: C7_12  and  N1_5 
REMARK    2  A    between atoms: C3_8  and  C7_12 
ROOT
HETATM    1  O2  UNK     1      16.903  -1.724  17.033  1.00  0.00    -0.267 OA
HETATM    2  N1  UNK     1      19.069  -0.820  16.853  1.00  0.00    -0.322 N 
HETATM    3  C7  UNK     1      18.008  -1.640  16.500  1.00  0.00     0.262 C 
HETATM    4  H2  UNK     1      19.923  -0.900  16.309  1.00  0.00     0.169 HD
ENDROOT
BRANCH   3   5
HETATM    5  C3  UNK     1      18.321  -2.479  15.337  1.00  0.00     0.108 A 
HETATM    6  C10 UNK     1      19.018  -1.943  14.147  1.00  0.00     0.304 A 
HETATM    7  O1  UNK     1      19.259  -2.838  13.107  1.00  0.00    -0.274 OA
HETATM    8  O3  UNK     1      19.370  -0.770  14.074  1.00  0.00    -0.259 OA
HETATM    9  C5  UNK     1      18.860  -4.187  13.180  1.00  0.00     0.089 A 
HETATM   10  C1  UNK     1      18.205  -4.670  14.308  1.00  0.00    -0.001 A 
HETATM   11  C12 UNK     1      19.146  -5.006  12.089  1.00  0.00     0.038 A 
HETATM   12  C6  UNK     1      17.939  -3.760  15.411  1.00  0.00     0.037 A 
HETATM   13  C9  UNK     1      17.826  -6.014  14.343  1.00  0.00     0.014 A 
HETATM   14  C16 UNK     1      18.105  -6.848  13.257  1.00  0.00     0.001 A 
HETATM   15  C17 UNK     1      18.763  -6.345  12.133  1.00  0.00     0.003 A 
ENDBRANCH   3   5
BRANCH   2  16
HETATM   16  C2  UNK     1      19.122   0.115  17.917  1.00  0.00     0.042 A 
HETATM   17  C4  UNK     1      19.285   1.465  17.655  1.00  0.00    -0.013 A 
HETATM   18  C11 UNK     1      19.335   2.366  18.719  1.00  0.00     0.042 A 
HETATM   19  C13 UNK     1      19.408   1.949  16.243  1.00  0.00     0.052 C 
HETATM   20 Cl1  UNK     1      19.538   4.060  18.457  1.00  0.00    -0.084 Cl
HETATM   21  C15 UNK     1      19.220   1.905  20.031  1.00  0.00     0.024 A 
HETATM   22  C14 UNK     1      19.056   0.541  20.277  1.00  0.00     0.004 A 
HETATM   23  C8  UNK     1      19.007  -0.360  19.214  1.00  0.00     0.030 A 
ENDBRANCH   2  16
TORSDOF 2
ENDMDL
MODEL 7
REMARK VINA RESULT:      -8.6      4.522      7.261
REMARK  2 active torsions:
REMARK  status: ('A' for Active; 'I' for Inactive)
REMARK    1  A    between atoms: C2_7  and  N1_5 
REMARK       I    between atoms: C7_12  and  N1_5 
REMARK    2  A    between atoms: C3_8  and  C7_12 
ROOT
HETATM    1  O2  UNK     1      16.506   0.898  34.174  1.00  0.00    -0.267 OA
HETATM    2  N1  UNK     1      18.789   0.569  34.649  1.00  0.00    -0.322 N 
HETATM    3  C7  UNK     1      17.702   1.108  33.976  1.00  0.00     0.262 C 
HETATM    4  H2  UNK     1      19.715   0.841  34.332  1.00  0.00     0.169 HD
ENDROOT
BRANCH   3   5
HETATM    5  C3  UNK     1      18.112   2.033  32.913  1.00  0.00     0.108 A 
HETATM    6  C10 UNK     1      18.649   1.553  31.620  1.00  0.00     0.304 A 
HETATM    7  O1  UNK     1      19.003   2.527  30.690  1.00  0.00    -0.274 OA
HETATM    8  O3  UNK     1      18.778   0.359  31.374  1.00  0.00    -0.259 OA
HETATM    9  C5  UNK     1      18.859   3.902  30.961  1.00  0.00     0.089 A 
HETATM   10  C1  UNK     1      18.352   4.331  32.184  1.00  0.00    -0.001 A 
HETATM   11  C12 UNK     1      19.240   4.802  29.968  1.00  0.00     0.038 A 
HETATM   12  C6  UNK     1      17.973   3.338  33.176  1.00  0.00     0.037 A 
HETATM   13  C9  UNK     1      18.223   5.702  32.416  1.00  0.00     0.014 A 
HETATM   14  C16 UNK     1      18.602   6.617  31.429  1.00  0.00     0.001 A 
HETATM   15  C17 UNK     1      19.109   6.167  30.209  1.00  0.00     0.003 A 
ENDBRANCH   3   5
BRANCH   2  16
HETATM   16  C2  UNK     1      18.770  -0.352  35.725  1.00  0.00     0.042 A 
HETATM   17  C4  UNK     1      19.310  -1.618  35.572  1.00  0.00    -0.013 A 
HETATM   18  C11 UNK     1      19.279  -2.508  36.647  1.00  0.00     0.042 A 
HETATM   19  C13 UNK     1      19.920  -2.025  34.266  1.00  0.00     0.052 C 
HETATM   20 Cl1  UNK     1      19.935  -4.099  36.518  1.00  0.00    -0.084 Cl
HETATM   21  C15 UNK     1      18.709  -2.119  37.859  1.00  0.00     0.024 A 
HETATM   22  C14 UNK     1      18.169  -0.840  37.996  1.00  0.00     0.004 A 
HETATM   23  C8  UNK     1      18.199   0.049  36.922  1.00  0.00     0.030 A 
ENDBRANCH   2  16
TORSDOF 2
ENDMDL
MODEL 8
REMARK VINA RESULT:      -8.5     14.640     18.312
REMARK  2 active torsions:
REMARK  status: ('A' for Active; 'I' for Inactive)
REMARK    1  A    between atoms: C2_7  and  N1_5 
REMARK       I    between atoms: C7_12  and  N1_5 
REMARK    2  A    between atoms: C3_8  and  C7_12 
ROOT
HETATM    1  O2  UNK     1      17.861  -3.096  15.798  1.00  0.00    -0.267 OA
HETATM    2  N1  UNK     1      20.102  -2.967  15.088  1.00  0.00    -0.322 N 
HETATM    3  C7  UNK     1      18.918  -2.490  15.631  1.00  0.00     0.262 C 
HETATM    4  H2  UNK     1      20.874  -2.312  15.006  1.00  0.00     0.169 HD
ENDROOT
BRANCH   3   5
HETATM    5  C3  UNK     1      19.019  -1.081  16.030  1.00  0.00     0.108 A 
HETATM    6  C10 UNK     1      19.282  -0.004  15.049  1.00  0.00     0.304 A 
HETATM    7  O1  UNK     1      19.356   1.293  15.549  1.00  0.00    -0.274 OA
HETATM    8  O3  UNK     1      19.427  -0.237  13.854  1.00  0.00    -0.259 OA
HETATM    9  C5  UNK     1      19.191   1.572  16.920  1.00  0.00     0.089 A 
HETATM   10  C1  UNK     1      18.945   0.544  17.825  1.00  0.00    -0.001 A 
HETATM   11  C12 UNK     1      19.282   2.902  17.326  1.00  0.00     0.038 A 
HETATM   12  C6  UNK     1      18.862  -0.821  17.334  1.00  0.00     0.037 A 
HETATM   13  C9  UNK     1      18.787   0.861  19.177  1.00  0.00     0.014 A 
HETATM   14  C16 UNK     1      18.876   2.190  19.599  1.00  0.00     0.001 A 
HETATM   15  C17 UNK     1      19.124   3.208  18.676  1.00  0.00     0.003 A 
ENDBRANCH   3   5
BRANCH   2  16
HETATM   16  C2  UNK     1      20.366  -4.270  14.600  1.00  0.00     0.042 A 
HETATM   17  C4  UNK     1      20.122  -4.584  13.274  1.00  0.00    -0.013 A 
HETATM   18  C11 UNK     1      20.389  -5.875  12.817  1.00  0.00     0.042 A 
HETATM   19  C13 UNK     1      19.574  -3.546  12.343  1.00  0.00     0.052 C 
HETATM   20 Cl1  UNK     1      20.104  -6.327  11.175  1.00  0.00    -0.084 Cl
HETATM   21  C15 UNK     1      20.899  -6.834  13.692  1.00  0.00     0.024 A 
HETATM   22  C14 UNK     1      21.140  -6.501  15.026  1.00  0.00     0.004 A 
HETATM   23  C8  UNK     1      20.871  -5.212  15.483  1.00  0.00     0.030 A 
ENDBRANCH   2  16
TORSDOF 2
ENDMDL
MODEL 9
REMARK VINA RESULT:      -8.4     14.481     15.911
REMARK  2 active torsions:
REMARK  status: ('A' for Active; 'I' for Inactive)
REMARK    1  A    between atoms: C2_7  and  N1_5 
REMARK       I    between atoms: C7_12  and  N1_5 
REMARK    2  A    between atoms: C3_8  and  C7_12 
ROOT
HETATM    1  O2  UNK     1      25.869  -9.119  39.443  1.00  0.00    -0.267 OA
HETATM    2  N1  UNK     1      24.629  -7.757  37.977  1.00  0.00    -0.322 N 
HETATM    3  C7  UNK     1      25.721  -8.110  38.756  1.00  0.00     0.262 C 
HETATM    4  H2  UNK     1      24.671  -6.867  37.490  1.00  0.00     0.169 HD
ENDROOT
BRANCH   3   5
HETATM    5  C3  UNK     1      26.790  -7.105  38.699  1.00  0.00     0.108 A 
HETATM    6  C10 UNK     1      26.506  -5.654  38.771  1.00  0.00     0.304 A 
HETATM    7  O1  UNK     1      27.604  -4.799  38.707  1.00  0.00    -0.274 OA
HETATM    8  O3  UNK     1      25.365  -5.220  38.881  1.00  0.00    -0.259 OA
HETATM    9  C5  UNK     1      28.920  -5.286  38.580  1.00  0.00     0.089 A 
HETATM   10  C1  UNK     1      29.163  -6.655  38.514  1.00  0.00    -0.001 A 
HETATM   11  C12 UNK     1      29.953  -4.353  38.525  1.00  0.00     0.038 A 
HETATM   12  C6  UNK     1      28.038  -7.573  38.578  1.00  0.00     0.037 A 
HETATM   13  C9  UNK     1      30.481  -7.100  38.389  1.00  0.00     0.014 A 
HETATM   14  C16 UNK     1      31.529  -6.176  38.332  1.00  0.00     0.001 A 
HETATM   15  C17 UNK     1      31.265  -4.806  38.399  1.00  0.00     0.003 A 
ENDBRANCH   3   5
BRANCH   2  16
HETATM   16  C2  UNK     1      23.426  -8.483  37.795  1.00  0.00     0.042 A 
HETATM   17  C4  UNK     1      22.352  -8.284  38.646  1.00  0.00    -0.013 A 
HETATM   18  C11 UNK     1      21.179  -9.012  38.447  1.00  0.00     0.042 A 
HETATM   19  C13 UNK     1      22.454  -7.299  39.770  1.00  0.00     0.052 C 
HETATM   20 Cl1  UNK     1      19.807  -8.810  39.475  1.00  0.00    -0.084 Cl
HETATM   21  C15 UNK     1      21.095  -9.928  37.397  1.00  0.00     0.024 A 
HETATM   22  C14 UNK     1      22.186 -10.115  36.548  1.00  0.00     0.004 A 
HETATM   23  C8  UNK     1      23.359  -9.389  36.748  1.00  0.00     0.030 A 
ENDBRANCH   2  16
TORSDOF 2
ENDMDL
MODEL 10
REMARK VINA RESULT:      -8.1      3.081      7.918
REMARK  2 active torsions:
REMARK  status: ('A' for Active; 'I' for Inactive)
REMARK    1  A    between atoms: C2_7  and  N1_5 
REMARK       I    between atoms: C7_12  and  N1_5 
REMARK    2  A    between atoms: C3_8  and  C7_12 
ROOT
HETATM    1  O2  UNK     1      19.373   5.553  32.933  1.00  0.00    -0.267 OA
HETATM    2  N1  UNK     1      17.575   4.311  32.056  1.00  0.00    -0.322 N 
HETATM    3  C7  UNK     1      18.219   5.449  32.521  1.00  0.00     0.262 C 
HETATM    4  H2  UNK     1      16.604   4.407  31.774  1.00  0.00     0.169 HD
ENDROOT
BRANCH   3   5
HETATM    5  C3  UNK     1      17.349   6.631  32.486  1.00  0.00     0.108 A 
HETATM    6  C10 UNK     1      17.020   7.325  31.221  1.00  0.00     0.304 A 
HETATM    7  O1  UNK     1      16.184   8.435  31.317  1.00  0.00    -0.274 OA
HETATM    8  O3  UNK     1      17.457   6.946  30.140  1.00  0.00    -0.259 OA
HETATM    9  C5  UNK     1      15.675   8.878  32.553  1.00  0.00     0.089 A 
HETATM   10  C1  UNK     1      15.998   8.210  33.730  1.00  0.00    -0.001 A 
HETATM   11  C12 UNK     1      14.846   9.998  32.547  1.00  0.00     0.038 A 
HETATM   12  C6  UNK     1      16.869   7.048  33.663  1.00  0.00     0.037 A 
HETATM   13  C9  UNK     1      15.474   8.680  34.937  1.00  0.00     0.014 A 
HETATM   14  C16 UNK     1      14.641   9.803  34.948  1.00  0.00     0.001 A 
HETATM   15  C17 UNK     1      14.329  10.460  33.756  1.00  0.00     0.003 A 
ENDBRANCH   3   5
BRANCH   2  16
HETATM   16  C2  UNK     1      18.105   3.001  31.947  1.00  0.00     0.042 A 
HETATM   17  C4  UNK     1      18.606   2.547  30.739  1.00  0.00    -0.013 A 
HETATM   18  C11 UNK     1      19.122   1.253  30.657  1.00  0.00     0.042 A 
HETATM   19  C13 UNK     1      18.592   3.437  29.534  1.00  0.00     0.052 C 
HETATM   20 Cl1  UNK     1      19.760   0.629  29.179  1.00  0.00    -0.084 Cl
HETATM   21  C15 UNK     1      19.130   0.432  31.785  1.00  0.00     0.024 A 
HETATM   22  C14 UNK     1      18.621   0.905  32.995  1.00  0.00     0.004 A 
HETATM   23  C8  UNK     1      18.104   2.198  33.077  1.00  0.00     0.030 A 
ENDBRANCH   2  16
TORSDOF 2
ENDMDL
