MODEL 1
REMARK VINA RESULT:      -9.6      0.000      0.000
REMARK  8 active torsions:
REMARK  status: ('A' for Active; 'I' for Inactive)
REMARK    1  A    between atoms: C3_9  and  O1_1 
REMARK    2  A    between atoms: C4_10  and  O2_2 
REMARK    3  A    between atoms: C1_7  and  N1_5 
REMARK       I    between atoms: C8_14  and  N1_5 
REMARK       I    between atoms: C14_20  and  N2_6 
REMARK    4  A    between atoms: C2_8  and  N2_6 
REMARK    5  A    between atoms: C7_13  and  C8_14 
REMARK    6  A    between atoms: C7_13  and  C9_15 
REMARK    7  A    between atoms: C10_16  and  C11_17 
REMARK    8  A    between atoms: C14_20  and  C15_21 
ROOT
HETATM    1  C1  UNK     1      18.181   1.160  34.536  1.00  0.00     0.071 A 
HETATM    2  C2  UNK     1      18.496  -1.378  35.649  1.00  0.00     0.071 A 
HETATM    3  C3  UNK     1      18.563   0.087  33.731  1.00  0.00     0.097 A 
HETATM    4  C4  UNK     1      18.114  -0.306  36.455  1.00  0.00     0.097 A 
HETATM    5  C5  UNK     1      17.957   0.963  35.898  1.00  0.00     0.071 A 
HETATM    6  C6  UNK     1      18.719  -1.182  34.287  1.00  0.00     0.071 A 
ENDROOT
BRANCH   1   7
HETATM    7  N1  UNK     1      18.019   2.456  33.985  1.00  0.00    -0.320 N 
HETATM    8  C8  UNK     1      18.698   3.614  34.339  1.00  0.00     0.257 C 
HETATM    9  O3  UNK     1      19.562   3.723  35.204  1.00  0.00    -0.267 OA
HETATM   10  H3  UNK     1      17.305   2.514  33.263  1.00  0.00     0.169 HD
BRANCH   8  11
HETATM   11  C7  UNK     1      18.265   4.821  33.536  1.00  0.00     0.043 C 
HETATM   12  C10 UNK     1      17.272   5.579  34.073  1.00  0.00     0.029 C 
BRANCH  12  13
HETATM   13  C11 UNK     1      16.719   6.802  33.516  1.00  0.00    -0.035 A 
HETATM   14  C16 UNK     1      17.168   8.042  33.973  1.00  0.00     0.011 A 
HETATM   15  C25 UNK     1      16.638   9.217  33.439  1.00  0.00     0.001 A 
HETATM   16  C27 UNK     1      15.659   9.151  32.447  1.00  0.00     0.000 A 
HETATM   17  C26 UNK     1      15.210   7.912  31.990  1.00  0.00     0.001 A 
HETATM   18  C17 UNK     1      15.740   6.738  32.524  1.00  0.00     0.011 A 
ENDBRANCH  12  13
BRANCH  11  19
HETATM   19  C9  UNK     1      18.913   5.171  32.256  1.00  0.00    -0.021 A 
HETATM   20  C12 UNK     1      18.372   4.718  31.053  1.00  0.00     0.012 A 
HETATM   21  C18 UNK     1      18.985   5.049  29.845  1.00  0.00     0.001 A 
HETATM   22  C20 UNK     1      20.139   5.833  29.840  1.00  0.00     0.000 A 
HETATM   23  C19 UNK     1      20.679   6.287  31.042  1.00  0.00     0.001 A 
HETATM   24  C13 UNK     1      20.067   5.956  32.252  1.00  0.00     0.012 A 
ENDBRANCH  11  19
ENDBRANCH   8  11
ENDBRANCH   1   7
BRANCH   3  25
HETATM   25  O1  UNK     1      18.790   0.259  32.397  1.00  0.00    -0.354 OA
HETATM   26  C23 UNK     1      19.456  -0.799  31.713  1.00  0.00     0.210 C 
ENDBRANCH   3  25
BRANCH   4  27
HETATM   27  O2  UNK     1      17.890  -0.476  37.789  1.00  0.00    -0.354 OA
HETATM   28  C24 UNK     1      17.747   0.702  38.578  1.00  0.00     0.210 C 
ENDBRANCH   4  27
BRANCH   2  29
HETATM   29  N2  UNK     1      18.658  -2.655  36.194  1.00  0.00    -0.320 N 
HETATM   30  C14 UNK     1      19.849  -3.370  36.371  1.00  0.00     0.256 C 
HETATM   31  O4  UNK     1      20.981  -3.000  36.077  1.00  0.00    -0.267 OA
HETATM   32  H4  UNK     1      17.793  -3.071  36.525  1.00  0.00     0.169 HD
BRANCH  30  33
HETATM   33  C15 UNK     1      19.694  -4.727  36.955  1.00  0.00     0.032 A 
HETATM   34  C21 UNK     1      20.574  -5.165  37.946  1.00  0.00     0.017 A 
HETATM   35  C28 UNK     1      20.429  -6.439  38.494  1.00  0.00     0.001 A 
HETATM   36  C30 UNK     1      19.404  -7.276  38.052  1.00  0.00     0.000 A 
HETATM   37  C29 UNK     1      18.524  -6.838  37.063  1.00  0.00     0.001 A 
HETATM   38  C22 UNK     1      18.670  -5.565  36.514  1.00  0.00     0.017 A 
ENDBRANCH  30  33
ENDBRANCH   2  29
TORSDOF 8
ENDMDL
MODEL 2
REMARK VINA RESULT:      -9.5      1.236     11.321
REMARK  8 active torsions:
REMARK  status: ('A' for Active; 'I' for Inactive)
REMARK    1  A    between atoms: C3_9  and  O1_1 
REMARK    2  A    between atoms: C4_10  and  O2_2 
REMARK    3  A    between atoms: C1_7  and  N1_5 
REMARK       I    between atoms: C8_14  and  N1_5 
REMARK       I    between atoms: C14_20  and  N2_6 
REMARK    4  A    between atoms: C2_8  and  N2_6 
REMARK    5  A    between atoms: C7_13  and  C8_14 
REMARK    6  A    between atoms: C7_13  and  C9_15 
REMARK    7  A    between atoms: C10_16  and  C11_17 
REMARK    8  A    between atoms: C14_20  and  C15_21 
ROOT
HETATM    1  C1  UNK     1      18.820  -1.278  35.298  1.00  0.00     0.071 A 
HETATM    2  C2  UNK     1      18.252   1.215  34.182  1.00  0.00     0.071 A 
HETATM    3  C3  UNK     1      18.428  -0.220  36.117  1.00  0.00     0.097 A 
HETATM    4  C4  UNK     1      18.643   0.157  33.362  1.00  0.00     0.097 A 
HETATM    5  C5  UNK     1      18.928  -1.089  33.920  1.00  0.00     0.071 A 
HETATM    6  C6  UNK     1      18.143   1.026  35.559  1.00  0.00     0.071 A 
ENDROOT
BRANCH   1   7
HETATM    7  N1  UNK     1      19.115  -2.549  35.850  1.00  0.00    -0.320 N 
HETATM    8  C8  UNK     1      20.362  -3.049  36.199  1.00  0.00     0.257 C 
HETATM    9  O3  UNK     1      21.441  -2.475  36.085  1.00  0.00    -0.267 OA
HETATM   10  H3  UNK     1      18.301  -3.146  35.975  1.00  0.00     0.169 HD
BRANCH   8  11
HETATM   11  C7  UNK     1      20.300  -4.452  36.763  1.00  0.00     0.043 C 
HETATM   12  C10 UNK     1      21.168  -4.738  37.768  1.00  0.00     0.029 C 
BRANCH  12  13
HETATM   13  C11 UNK     1      21.268  -5.993  38.494  1.00  0.00    -0.035 A 
HETATM   14  C16 UNK     1      20.122  -6.583  39.029  1.00  0.00     0.011 A 
HETATM   15  C25 UNK     1      20.217  -7.788  39.726  1.00  0.00     0.001 A 
HETATM   16  C27 UNK     1      21.460  -8.402  39.889  1.00  0.00     0.000 A 
HETATM   17  C26 UNK     1      22.605  -7.812  39.355  1.00  0.00     0.001 A 
HETATM   18  C17 UNK     1      22.510  -6.609  38.658  1.00  0.00     0.011 A 
ENDBRANCH  12  13
BRANCH  11  19
HETATM   19  C9  UNK     1      19.322  -5.442  36.266  1.00  0.00    -0.021 A 
HETATM   20  C12 UNK     1      18.019  -5.445  36.763  1.00  0.00     0.012 A 
HETATM   21  C18 UNK     1      17.096  -6.380  36.293  1.00  0.00     0.001 A 
HETATM   22  C20 UNK     1      17.478  -7.311  35.326  1.00  0.00     0.000 A 
HETATM   23  C19 UNK     1      18.780  -7.307  34.829  1.00  0.00     0.001 A 
HETATM   24  C13 UNK     1      19.704  -6.372  35.299  1.00  0.00     0.012 A 
ENDBRANCH  11  19
ENDBRANCH   8  11
ENDBRANCH   1   7
BRANCH   3  25
HETATM   25  O1  UNK     1      18.320  -0.382  37.467  1.00  0.00    -0.354 OA
HETATM   26  C23 UNK     1      17.661   0.652  38.192  1.00  0.00     0.210 C 
ENDBRANCH   3  25
BRANCH   4  27
HETATM   27  O2  UNK     1      18.756   0.320  32.013  1.00  0.00    -0.354 OA
HETATM   28  C24 UNK     1      19.664  -0.540  31.330  1.00  0.00     0.210 C 
ENDBRANCH   4  27
BRANCH   2  29
HETATM   29  N2  UNK     1      17.964   2.469  33.637  1.00  0.00    -0.320 N 
HETATM   30  C14 UNK     1      18.541   3.702  33.964  1.00  0.00     0.256 C 
HETATM   31  O4  UNK     1      19.416   3.908  34.800  1.00  0.00    -0.267 OA
HETATM   32  H4  UNK     1      17.276   2.443  32.890  1.00  0.00     0.169 HD
BRANCH  30  33
HETATM   33  C15 UNK     1      18.002   4.873  33.225  1.00  0.00     0.032 A 
HETATM   34  C21 UNK     1      18.275   5.026  31.865  1.00  0.00     0.017 A 
HETATM   35  C28 UNK     1      17.768   6.125  31.171  1.00  0.00     0.001 A 
HETATM   36  C30 UNK     1      16.988   7.071  31.838  1.00  0.00     0.000 A 
HETATM   37  C29 UNK     1      16.715   6.918  33.196  1.00  0.00     0.001 A 
HETATM   38  C22 UNK     1      17.222   5.820  33.890  1.00  0.00     0.017 A 
ENDBRANCH  30  33
ENDBRANCH   2  29
TORSDOF 8
ENDMDL
MODEL 3
REMARK VINA RESULT:      -9.2      1.426     11.117
REMARK  8 active torsions:
REMARK  status: ('A' for Active; 'I' for Inactive)
REMARK    1  A    between atoms: C3_9  and  O1_1 
REMARK    2  A    between atoms: C4_10  and  O2_2 
REMARK    3  A    between atoms: C1_7  and  N1_5 
REMARK       I    between atoms: C8_14  and  N1_5 
REMARK       I    between atoms: C14_20  and  N2_6 
REMARK    4  A    between atoms: C2_8  and  N2_6 
REMARK    5  A    between atoms: C7_13  and  C8_14 
REMARK    6  A    between atoms: C7_13  and  C9_15 
REMARK    7  A    between atoms: C10_16  and  C11_17 
REMARK    8  A    between atoms: C14_20  and  C15_21 
ROOT
HETATM    1  C1  UNK     1      18.814  -1.331  35.389  1.00  0.00     0.071 A 
HETATM    2  C2  UNK     1      18.194   1.192  34.374  1.00  0.00     0.071 A 
HETATM    3  C3  UNK     1      19.016  -1.054  34.037  1.00  0.00     0.097 A 
HETATM    4  C4  UNK     1      17.992   0.916  35.726  1.00  0.00     0.097 A 
HETATM    5  C5  UNK     1      18.302  -0.346  36.233  1.00  0.00     0.071 A 
HETATM    6  C6  UNK     1      18.706   0.208  33.530  1.00  0.00     0.071 A 
ENDROOT
BRANCH   1   7
HETATM    7  N1  UNK     1      19.122  -2.609  35.918  1.00  0.00    -0.320 N 
HETATM    8  C8  UNK     1      20.370  -3.090  36.291  1.00  0.00     0.257 C 
HETATM    9  O3  UNK     1      21.439  -2.490  36.221  1.00  0.00    -0.267 OA
HETATM   10  H3  UNK     1      18.318  -3.226  36.006  1.00  0.00     0.169 HD
BRANCH   8  11
HETATM   11  C7  UNK     1      20.323  -4.507  36.818  1.00  0.00     0.043 C 
HETATM   12  C10 UNK     1      21.194  -4.809  37.817  1.00  0.00     0.029 C 
BRANCH  12  13
HETATM   13  C11 UNK     1      21.307  -6.081  38.512  1.00  0.00    -0.035 A 
HETATM   14  C16 UNK     1      20.171  -6.687  39.050  1.00  0.00     0.011 A 
HETATM   15  C25 UNK     1      20.279  -7.907  39.716  1.00  0.00     0.001 A 
HETATM   16  C27 UNK     1      21.525  -8.523  39.844  1.00  0.00     0.000 A 
HETATM   17  C26 UNK     1      22.661  -7.918  39.306  1.00  0.00     0.001 A 
HETATM   18  C17 UNK     1      22.552  -6.698  38.640  1.00  0.00     0.011 A 
ENDBRANCH  12  13
BRANCH  11  19
HETATM   19  C9  UNK     1      19.358  -5.495  36.294  1.00  0.00    -0.021 A 
HETATM   20  C12 UNK     1      18.049  -5.514  36.776  1.00  0.00     0.012 A 
HETATM   21  C18 UNK     1      17.138  -6.448  36.281  1.00  0.00     0.001 A 
HETATM   22  C20 UNK     1      17.537  -7.361  35.305  1.00  0.00     0.000 A 
HETATM   23  C19 UNK     1      18.845  -7.342  34.823  1.00  0.00     0.001 A 
HETATM   24  C13 UNK     1      19.757  -6.408  35.318  1.00  0.00     0.012 A 
ENDBRANCH  11  19
ENDBRANCH   8  11
ENDBRANCH   1   7
BRANCH   3  25
HETATM   25  O1  UNK     1      19.513  -2.003  33.194  1.00  0.00    -0.354 OA
HETATM   26  C23 UNK     1      19.761  -1.607  31.848  1.00  0.00     0.210 C 
ENDBRANCH   3  25
BRANCH   4  27
HETATM   27  O2  UNK     1      17.492   1.864  36.568  1.00  0.00    -0.354 OA
HETATM   28  C24 UNK     1      17.382   1.514  37.945  1.00  0.00     0.210 C 
ENDBRANCH   4  27
BRANCH   2  29
HETATM   29  N2  UNK     1      17.887   2.452  33.852  1.00  0.00    -0.320 N 
HETATM   30  C14 UNK     1      18.544   3.665  34.090  1.00  0.00     0.256 C 
HETATM   31  O4  UNK     1      19.521   3.845  34.810  1.00  0.00    -0.267 OA
HETATM   32  H4  UNK     1      17.112   2.445  33.195  1.00  0.00     0.169 HD
BRANCH  30  33
HETATM   33  C15 UNK     1      17.960   4.849  33.407  1.00  0.00     0.032 A 
HETATM   34  C21 UNK     1      17.350   5.856  34.155  1.00  0.00     0.017 A 
HETATM   35  C28 UNK     1      16.802   6.967  33.513  1.00  0.00     0.001 A 
HETATM   36  C30 UNK     1      16.863   7.070  32.123  1.00  0.00     0.000 A 
HETATM   37  C29 UNK     1      17.472   6.063  31.376  1.00  0.00     0.001 A 
HETATM   38  C22 UNK     1      18.020   4.952  32.017  1.00  0.00     0.017 A 
ENDBRANCH  30  33
ENDBRANCH   2  29
TORSDOF 8
ENDMDL
MODEL 4
REMARK VINA RESULT:      -9.1      0.698      2.193
REMARK  8 active torsions:
REMARK  status: ('A' for Active; 'I' for Inactive)
REMARK    1  A    between atoms: C3_9  and  O1_1 
REMARK    2  A    between atoms: C4_10  and  O2_2 
REMARK    3  A    between atoms: C1_7  and  N1_5 
REMARK       I    between atoms: C8_14  and  N1_5 
REMARK       I    between atoms: C14_20  and  N2_6 
REMARK    4  A    between atoms: C2_8  and  N2_6 
REMARK    5  A    between atoms: C7_13  and  C8_14 
REMARK    6  A    between atoms: C7_13  and  C9_15 
REMARK    7  A    between atoms: C10_16  and  C11_17 
REMARK    8  A    between atoms: C14_20  and  C15_21 
ROOT
HETATM    1  C1  UNK     1      18.203   1.107  34.569  1.00  0.00     0.071 A 
HETATM    2  C2  UNK     1      18.522  -1.478  35.569  1.00  0.00     0.071 A 
HETATM    3  C3  UNK     1      17.783   0.803  35.864  1.00  0.00     0.097 A 
HETATM    4  C4  UNK     1      18.942  -1.175  34.274  1.00  0.00     0.097 A 
HETATM    5  C5  UNK     1      18.782   0.117  33.774  1.00  0.00     0.071 A 
HETATM    6  C6  UNK     1      17.944  -0.489  36.364  1.00  0.00     0.071 A 
ENDROOT
BRANCH   1   7
HETATM    7  N1  UNK     1      18.045   2.414  34.046  1.00  0.00    -0.320 N 
HETATM    8  C8  UNK     1      18.739   3.560  34.413  1.00  0.00     0.257 C 
HETATM    9  O3  UNK     1      19.616   3.645  35.268  1.00  0.00    -0.267 OA
HETATM   10  H3  UNK     1      17.321   2.493  33.336  1.00  0.00     0.169 HD
BRANCH   8  11
HETATM   11  C7  UNK     1      18.305   4.786  33.640  1.00  0.00     0.043 C 
HETATM   12  C10 UNK     1      17.346   5.556  34.219  1.00  0.00     0.029 C 
BRANCH  12  13
HETATM   13  C11 UNK     1      16.800   6.798  33.696  1.00  0.00    -0.035 A 
HETATM   14  C16 UNK     1      17.267   8.022  34.176  1.00  0.00     0.011 A 
HETATM   15  C25 UNK     1      16.745   9.214  33.674  1.00  0.00     0.001 A 
HETATM   16  C27 UNK     1      15.754   9.182  32.692  1.00  0.00     0.000 A 
HETATM   17  C26 UNK     1      15.288   7.958  32.212  1.00  0.00     0.001 A 
HETATM   18  C17 UNK     1      15.810   6.767  32.713  1.00  0.00     0.011 A 
ENDBRANCH  12  13
BRANCH  11  19
HETATM   19  C9  UNK     1      18.919   5.140  32.344  1.00  0.00    -0.021 A 
HETATM   20  C12 UNK     1      18.378   4.645  31.158  1.00  0.00     0.012 A 
HETATM   21  C18 UNK     1      18.959   4.980  29.934  1.00  0.00     0.001 A 
HETATM   22  C20 UNK     1      20.079   5.810  29.899  1.00  0.00     0.000 A 
HETATM   23  C19 UNK     1      20.619   6.306  31.084  1.00  0.00     0.001 A 
HETATM   24  C13 UNK     1      20.039   5.971  32.309  1.00  0.00     0.012 A 
ENDBRANCH  11  19
ENDBRANCH   8  11
ENDBRANCH   1   7
BRANCH   3  25
HETATM   25  O1  UNK     1      17.212   1.755  36.656  1.00  0.00    -0.354 OA
HETATM   26  C23 UNK     1      17.325   1.576  38.066  1.00  0.00     0.210 C 
ENDBRANCH   3  25
BRANCH   4  27
HETATM   27  O2  UNK     1      19.509  -2.127  33.481  1.00  0.00    -0.354 OA
HETATM   28  C24 UNK     1      19.792  -1.762  32.132  1.00  0.00     0.210 C 
ENDBRANCH   4  27
BRANCH   2  29
HETATM   29  N2  UNK     1      18.675  -2.768  36.083  1.00  0.00    -0.320 N 
HETATM   30  C14 UNK     1      19.862  -3.412  36.453  1.00  0.00     0.256 C 
HETATM   31  O4  UNK     1      20.998  -2.953  36.394  1.00  0.00    -0.267 OA
HETATM   32  H4  UNK     1      17.796  -3.258  36.228  1.00  0.00     0.169 HD
BRANCH  30  33
HETATM   33  C15 UNK     1      19.703  -4.806  36.943  1.00  0.00     0.032 A 
HETATM   34  C21 UNK     1      20.616  -5.332  37.858  1.00  0.00     0.017 A 
HETATM   35  C28 UNK     1      20.466  -6.641  38.318  1.00  0.00     0.001 A 
HETATM   36  C30 UNK     1      19.404  -7.423  37.862  1.00  0.00     0.000 A 
HETATM   37  C29 UNK     1      18.492  -6.896  36.949  1.00  0.00     0.001 A 
HETATM   38  C22 UNK     1      18.642  -5.589  36.488  1.00  0.00     0.017 A 
ENDBRANCH  30  33
ENDBRANCH   2  29
TORSDOF 8
ENDMDL
MODEL 5
REMARK VINA RESULT:      -9.0      1.721      3.142
REMARK  8 active torsions:
REMARK  status: ('A' for Active; 'I' for Inactive)
REMARK    1  A    between atoms: C3_9  and  O1_1 
REMARK    2  A    between atoms: C4_10  and  O2_2 
REMARK    3  A    between atoms: C1_7  and  N1_5 
REMARK       I    between atoms: C8_14  and  N1_5 
REMARK       I    between atoms: C14_20  and  N2_6 
REMARK    4  A    between atoms: C2_8  and  N2_6 
REMARK    5  A    between atoms: C7_13  and  C8_14 
REMARK    6  A    between atoms: C7_13  and  C9_15 
REMARK    7  A    between atoms: C10_16  and  C11_17 
REMARK    8  A    between atoms: C14_20  and  C15_21 
ROOT
HETATM    1  C1  UNK     1      19.074  -0.295  35.239  1.00  0.00     0.071 A 
HETATM    2  C2  UNK     1      19.273  -2.799  36.451  1.00  0.00     0.071 A 
HETATM    3  C3  UNK     1      18.580  -0.487  36.529  1.00  0.00     0.097 A 
HETATM    4  C4  UNK     1      19.768  -2.608  35.160  1.00  0.00     0.097 A 
HETATM    5  C5  UNK     1      19.667  -1.356  34.554  1.00  0.00     0.071 A 
HETATM    6  C6  UNK     1      18.681  -1.739  37.135  1.00  0.00     0.071 A 
ENDROOT
BRANCH   1   7
HETATM    7  N1  UNK     1      18.978   0.971  34.609  1.00  0.00    -0.320 N 
HETATM    8  C8  UNK     1      17.857   1.536  34.015  1.00  0.00     0.257 C 
HETATM    9  O3  UNK     1      16.742   1.031  33.924  1.00  0.00    -0.267 OA
HETATM   10  H3  UNK     1      19.851   1.493  34.590  1.00  0.00     0.169 HD
BRANCH   8  11
HETATM   11  C7  UNK     1      18.123   2.909  33.438  1.00  0.00     0.043 C 
HETATM   12  C10 UNK     1      18.162   3.939  34.324  1.00  0.00     0.029 C 
BRANCH  12  13
HETATM   13  C11 UNK     1      18.442   5.333  34.020  1.00  0.00    -0.035 A 
HETATM   14  C16 UNK     1      19.762   5.772  33.913  1.00  0.00     0.011 A 
HETATM   15  C25 UNK     1      20.031   7.109  33.620  1.00  0.00     0.001 A 
HETATM   16  C27 UNK     1      18.979   8.007  33.435  1.00  0.00     0.000 A 
HETATM   17  C26 UNK     1      17.660   7.568  33.543  1.00  0.00     0.001 A 
HETATM   18  C17 UNK     1      17.391   6.232  33.835  1.00  0.00     0.011 A 
ENDBRANCH  12  13
BRANCH  11  19
HETATM   19  C9  UNK     1      18.360   3.108  31.994  1.00  0.00    -0.021 A 
HETATM   20  C12 UNK     1      18.491   2.005  31.150  1.00  0.00     0.012 A 
HETATM   21  C18 UNK     1      18.715   2.194  29.786  1.00  0.00     0.001 A 
HETATM   22  C20 UNK     1      18.808   3.486  29.267  1.00  0.00     0.000 A 
HETATM   23  C19 UNK     1      18.676   4.588  30.110  1.00  0.00     0.001 A 
HETATM   24  C13 UNK     1      18.452   4.400  31.475  1.00  0.00     0.012 A 
ENDBRANCH  11  19
ENDBRANCH   8  11
ENDBRANCH   1   7
BRANCH   3  25
HETATM   25  O1  UNK     1      17.994   0.536  37.213  1.00  0.00    -0.354 OA
HETATM   26  C23 UNK     1      16.574   0.510  37.324  1.00  0.00     0.210 C 
ENDBRANCH   3  25
BRANCH   4  27
HETATM   27  O2  UNK     1      20.350  -3.631  34.475  1.00  0.00    -0.354 OA
HETATM   28  C24 UNK     1      20.856  -3.335  33.175  1.00  0.00     0.210 C 
ENDBRANCH   4  27
BRANCH   2  29
HETATM   29  N2  UNK     1      19.365  -4.048  37.070  1.00  0.00    -0.320 N 
HETATM   30  C14 UNK     1      20.518  -4.701  37.523  1.00  0.00     0.256 C 
HETATM   31  O4  UNK     1      21.672  -4.289  37.460  1.00  0.00    -0.267 OA
HETATM   32  H4  UNK     1      18.466  -4.494  37.228  1.00  0.00     0.169 HD
BRANCH  30  33
HETATM   33  C15 UNK     1      20.295  -6.045  38.118  1.00  0.00     0.032 A 
HETATM   34  C21 UNK     1      21.203  -6.556  39.047  1.00  0.00     0.017 A 
HETATM   35  C28 UNK     1      20.994  -7.817  39.605  1.00  0.00     0.001 A 
HETATM   36  C30 UNK     1      19.877  -8.567  39.234  1.00  0.00     0.000 A 
HETATM   37  C29 UNK     1      18.970  -8.056  38.307  1.00  0.00     0.001 A 
HETATM   38  C22 UNK     1      19.179  -6.795  37.748  1.00  0.00     0.017 A 
ENDBRANCH  30  33
ENDBRANCH   2  29
TORSDOF 8
ENDMDL
MODEL 6
REMARK VINA RESULT:      -8.6     25.550     27.734
REMARK  8 active torsions:
REMARK  status: ('A' for Active; 'I' for Inactive)
REMARK    1  A    between atoms: C3_9  and  O1_1 
REMARK    2  A    between atoms: C4_10  and  O2_2 
REMARK    3  A    between atoms: C1_7  and  N1_5 
REMARK       I    between atoms: C8_14  and  N1_5 
REMARK       I    between atoms: C14_20  and  N2_6 
REMARK    4  A    between atoms: C2_8  and  N2_6 
REMARK    5  A    between atoms: C7_13  and  C8_14 
REMARK    6  A    between atoms: C7_13  and  C9_15 
REMARK    7  A    between atoms: C10_16  and  C11_17 
REMARK    8  A    between atoms: C14_20  and  C15_21 
ROOT
HETATM    1  C1  UNK     1      17.315  10.433   9.213  1.00  0.00     0.071 A 
HETATM    2  C2  UNK     1      14.874   9.153   8.786  1.00  0.00     0.071 A 
HETATM    3  C3  UNK     1      16.371  11.000   8.357  1.00  0.00     0.097 A 
HETATM    4  C4  UNK     1      15.818   8.586   9.642  1.00  0.00     0.097 A 
HETATM    5  C5  UNK     1      17.039   9.226   9.855  1.00  0.00     0.071 A 
HETATM    6  C6  UNK     1      15.150  10.360   8.145  1.00  0.00     0.071 A 
ENDROOT
BRANCH   1   7
HETATM    7  N1  UNK     1      18.561  11.070   9.438  1.00  0.00    -0.320 N 
HETATM    8  C8  UNK     1      18.890  11.942  10.467  1.00  0.00     0.257 C 
HETATM    9  O3  UNK     1      18.151  12.324  11.370  1.00  0.00    -0.267 OA
HETATM   10  H3  UNK     1      19.267  10.858   8.737  1.00  0.00     0.169 HD
BRANCH   8  11
HETATM   11  C7  UNK     1      20.319  12.433  10.391  1.00  0.00     0.043 C 
HETATM   12  C10 UNK     1      21.127  12.101  11.433  1.00  0.00     0.029 C 
BRANCH  12  13
HETATM   13  C11 UNK     1      22.540  12.417  11.567  1.00  0.00    -0.035 A 
HETATM   14  C16 UNK     1      23.486  11.717  10.816  1.00  0.00     0.011 A 
HETATM   15  C25 UNK     1      24.841  12.020  10.944  1.00  0.00     0.001 A 
HETATM   16  C27 UNK     1      25.251  13.022  11.825  1.00  0.00     0.000 A 
HETATM   17  C26 UNK     1      24.306  13.721  12.575  1.00  0.00     0.001 A 
HETATM   18  C17 UNK     1      22.951  13.418  12.447  1.00  0.00     0.011 A 
ENDBRANCH  12  13
BRANCH  11  19
HETATM   19  C9  UNK     1      20.813  13.201   9.230  1.00  0.00    -0.021 A 
HETATM   20  C12 UNK     1      21.324  12.532   8.118  1.00  0.00     0.012 A 
HETATM   21  C18 UNK     1      21.791  13.259   7.022  1.00  0.00     0.001 A 
HETATM   22  C20 UNK     1      21.744  14.653   7.039  1.00  0.00     0.000 A 
HETATM   23  C19 UNK     1      21.232  15.321   8.150  1.00  0.00     0.001 A 
HETATM   24  C13 UNK     1      20.766  14.595   9.247  1.00  0.00     0.012 A 
ENDBRANCH  11  19
ENDBRANCH   8  11
ENDBRANCH   1   7
BRANCH   3  25
HETATM   25  O1  UNK     1      16.623  12.177   7.718  1.00  0.00    -0.354 OA
HETATM   26  C23 UNK     1      15.495  12.913   7.250  1.00  0.00     0.210 C 
ENDBRANCH   3  25
BRANCH   4  27
HETATM   27  O2  UNK     1      15.568   7.407  10.279  1.00  0.00    -0.354 OA
HETATM   28  C24 UNK     1      16.313   6.270   9.852  1.00  0.00     0.210 C 
ENDBRANCH   4  27
BRANCH   2  29
HETATM   29  N2  UNK     1      13.647   8.523   8.563  1.00  0.00    -0.320 N 
HETATM   30  C14 UNK     1      13.335   7.568   7.587  1.00  0.00     0.256 C 
HETATM   31  O4  UNK     1      14.093   7.105   6.740  1.00  0.00    -0.267 OA
HETATM   32  H4  UNK     1      12.926   8.783   9.229  1.00  0.00     0.169 HD
BRANCH  30  33
HETATM   33  C15 UNK     1      11.925   7.101   7.582  1.00  0.00     0.032 A 
HETATM   34  C21 UNK     1      11.380   6.535   6.428  1.00  0.00     0.017 A 
HETATM   35  C28 UNK     1      10.056   6.097   6.425  1.00  0.00     0.001 A 
HETATM   36  C30 UNK     1       9.275   6.226   7.574  1.00  0.00     0.000 A 
HETATM   37  C29 UNK     1       9.820   6.790   8.727  1.00  0.00     0.001 A 
HETATM   38  C22 UNK     1      11.144   7.229   8.731  1.00  0.00     0.017 A 
ENDBRANCH  30  33
ENDBRANCH   2  29
TORSDOF 8
ENDMDL
MODEL 7
REMARK VINA RESULT:      -8.4      5.120      7.960
REMARK  8 active torsions:
REMARK  status: ('A' for Active; 'I' for Inactive)
REMARK    1  A    between atoms: C3_9  and  O1_1 
REMARK    2  A    between atoms: C4_10  and  O2_2 
REMARK    3  A    between atoms: C1_7  and  N1_5 
REMARK       I    between atoms: C8_14  and  N1_5 
REMARK       I    between atoms: C14_20  and  N2_6 
REMARK    4  A    between atoms: C2_8  and  N2_6 
REMARK    5  A    between atoms: C7_13  and  C8_14 
REMARK    6  A    between atoms: C7_13  and  C9_15 
REMARK    7  A    between atoms: C10_16  and  C11_17 
REMARK    8  A    between atoms: C14_20  and  C15_21 
ROOT
HETATM    1  C1  UNK     1      17.988   7.241  32.320  1.00  0.00     0.071 A 
HETATM    2  C2  UNK     1      18.797   4.714  31.460  1.00  0.00     0.071 A 
HETATM    3  C3  UNK     1      17.083   6.180  32.322  1.00  0.00     0.097 A 
HETATM    4  C4  UNK     1      19.704   5.774  31.459  1.00  0.00     0.097 A 
HETATM    5  C5  UNK     1      19.299   7.038  31.888  1.00  0.00     0.071 A 
HETATM    6  C6  UNK     1      17.488   4.917  31.892  1.00  0.00     0.071 A 
ENDROOT
BRANCH   1   7
HETATM    7  N1  UNK     1      17.591   8.531  32.752  1.00  0.00    -0.320 N 
HETATM    8  C8  UNK     1      17.315   8.940  34.050  1.00  0.00     0.257 C 
HETATM    9  O3  UNK     1      17.360   8.247  35.063  1.00  0.00    -0.267 OA
HETATM   10  H3  UNK     1      17.488   9.207  31.999  1.00  0.00     0.169 HD
BRANCH   8  11
HETATM   11  C7  UNK     1      16.917  10.396  34.139  1.00  0.00     0.043 C 
HETATM   12  C10 UNK     1      17.931  11.301  34.133  1.00  0.00     0.029 C 
BRANCH  12  13
HETATM   13  C11 UNK     1      17.801  12.748  34.164  1.00  0.00    -0.035 A 
HETATM   14  C16 UNK     1      18.417  13.526  33.184  1.00  0.00     0.011 A 
HETATM   15  C25 UNK     1      18.292  14.915  33.213  1.00  0.00     0.001 A 
HETATM   16  C27 UNK     1      17.551  15.526  34.225  1.00  0.00     0.000 A 
HETATM   17  C26 UNK     1      16.935  14.749  35.206  1.00  0.00     0.001 A 
HETATM   18  C17 UNK     1      17.060  13.361  35.176  1.00  0.00     0.011 A 
ENDBRANCH  12  13
BRANCH  11  19
HETATM   19  C9  UNK     1      15.499  10.808  34.195  1.00  0.00    -0.021 A 
HETATM   20  C12 UNK     1      14.870  10.975  35.428  1.00  0.00     0.012 A 
HETATM   21  C18 UNK     1      13.531  11.364  35.480  1.00  0.00     0.001 A 
HETATM   22  C20 UNK     1      12.823  11.587  34.298  1.00  0.00     0.000 A 
HETATM   23  C19 UNK     1      13.453  11.421  33.066  1.00  0.00     0.001 A 
HETATM   24  C13 UNK     1      14.792  11.031  33.013  1.00  0.00     0.012 A 
ENDBRANCH  11  19
ENDBRANCH   8  11
ENDBRANCH   1   7
BRANCH   3  25
HETATM   25  O1  UNK     1      15.796   6.359  32.737  1.00  0.00    -0.354 OA
HETATM   26  C23 UNK     1      14.910   7.017  31.836  1.00  0.00     0.210 C 
ENDBRANCH   3  25
BRANCH   4  27
HETATM   27  O2  UNK     1      20.988   5.597  31.040  1.00  0.00    -0.354 OA
HETATM   28  C24 UNK     1      22.022   5.907  31.971  1.00  0.00     0.210 C 
ENDBRANCH   4  27
BRANCH   2  29
HETATM   29  N2  UNK     1      19.189   3.443  31.031  1.00  0.00    -0.320 N 
HETATM   30  C14 UNK     1      18.377   2.411  30.544  1.00  0.00     0.256 C 
HETATM   31  O4  UNK     1      17.159   2.437  30.401  1.00  0.00    -0.267 OA
HETATM   32  H4  UNK     1      20.194   3.295  31.054  1.00  0.00     0.169 HD
BRANCH  30  33
HETATM   33  C15 UNK     1      19.089   1.155  30.191  1.00  0.00     0.032 A 
HETATM   34  C21 UNK     1      19.719   0.407  31.187  1.00  0.00     0.017 A 
HETATM   35  C28 UNK     1      20.386  -0.772  30.856  1.00  0.00     0.001 A 
HETATM   36  C30 UNK     1      20.425  -1.203  29.529  1.00  0.00     0.000 A 
HETATM   37  C29 UNK     1      19.796  -0.455  28.535  1.00  0.00     0.001 A 
HETATM   38  C22 UNK     1      19.128   0.724  28.865  1.00  0.00     0.017 A 
ENDBRANCH  30  33
ENDBRANCH   2  29
TORSDOF 8
ENDMDL
MODEL 8
REMARK VINA RESULT:      -8.4      2.031      3.177
REMARK  8 active torsions:
REMARK  status: ('A' for Active; 'I' for Inactive)
REMARK    1  A    between atoms: C3_9  and  O1_1 
REMARK    2  A    between atoms: C4_10  and  O2_2 
REMARK    3  A    between atoms: C1_7  and  N1_5 
REMARK       I    between atoms: C8_14  and  N1_5 
REMARK       I    between atoms: C14_20  and  N2_6 
REMARK    4  A    between atoms: C2_8  and  N2_6 
REMARK    5  A    between atoms: C7_13  and  C8_14 
REMARK    6  A    between atoms: C7_13  and  C9_15 
REMARK    7  A    between atoms: C10_16  and  C11_17 
REMARK    8  A    between atoms: C14_20  and  C15_21 
ROOT
HETATM    1  C1  UNK     1      19.379  -1.076  34.461  1.00  0.00     0.071 A 
HETATM    2  C2  UNK     1      19.752  -3.302  36.102  1.00  0.00     0.071 A 
HETATM    3  C3  UNK     1      19.970  -2.231  33.948  1.00  0.00     0.097 A 
HETATM    4  C4  UNK     1      19.160  -2.148  36.616  1.00  0.00     0.097 A 
HETATM    5  C5  UNK     1      18.975  -1.035  35.796  1.00  0.00     0.071 A 
HETATM    6  C6  UNK     1      20.156  -3.343  34.768  1.00  0.00     0.071 A 
ENDROOT
BRANCH   1   7
HETATM    7  N1  UNK     1      19.186   0.063  33.641  1.00  0.00    -0.320 N 
HETATM    8  C8  UNK     1      18.109   0.939  33.653  1.00  0.00     0.257 C 
HETATM    9  O3  UNK     1      17.121   0.878  34.379  1.00  0.00    -0.267 OA
HETATM   10  H3  UNK     1      19.930   0.219  32.966  1.00  0.00     0.169 HD
BRANCH   8  11
HETATM   11  C7  UNK     1      18.239   2.049  32.633  1.00  0.00     0.043 C 
HETATM   12  C10 UNK     1      18.197   3.319  33.114  1.00  0.00     0.029 C 
BRANCH  12  13
HETATM   13  C11 UNK     1      18.343   4.543  32.343  1.00  0.00    -0.035 A 
HETATM   14  C16 UNK     1      19.518   4.781  31.628  1.00  0.00     0.011 A 
HETATM   15  C25 UNK     1      19.658   5.954  30.887  1.00  0.00     0.001 A 
HETATM   16  C27 UNK     1      18.624   6.890  30.861  1.00  0.00     0.000 A 
HETATM   17  C26 UNK     1      17.450   6.652  31.576  1.00  0.00     0.001 A 
HETATM   18  C17 UNK     1      17.309   5.479  32.316  1.00  0.00     0.011 A 
ENDBRANCH  12  13
BRANCH  11  19
HETATM   19  C9  UNK     1      18.435   1.760  31.198  1.00  0.00    -0.021 A 
HETATM   20  C12 UNK     1      17.643   2.398  30.244  1.00  0.00     0.012 A 
HETATM   21  C18 UNK     1      17.828   2.124  28.888  1.00  0.00     0.001 A 
HETATM   22  C20 UNK     1      18.807   1.214  28.488  1.00  0.00     0.000 A 
HETATM   23  C19 UNK     1      19.600   0.577  29.442  1.00  0.00     0.001 A 
HETATM   24  C13 UNK     1      19.414   0.850  30.798  1.00  0.00     0.012 A 
ENDBRANCH  11  19
ENDBRANCH   8  11
ENDBRANCH   1   7
BRANCH   3  25
HETATM   25  O1  UNK     1      20.376  -2.290  32.647  1.00  0.00    -0.354 OA
HETATM   26  C23 UNK     1      21.048  -3.477  32.233  1.00  0.00     0.210 C 
ENDBRANCH   3  25
BRANCH   4  27
HETATM   27  O2  UNK     1      18.759  -2.086  37.917  1.00  0.00    -0.354 OA
HETATM   28  C24 UNK     1      17.930  -0.988  38.288  1.00  0.00     0.210 C 
ENDBRANCH   4  27
BRANCH   2  29
HETATM   29  N2  UNK     1      19.945  -4.424  36.912  1.00  0.00    -0.320 N 
HETATM   30  C14 UNK     1      21.129  -4.845  37.530  1.00  0.00     0.256 C 
HETATM   31  O4  UNK     1      22.225  -4.298  37.473  1.00  0.00    -0.267 OA
HETATM   32  H4  UNK     1      19.096  -4.955  37.084  1.00  0.00     0.169 HD
BRANCH  30  33
HETATM   33  C15 UNK     1      21.024  -6.104  38.313  1.00  0.00     0.032 A 
HETATM   34  C21 UNK     1      22.148  -6.622  38.957  1.00  0.00     0.017 A 
HETATM   35  C28 UNK     1      22.049  -7.804  39.691  1.00  0.00     0.001 A 
HETATM   36  C30 UNK     1      20.825  -8.469  39.780  1.00  0.00     0.000 A 
HETATM   37  C29 UNK     1      19.702  -7.951  39.137  1.00  0.00     0.001 A 
HETATM   38  C22 UNK     1      19.801  -6.770  38.402  1.00  0.00     0.017 A 
ENDBRANCH  30  33
ENDBRANCH   2  29
TORSDOF 8
ENDMDL
MODEL 9
REMARK VINA RESULT:      -8.3     23.759     26.858
REMARK  8 active torsions:
REMARK  status: ('A' for Active; 'I' for Inactive)
REMARK    1  A    between atoms: C3_9  and  O1_1 
REMARK    2  A    between atoms: C4_10  and  O2_2 
REMARK    3  A    between atoms: C1_7  and  N1_5 
REMARK       I    between atoms: C8_14  and  N1_5 
REMARK       I    between atoms: C14_20  and  N2_6 
REMARK    4  A    between atoms: C2_8  and  N2_6 
REMARK    5  A    between atoms: C7_13  and  C8_14 
REMARK    6  A    between atoms: C7_13  and  C9_15 
REMARK    7  A    between atoms: C10_16  and  C11_17 
REMARK    8  A    between atoms: C14_20  and  C15_21 
ROOT
HETATM    1  C1  UNK     1      16.590  10.742  10.160  1.00  0.00     0.071 A 
HETATM    2  C2  UNK     1      14.531   9.297   8.954  1.00  0.00     0.071 A 
HETATM    3  C3  UNK     1      15.812  11.334   9.166  1.00  0.00     0.097 A 
HETATM    4  C4  UNK     1      15.309   8.704   9.948  1.00  0.00     0.097 A 
HETATM    5  C5  UNK     1      16.339   9.426  10.551  1.00  0.00     0.071 A 
HETATM    6  C6  UNK     1      14.782  10.612   8.563  1.00  0.00     0.071 A 
ENDROOT
BRANCH   1   7
HETATM    7  N1  UNK     1      17.641  11.462  10.781  1.00  0.00    -0.320 N 
HETATM    8  C8  UNK     1      18.929  11.656  10.301  1.00  0.00     0.257 C 
HETATM    9  O3  UNK     1      19.392  11.229   9.247  1.00  0.00    -0.267 OA
HETATM   10  H3  UNK     1      17.397  11.853  11.687  1.00  0.00     0.169 HD
BRANCH   8  11
HETATM   11  C7  UNK     1      19.789  12.480  11.233  1.00  0.00     0.043 C 
HETATM   12  C10 UNK     1      19.179  12.966  12.346  1.00  0.00     0.029 C 
BRANCH  12  13
HETATM   13  C11 UNK     1      19.801  13.742  13.406  1.00  0.00    -0.035 A 
HETATM   14  C16 UNK     1      19.960  15.121  13.260  1.00  0.00     0.011 A 
HETATM   15  C25 UNK     1      20.557  15.866  14.277  1.00  0.00     0.001 A 
HETATM   16  C27 UNK     1      20.996  15.232  15.440  1.00  0.00     0.000 A 
HETATM   17  C26 UNK     1      20.837  13.854  15.586  1.00  0.00     0.001 A 
HETATM   18  C17 UNK     1      20.240  13.109  14.570  1.00  0.00     0.011 A 
ENDBRANCH  12  13
BRANCH  11  19
HETATM   19  C9  UNK     1      21.222  12.712  10.961  1.00  0.00    -0.021 A 
HETATM   20  C12 UNK     1      21.611  13.740  10.102  1.00  0.00     0.012 A 
HETATM   21  C18 UNK     1      22.965  13.958   9.844  1.00  0.00     0.001 A 
HETATM   22  C20 UNK     1      23.929  13.149  10.447  1.00  0.00     0.000 A 
HETATM   23  C19 UNK     1      23.540  12.122  11.306  1.00  0.00     0.001 A 
HETATM   24  C13 UNK     1      22.186  11.903  11.564  1.00  0.00     0.012 A 
ENDBRANCH  11  19
ENDBRANCH   8  11
ENDBRANCH   1   7
BRANCH   3  25
HETATM   25  O1  UNK     1      16.043  12.617   8.767  1.00  0.00    -0.354 OA
HETATM   26  C23 UNK     1      16.630  12.799   7.481  1.00  0.00     0.210 C 
ENDBRANCH   3  25
BRANCH   4  27
HETATM   27  O2  UNK     1      15.080   7.421  10.344  1.00  0.00    -0.354 OA
HETATM   28  C24 UNK     1      16.032   6.439   9.942  1.00  0.00     0.210 C 
ENDBRANCH   4  27
BRANCH   2  29
HETATM   29  N2  UNK     1      13.497   8.585   8.340  1.00  0.00    -0.320 N 
HETATM   30  C14 UNK     1      12.243   8.258   8.873  1.00  0.00     0.256 C 
HETATM   31  O4  UNK     1      11.820   8.542   9.989  1.00  0.00    -0.267 OA
HETATM   32  H4  UNK     1      13.696   8.320   7.380  1.00  0.00     0.169 HD
BRANCH  30  33
HETATM   33  C15 UNK     1      11.362   7.462   7.980  1.00  0.00     0.032 A 
HETATM   34  C21 UNK     1      11.874   6.911   6.805  1.00  0.00     0.017 A 
HETATM   35  C28 UNK     1      11.046   6.163   5.967  1.00  0.00     0.001 A 
HETATM   36  C30 UNK     1       9.706   5.968   6.304  1.00  0.00     0.000 A 
HETATM   37  C29 UNK     1       9.195   6.518   7.478  1.00  0.00     0.001 A 
HETATM   38  C22 UNK     1      10.022   7.266   8.316  1.00  0.00     0.017 A 
ENDBRANCH  30  33
ENDBRANCH   2  29
TORSDOF 8
ENDMDL
MODEL 10
REMARK VINA RESULT:      -8.3     24.708     27.267
REMARK  8 active torsions:
REMARK  status: ('A' for Active; 'I' for Inactive)
REMARK    1  A    between atoms: C3_9  and  O1_1 
REMARK    2  A    between atoms: C4_10  and  O2_2 
REMARK    3  A    between atoms: C1_7  and  N1_5 
REMARK       I    between atoms: C8_14  and  N1_5 
REMARK       I    between atoms: C14_20  and  N2_6 
REMARK    4  A    between atoms: C2_8  and  N2_6 
REMARK    5  A    between atoms: C7_13  and  C8_14 
REMARK    6  A    between atoms: C7_13  and  C9_15 
REMARK    7  A    between atoms: C10_16  and  C11_17 
REMARK    8  A    between atoms: C14_20  and  C15_21 
ROOT
HETATM    1  C1  UNK     1      16.485  10.431   9.709  1.00  0.00     0.071 A 
HETATM    2  C2  UNK     1      14.180   9.047   8.965  1.00  0.00     0.071 A 
HETATM    3  C3  UNK     1      15.713  10.886   8.641  1.00  0.00     0.097 A 
HETATM    4  C4  UNK     1      14.952   8.592  10.034  1.00  0.00     0.097 A 
HETATM    5  C5  UNK     1      16.105   9.284  10.406  1.00  0.00     0.071 A 
HETATM    6  C6  UNK     1      14.560  10.194   8.269  1.00  0.00     0.071 A 
ENDROOT
BRANCH   1   7
HETATM    7  N1  UNK     1      17.660  11.122  10.098  1.00  0.00    -0.320 N 
HETATM    8  C8  UNK     1      17.753  12.227  10.933  1.00  0.00     0.257 C 
HETATM    9  O3  UNK     1      16.824  12.810  11.484  1.00  0.00    -0.267 OA
HETATM   10  H3  UNK     1      18.513  10.752   9.686  1.00  0.00     0.169 HD
BRANCH   8  11
HETATM   11  C7  UNK     1      19.176  12.703  11.127  1.00  0.00     0.043 C 
HETATM   12  C10 UNK     1      19.564  12.941  12.407  1.00  0.00     0.029 C 
BRANCH  12  13
HETATM   13  C11 UNK     1      20.884  13.361  12.848  1.00  0.00    -0.035 A 
HETATM   14  C16 UNK     1      21.258  14.702  12.754  1.00  0.00     0.011 A 
HETATM   15  C25 UNK     1      22.524  15.106  13.177  1.00  0.00     0.001 A 
HETATM   16  C27 UNK     1      23.418  14.166  13.693  1.00  0.00     0.000 A 
HETATM   17  C26 UNK     1      23.045  12.826  13.786  1.00  0.00     0.001 A 
HETATM   18  C17 UNK     1      21.779  12.423  13.364  1.00  0.00     0.011 A 
ENDBRANCH  12  13
BRANCH  11  19
HETATM   19  C9  UNK     1      20.098  12.866   9.985  1.00  0.00    -0.021 A 
HETATM   20  C12 UNK     1      20.016  14.001   9.178  1.00  0.00     0.012 A 
HETATM   21  C18 UNK     1      20.888  14.154   8.099  1.00  0.00     0.001 A 
HETATM   22  C20 UNK     1      21.841  13.171   7.829  1.00  0.00     0.000 A 
HETATM   23  C19 UNK     1      21.923  12.037   8.635  1.00  0.00     0.001 A 
HETATM   24  C13 UNK     1      21.051  11.884   9.714  1.00  0.00     0.012 A 
ENDBRANCH  11  19
ENDBRANCH   8  11
ENDBRANCH   1   7
BRANCH   3  25
HETATM   25  O1  UNK     1      16.069  12.003   7.945  1.00  0.00    -0.354 OA
HETATM   26  C23 UNK     1      15.225  13.144   8.077  1.00  0.00     0.210 C 
ENDBRANCH   3  25
BRANCH   4  27
HETATM   27  O2  UNK     1      14.598   7.473  10.727  1.00  0.00    -0.354 OA
HETATM   28  C24 UNK     1      15.317   6.277  10.437  1.00  0.00     0.210 C 
ENDBRANCH   4  27
BRANCH   2  29
HETATM   29  N2  UNK     1      13.023   8.364   8.581  1.00  0.00    -0.320 N 
HETATM   30  C14 UNK     1      12.886   7.407   7.568  1.00  0.00     0.256 C 
HETATM   31  O4  UNK     1      13.768   6.989   6.824  1.00  0.00    -0.267 OA
HETATM   32  H4  UNK     1      12.211   8.584   9.149  1.00  0.00     0.169 HD
BRANCH  30  33
HETATM   33  C15 UNK     1      11.511   6.876   7.377  1.00  0.00     0.032 A 
HETATM   34  C21 UNK     1      11.011   6.679   6.090  1.00  0.00     0.017 A 
HETATM   35  C28 UNK     1       9.720   6.181   5.912  1.00  0.00     0.001 A 
HETATM   36  C30 UNK     1       8.929   5.880   7.021  1.00  0.00     0.000 A 
HETATM   37  C29 UNK     1       9.429   6.077   8.308  1.00  0.00     0.001 A 
HETATM   38  C22 UNK     1      10.719   6.575   8.486  1.00  0.00     0.017 A 
ENDBRANCH  30  33
ENDBRANCH   2  29
TORSDOF 8
ENDMDL
