MODEL 1
REMARK VINA RESULT:      -9.5      0.000      0.000
REMARK  3 active torsions:
REMARK  status: ('A' for Active; 'I' for Inactive)
REMARK    1  A    between atoms: C5_10  and  N1_4 
REMARK       I    between atoms: C6_11  and  N2_5 
REMARK    2  A    between atoms: C5_10  and  C7_12 
REMARK    3  A    between atoms: C6_11  and  C8_13 
ROOT
HETATM    1  O1  UNK     1      16.764  -0.800  35.186  1.00  0.00    -0.267 OA
HETATM    2  N1  UNK     1      20.501  -3.331  37.305  1.00  0.00     0.095 N 
HETATM    3  N2  UNK     1      18.903  -1.532  35.736  1.00  0.00    -0.344 N 
HETATM    4  C1  UNK     1      20.822  -3.098  35.891  1.00  0.00     0.292 C 
HETATM    5  C2  UNK     1      19.050  -3.249  37.516  1.00  0.00     0.292 C 
HETATM    6  C3  UNK     1      20.325  -1.726  35.426  1.00  0.00     0.156 C 
HETATM    7  C4  UNK     1      18.527  -1.874  37.109  1.00  0.00     0.156 C 
HETATM    8  C6  UNK     1      17.953  -0.950  34.900  1.00  0.00     0.260 C 
ENDROOT
BRANCH   8   9
HETATM    9  C8  UNK     1      18.404  -0.472  33.577  1.00  0.00     0.108 A 
HETATM   10  C11 UNK     1      19.013  -1.373  32.798  1.00  0.00     0.037 A 
HETATM   11  C13 UNK     1      19.493  -0.996  31.478  1.00  0.00    -0.001 A 
HETATM   12  C16 UNK     1      19.309   0.312  31.044  1.00  0.00     0.089 A 
HETATM   13  C18 UNK     1      20.134  -1.903  30.631  1.00  0.00     0.014 A 
HETATM   14  O2  UNK     1      18.666   1.257  31.868  1.00  0.00    -0.274 OA
HETATM   15  C19 UNK     1      19.746   0.738  29.791  1.00  0.00     0.038 A 
HETATM   16  C12 UNK     1      18.196   0.926  33.135  1.00  0.00     0.304 A 
HETATM   17  O3  UNK     1      17.639   1.755  33.847  1.00  0.00    -0.259 OA
HETATM   18  C21 UNK     1      20.384  -0.173  28.952  1.00  0.00     0.003 A 
HETATM   19  C20 UNK     1      20.578  -1.491  29.371  1.00  0.00     0.001 A 
ENDBRANCH   8   9
BRANCH   2  20
HETATM   20  C5  UNK     1      21.012  -4.631  37.740  1.00  0.00     0.311 C 
BRANCH  20  21
HETATM   21  C7  UNK     1      20.152  -5.764  37.249  1.00  0.00    -0.030 A 
HETATM   22  C10 UNK     1      20.041  -5.997  35.885  1.00  0.00     0.009 A 
HETATM   23  C15 UNK     1      19.245  -7.048  35.431  1.00  0.00     0.001 A 
HETATM   24  C17 UNK     1      18.567  -7.856  36.344  1.00  0.00     0.000 A 
HETATM   25  C14 UNK     1      18.686  -7.612  37.713  1.00  0.00     0.001 A 
HETATM   26  C9  UNK     1      19.483  -6.561  38.167  1.00  0.00     0.009 A 
ENDBRANCH  20  21
ENDBRANCH   2  20
TORSDOF 3
ENDMDL
MODEL 2
REMARK VINA RESULT:      -9.5     27.234     29.166
REMARK  3 active torsions:
REMARK  status: ('A' for Active; 'I' for Inactive)
REMARK    1  A    between atoms: C5_10  and  N1_4 
REMARK       I    between atoms: C6_11  and  N2_5 
REMARK    2  A    between atoms: C5_10  and  C7_12 
REMARK    3  A    between atoms: C6_11  and  C8_13 
ROOT
HETATM    1  O1  UNK     1      15.504   6.323   9.670  1.00  0.00    -0.267 OA
HETATM    2  N1  UNK     1      16.924  11.057   9.022  1.00  0.00     0.095 N 
HETATM    3  N2  UNK     1      15.443   8.641   9.490  1.00  0.00    -0.344 N 
HETATM    4  C1  UNK     1      15.612  10.862   8.394  1.00  0.00     0.292 C 
HETATM    5  C2  UNK     1      17.622   9.771   9.152  1.00  0.00     0.292 C 
HETATM    6  C3  UNK     1      14.742   9.901   9.210  1.00  0.00     0.156 C 
HETATM    7  C4  UNK     1      16.804   8.804  10.004  1.00  0.00     0.156 C 
HETATM    8  C6  UNK     1      14.891   7.364   9.430  1.00  0.00     0.260 C 
ENDROOT
BRANCH   8   9
HETATM    9  C8  UNK     1      13.466   7.249   9.059  1.00  0.00     0.108 A 
HETATM   10  C11 UNK     1      13.209   6.818   7.819  1.00  0.00     0.037 A 
HETATM   11  C13 UNK     1      11.836   6.674   7.361  1.00  0.00    -0.001 A 
HETATM   12  C16 UNK     1      10.800   6.991   8.232  1.00  0.00     0.089 A 
HETATM   13  C18 UNK     1      11.523   6.227   6.075  1.00  0.00     0.014 A 
HETATM   14  O2  UNK     1      11.076   7.444   9.537  1.00  0.00    -0.274 OA
HETATM   15  C19 UNK     1       9.463   6.875   7.856  1.00  0.00     0.038 A 
HETATM   16  C12 UNK     1      12.378   7.592  10.004  1.00  0.00     0.304 A 
HETATM   17  O3  UNK     1      12.609   7.989  11.141  1.00  0.00    -0.259 OA
HETATM   18  C21 UNK     1       9.159   6.429   6.571  1.00  0.00     0.003 A 
HETATM   19  C20 UNK     1      10.187   6.105   5.683  1.00  0.00     0.001 A 
ENDBRANCH   8   9
BRANCH   2  20
HETATM   20  C5  UNK     1      17.729  12.003   8.248  1.00  0.00     0.311 C 
BRANCH  20  21
HETATM   21  C7  UNK     1      19.131  12.115   8.781  1.00  0.00    -0.030 A 
HETATM   22  C10 UNK     1      20.206  11.893   7.931  1.00  0.00     0.009 A 
HETATM   23  C15 UNK     1      21.506  11.998   8.426  1.00  0.00     0.001 A 
HETATM   24  C17 UNK     1      21.719  12.324   9.765  1.00  0.00     0.000 A 
HETATM   25  C14 UNK     1      20.631  12.545  10.610  1.00  0.00     0.001 A 
HETATM   26  C9  UNK     1      19.332  12.441  10.115  1.00  0.00     0.009 A 
ENDBRANCH  20  21
ENDBRANCH   2  20
TORSDOF 3
ENDMDL
MODEL 3
REMARK VINA RESULT:      -9.3     27.438     30.235
REMARK  3 active torsions:
REMARK  status: ('A' for Active; 'I' for Inactive)
REMARK    1  A    between atoms: C5_10  and  N1_4 
REMARK       I    between atoms: C6_11  and  N2_5 
REMARK    2  A    between atoms: C5_10  and  C7_12 
REMARK    3  A    between atoms: C6_11  and  C8_13 
ROOT
HETATM    1  O1  UNK     1      15.852   7.037   9.851  1.00  0.00    -0.267 OA
HETATM    2  N1  UNK     1      16.864  11.685   8.357  1.00  0.00     0.095 N 
HETATM    3  N2  UNK     1      15.595   9.276   9.272  1.00  0.00    -0.344 N 
HETATM    4  C1  UNK     1      15.566  11.277   7.803  1.00  0.00     0.292 C 
HETATM    5  C2  UNK     1      17.668  10.502   8.691  1.00  0.00     0.292 C 
HETATM    6  C3  UNK     1      14.788  10.406   8.794  1.00  0.00     0.156 C 
HETATM    7  C4  UNK     1      16.942   9.636   9.717  1.00  0.00     0.156 C 
HETATM    8  C6  UNK     1      15.151   7.967   9.448  1.00  0.00     0.260 C 
ENDROOT
BRANCH   8   9
HETATM    9  C8  UNK     1      13.738   7.674   9.137  1.00  0.00     0.108 A 
HETATM   10  C11 UNK     1      13.483   7.227   7.902  1.00  0.00     0.037 A 
HETATM   11  C13 UNK     1      12.121   6.912   7.502  1.00  0.00    -0.001 A 
HETATM   12  C16 UNK     1      11.093   7.084   8.422  1.00  0.00     0.089 A 
HETATM   13  C18 UNK     1      11.810   6.441   6.224  1.00  0.00     0.014 A 
HETATM   14  O2  UNK     1      11.366   7.556   9.721  1.00  0.00    -0.274 OA
HETATM   15  C19 UNK     1       9.766   6.802   8.102  1.00  0.00     0.038 A 
HETATM   16  C12 UNK     1      12.659   7.865  10.134  1.00  0.00     0.304 A 
HETATM   17  O3  UNK     1      12.888   8.277  11.265  1.00  0.00    -0.259 OA
HETATM   18  C21 UNK     1       9.465   6.333   6.825  1.00  0.00     0.003 A 
HETATM   19  C20 UNK     1      10.484   6.153   5.888  1.00  0.00     0.001 A 
ENDBRANCH   8   9
BRANCH   2  20
HETATM   20  C5  UNK     1      17.578  12.543   7.410  1.00  0.00     0.311 C 
BRANCH  20  21
HETATM   21  C7  UNK     1      17.009  13.936   7.376  1.00  0.00    -0.030 A 
HETATM   22  C10 UNK     1      16.647  14.496   6.158  1.00  0.00     0.009 A 
HETATM   23  C15 UNK     1      16.120  15.787   6.127  1.00  0.00     0.001 A 
HETATM   24  C17 UNK     1      15.959  16.505   7.312  1.00  0.00     0.000 A 
HETATM   25  C14 UNK     1      16.326  15.931   8.530  1.00  0.00     0.001 A 
HETATM   26  C9  UNK     1      16.853  14.640   8.561  1.00  0.00     0.009 A 
ENDBRANCH  20  21
ENDBRANCH   2  20
TORSDOF 3
ENDMDL
MODEL 4
REMARK VINA RESULT:      -9.3     26.565     28.539
REMARK  3 active torsions:
REMARK  status: ('A' for Active; 'I' for Inactive)
REMARK    1  A    between atoms: C5_10  and  N1_4 
REMARK       I    between atoms: C6_11  and  N2_5 
REMARK    2  A    between atoms: C5_10  and  C7_12 
REMARK    3  A    between atoms: C6_11  and  C8_13 
ROOT
HETATM    1  O1  UNK     1      17.372   7.322  10.843  1.00  0.00    -0.267 OA
HETATM    2  N1  UNK     1      12.974   5.936   8.948  1.00  0.00     0.095 N 
HETATM    3  N2  UNK     1      15.416   7.308   9.583  1.00  0.00    -0.344 N 
HETATM    4  C1  UNK     1      12.976   7.393   9.135  1.00  0.00     0.292 C 
HETATM    5  C2  UNK     1      13.971   5.310   9.826  1.00  0.00     0.292 C 
HETATM    6  C3  UNK     1      14.354   7.989   8.833  1.00  0.00     0.156 C 
HETATM    7  C4  UNK     1      15.367   5.846   9.517  1.00  0.00     0.156 C 
HETATM    8  C6  UNK     1      16.495   7.920  10.218  1.00  0.00     0.260 C 
ENDROOT
BRANCH   8   9
HETATM    9  C8  UNK     1      16.598   9.390  10.131  1.00  0.00     0.108 A 
HETATM   10  C11 UNK     1      17.476   9.870   9.242  1.00  0.00     0.037 A 
HETATM   11  C13 UNK     1      17.650  11.305   9.083  1.00  0.00    -0.001 A 
HETATM   12  C16 UNK     1      16.891  12.165   9.870  1.00  0.00     0.089 A 
HETATM   13  C18 UNK     1      18.554  11.849   8.168  1.00  0.00     0.014 A 
HETATM   14  O2  UNK     1      15.968  11.655  10.803  1.00  0.00    -0.274 OA
HETATM   15  C19 UNK     1      17.010  13.550   9.768  1.00  0.00     0.038 A 
HETATM   16  C12 UNK     1      15.779  10.287  10.978  1.00  0.00     0.304 A 
HETATM   17  O3  UNK     1      14.975   9.852  11.794  1.00  0.00    -0.259 OA
HETATM   18  C21 UNK     1      17.914  14.085   8.852  1.00  0.00     0.003 A 
HETATM   19  C20 UNK     1      18.685  13.236   8.054  1.00  0.00     0.001 A 
ENDBRANCH   8   9
BRANCH   2  20
HETATM   20  C5  UNK     1      11.642   5.388   9.209  1.00  0.00     0.311 C 
BRANCH  20  21
HETATM   21  C7  UNK     1      10.654   5.786   8.146  1.00  0.00    -0.030 A 
HETATM   22  C10 UNK     1      11.050   5.803   6.816  1.00  0.00     0.009 A 
HETATM   23  C15 UNK     1      10.134   6.171   5.831  1.00  0.00     0.001 A 
HETATM   24  C17 UNK     1       8.830   6.518   6.186  1.00  0.00     0.000 A 
HETATM   25  C14 UNK     1       8.443   6.497   7.526  1.00  0.00     0.001 A 
HETATM   26  C9  UNK     1       9.360   6.129   8.510  1.00  0.00     0.009 A 
ENDBRANCH  20  21
ENDBRANCH   2  20
TORSDOF 3
ENDMDL
MODEL 5
REMARK VINA RESULT:      -9.2     26.875     28.689
REMARK  3 active torsions:
REMARK  status: ('A' for Active; 'I' for Inactive)
REMARK    1  A    between atoms: C5_10  and  N1_4 
REMARK       I    between atoms: C6_11  and  N2_5 
REMARK    2  A    between atoms: C5_10  and  C7_12 
REMARK    3  A    between atoms: C6_11  and  C8_13 
ROOT
HETATM    1  O1  UNK     1      15.455   5.436   8.907  1.00  0.00    -0.267 OA
HETATM    2  N1  UNK     1      16.344  10.268   9.757  1.00  0.00     0.095 N 
HETATM    3  N2  UNK     1      15.153   7.667   9.494  1.00  0.00    -0.344 N 
HETATM    4  C1  UNK     1      15.004  10.124   9.172  1.00  0.00     0.292 C 
HETATM    5  C2  UNK     1      17.172   9.102   9.422  1.00  0.00     0.292 C 
HETATM    6  C3  UNK     1      14.311   8.855   9.678  1.00  0.00     0.156 C 
HETATM    7  C4  UNK     1      16.533   7.822   9.956  1.00  0.00     0.156 C 
HETATM    8  C6  UNK     1      14.724   6.417   9.052  1.00  0.00     0.260 C 
ENDROOT
BRANCH   8   9
HETATM    9  C8  UNK     1      13.290   6.254   8.745  1.00  0.00     0.108 A 
HETATM   10  C11 UNK     1      12.911   6.572   7.502  1.00  0.00     0.037 A 
HETATM   11  C13 UNK     1      11.517   6.445   7.104  1.00  0.00    -0.001 A 
HETATM   12  C16 UNK     1      10.591   5.989   8.035  1.00  0.00     0.089 A 
HETATM   13  C18 UNK     1      11.078   6.765   5.817  1.00  0.00     0.014 A 
HETATM   14  O2  UNK     1      10.995   5.655   9.343  1.00  0.00    -0.274 OA
HETATM   15  C19 UNK     1       9.242   5.845   7.719  1.00  0.00     0.038 A 
HETATM   16  C12 UNK     1      12.320   5.766   9.753  1.00  0.00     0.304 A 
HETATM   17  O3  UNK     1      12.663   5.475  10.893  1.00  0.00    -0.259 OA
HETATM   18  C21 UNK     1       8.811   6.167   6.433  1.00  0.00     0.003 A 
HETATM   19  C20 UNK     1       9.727   6.626   5.484  1.00  0.00     0.001 A 
ENDBRANCH   8   9
BRANCH   2  20
HETATM   20  C5  UNK     1      16.978  11.500   9.288  1.00  0.00     0.311 C 
BRANCH  20  21
HETATM   21  C7  UNK     1      18.065  11.961  10.221  1.00  0.00    -0.030 A 
HETATM   22  C10 UNK     1      17.726  12.628  11.391  1.00  0.00     0.009 A 
HETATM   23  C15 UNK     1      18.734  13.054  12.255  1.00  0.00     0.001 A 
HETATM   24  C17 UNK     1      20.071  12.810  11.942  1.00  0.00     0.000 A 
HETATM   25  C14 UNK     1      20.400  12.140  10.764  1.00  0.00     0.001 A 
HETATM   26  C9  UNK     1      19.392  11.713   9.900  1.00  0.00     0.009 A 
ENDBRANCH  20  21
ENDBRANCH   2  20
TORSDOF 3
ENDMDL
MODEL 6
REMARK VINA RESULT:      -9.2     26.742     28.426
REMARK  3 active torsions:
REMARK  status: ('A' for Active; 'I' for Inactive)
REMARK    1  A    between atoms: C5_10  and  N1_4 
REMARK       I    between atoms: C6_11  and  N2_5 
REMARK    2  A    between atoms: C5_10  and  C7_12 
REMARK    3  A    between atoms: C6_11  and  C8_13 
ROOT
HETATM    1  O1  UNK     1      11.618   6.859   6.000  1.00  0.00    -0.267 OA
HETATM    2  N1  UNK     1       7.945   5.393   9.038  1.00  0.00     0.095 N 
HETATM    3  N2  UNK     1      10.380   6.434   7.924  1.00  0.00    -0.344 N 
HETATM    4  C1  UNK     1       9.237   5.083   9.664  1.00  0.00     0.292 C 
HETATM    5  C2  UNK     1       8.104   5.516   7.582  1.00  0.00     0.292 C 
HETATM    6  C3  UNK     1      10.275   6.168   9.364  1.00  0.00     0.156 C 
HETATM    7  C4  UNK     1       9.097   6.626   7.246  1.00  0.00     0.156 C 
HETATM    8  C6  UNK     1      11.559   6.637   7.211  1.00  0.00     0.260 C 
ENDROOT
BRANCH   8   9
HETATM    9  C8  UNK     1      12.831   6.593   7.960  1.00  0.00     0.108 A 
HETATM   10  C11 UNK     1      13.395   7.773   8.241  1.00  0.00     0.037 A 
HETATM   11  C13 UNK     1      14.649   7.831   8.975  1.00  0.00    -0.001 A 
HETATM   12  C16 UNK     1      15.249   6.643   9.376  1.00  0.00     0.089 A 
HETATM   13  C18 UNK     1      15.273   9.041   9.289  1.00  0.00     0.014 A 
HETATM   14  O2  UNK     1      14.651   5.403   9.079  1.00  0.00    -0.274 OA
HETATM   15  C19 UNK     1      16.451   6.629  10.082  1.00  0.00     0.038 A 
HETATM   16  C12 UNK     1      13.451   5.314   8.379  1.00  0.00     0.304 A 
HETATM   17  O3  UNK     1      12.939   4.231   8.123  1.00  0.00    -0.259 OA
HETATM   18  C21 UNK     1      17.066   7.840  10.392  1.00  0.00     0.003 A 
HETATM   19  C20 UNK     1      16.478   9.044   9.996  1.00  0.00     0.001 A 
ENDBRANCH   8   9
BRANCH   2  20
HETATM   20  C5  UNK     1       6.958   4.364   9.362  1.00  0.00     0.311 C 
BRANCH  20  21
HETATM   21  C7  UNK     1       6.113   4.750  10.546  1.00  0.00    -0.030 A 
HETATM   22  C10 UNK     1       5.613   3.759  11.381  1.00  0.00     0.009 A 
HETATM   23  C15 UNK     1       4.831   4.117  12.479  1.00  0.00     0.001 A 
HETATM   24  C17 UNK     1       4.557   5.462  12.732  1.00  0.00     0.000 A 
HETATM   25  C14 UNK     1       5.064   6.448  11.886  1.00  0.00     0.001 A 
HETATM   26  C9  UNK     1       5.847   6.089  10.789  1.00  0.00     0.009 A 
ENDBRANCH  20  21
ENDBRANCH   2  20
TORSDOF 3
ENDMDL
MODEL 7
REMARK VINA RESULT:      -9.1     26.675     29.084
REMARK  3 active torsions:
REMARK  status: ('A' for Active; 'I' for Inactive)
REMARK    1  A    between atoms: C5_10  and  N1_4 
REMARK       I    between atoms: C6_11  and  N2_5 
REMARK    2  A    between atoms: C5_10  and  C7_12 
REMARK    3  A    between atoms: C6_11  and  C8_13 
ROOT
HETATM    1  O1  UNK     1      15.367   5.507   8.349  1.00  0.00    -0.267 OA
HETATM    2  N1  UNK     1      16.132   9.809  10.750  1.00  0.00     0.095 N 
HETATM    3  N2  UNK     1      15.027   7.380   9.687  1.00  0.00    -0.344 N 
HETATM    4  C1  UNK     1      14.755   9.784  10.241  1.00  0.00     0.292 C 
HETATM    5  C2  UNK     1      16.975   8.884   9.981  1.00  0.00     0.292 C 
HETATM    6  C3  UNK     1      14.157   8.377  10.323  1.00  0.00     0.156 C 
HETATM    7  C4  UNK     1      16.434   7.459  10.083  1.00  0.00     0.156 C 
HETATM    8  C6  UNK     1      14.613   6.329   8.871  1.00  0.00     0.260 C 
ENDROOT
BRANCH   8   9
HETATM    9  C8  UNK     1      13.165   6.186   8.620  1.00  0.00     0.108 A 
HETATM   10  C11 UNK     1      12.735   6.555   7.408  1.00  0.00     0.037 A 
HETATM   11  C13 UNK     1      11.325   6.451   7.067  1.00  0.00    -0.001 A 
HETATM   12  C16 UNK     1      10.436   5.965   8.019  1.00  0.00     0.089 A 
HETATM   13  C18 UNK     1      10.832   6.824   5.814  1.00  0.00     0.014 A 
HETATM   14  O2  UNK     1      10.894   5.578   9.294  1.00  0.00    -0.274 OA
HETATM   15  C19 UNK     1       9.073   5.841   7.756  1.00  0.00     0.038 A 
HETATM   16  C12 UNK     1      12.237   5.665   9.650  1.00  0.00     0.304 A 
HETATM   17  O3  UNK     1      12.626   5.328  10.762  1.00  0.00    -0.259 OA
HETATM   18  C21 UNK     1       8.590   6.216   6.504  1.00  0.00     0.003 A 
HETATM   19  C20 UNK     1       9.468   6.706   5.535  1.00  0.00     0.001 A 
ENDBRANCH   8   9
BRANCH   2  20
HETATM   20  C5  UNK     1      16.675  11.167  10.694  1.00  0.00     0.311 C 
BRANCH  20  21
HETATM   21  C7  UNK     1      17.277  11.475   9.350  1.00  0.00    -0.030 A 
HETATM   22  C10 UNK     1      16.451  11.875   8.307  1.00  0.00     0.009 A 
HETATM   23  C15 UNK     1      17.009  12.162   7.061  1.00  0.00     0.001 A 
HETATM   24  C17 UNK     1      18.386  12.046   6.869  1.00  0.00     0.000 A 
HETATM   25  C14 UNK     1      19.205  11.643   7.924  1.00  0.00     0.001 A 
HETATM   26  C9  UNK     1      18.647  11.357   9.170  1.00  0.00     0.009 A 
ENDBRANCH  20  21
ENDBRANCH   2  20
TORSDOF 3
ENDMDL
MODEL 8
REMARK VINA RESULT:      -9.1      5.256      8.046
REMARK  3 active torsions:
REMARK  status: ('A' for Active; 'I' for Inactive)
REMARK    1  A    between atoms: C5_10  and  N1_4 
REMARK       I    between atoms: C6_11  and  N2_5 
REMARK    2  A    between atoms: C5_10  and  C7_12 
REMARK    3  A    between atoms: C6_11  and  C8_13 
ROOT
HETATM    1  O1  UNK     1      19.456   5.192  29.708  1.00  0.00    -0.267 OA
HETATM    2  N1  UNK     1      18.406   1.058  32.290  1.00  0.00     0.095 N 
HETATM    3  N2  UNK     1      18.526   3.741  31.271  1.00  0.00    -0.344 N 
HETATM    4  C1  UNK     1      18.461   2.197  33.214  1.00  0.00     0.292 C 
HETATM    5  C2  UNK     1      19.168   1.356  31.070  1.00  0.00     0.292 C 
HETATM    6  C3  UNK     1      17.895   3.465  32.568  1.00  0.00     0.156 C 
HETATM    7  C4  UNK     1      18.597   2.588  30.372  1.00  0.00     0.156 C 
HETATM    8  C6  UNK     1      18.927   4.990  30.803  1.00  0.00     0.260 C 
ENDROOT
BRANCH   8   9
HETATM    9  C8  UNK     1      18.695   6.157  31.676  1.00  0.00     0.108 A 
HETATM   10  C11 UNK     1      17.487   6.726  31.596  1.00  0.00     0.037 A 
HETATM   11  C13 UNK     1      17.164   7.882  32.418  1.00  0.00    -0.001 A 
HETATM   12  C16 UNK     1      18.131   8.383  33.283  1.00  0.00     0.089 A 
HETATM   13  C18 UNK     1      15.916   8.507  32.367  1.00  0.00     0.014 A 
HETATM   14  O2  UNK     1      19.401   7.781  33.363  1.00  0.00    -0.274 OA
HETATM   15  C19 UNK     1      17.886   9.488  34.096  1.00  0.00     0.038 A 
HETATM   16  C12 UNK     1      19.740   6.674  32.591  1.00  0.00     0.304 A 
HETATM   17  O3  UNK     1      20.848   6.157  32.666  1.00  0.00    -0.259 OA
HETATM   18  C21 UNK     1      16.638  10.106  34.039  1.00  0.00     0.003 A 
HETATM   19  C20 UNK     1      15.654   9.616  33.177  1.00  0.00     0.001 A 
ENDBRANCH   8   9
BRANCH   2  20
HETATM   20  C5  UNK     1      18.921  -0.151  32.934  1.00  0.00     0.311 C 
BRANCH  20  21
HETATM   21  C7  UNK     1      18.269  -0.396  34.269  1.00  0.00    -0.030 A 
HETATM   22  C10 UNK     1      19.062  -0.598  35.390  1.00  0.00     0.009 A 
HETATM   23  C15 UNK     1      18.458  -0.824  36.627  1.00  0.00     0.001 A 
HETATM   24  C17 UNK     1      17.067  -0.846  36.731  1.00  0.00     0.000 A 
HETATM   25  C14 UNK     1      16.280  -0.641  35.597  1.00  0.00     0.001 A 
HETATM   26  C9  UNK     1      16.885  -0.415  34.361  1.00  0.00     0.009 A 
ENDBRANCH  20  21
ENDBRANCH   2  20
TORSDOF 3
ENDMDL
MODEL 9
REMARK VINA RESULT:      -9.1     26.831     28.922
REMARK  3 active torsions:
REMARK  status: ('A' for Active; 'I' for Inactive)
REMARK    1  A    between atoms: C5_10  and  N1_4 
REMARK       I    between atoms: C6_11  and  N2_5 
REMARK    2  A    between atoms: C5_10  and  C7_12 
REMARK    3  A    between atoms: C6_11  and  C8_13 
ROOT
HETATM    1  O1  UNK     1      14.677   5.597   9.644  1.00  0.00    -0.267 OA
HETATM    2  N1  UNK     1      16.490  10.238   9.472  1.00  0.00     0.095 N 
HETATM    3  N2  UNK     1      14.807   7.911   9.437  1.00  0.00    -0.344 N 
HETATM    4  C1  UNK     1      15.453  10.092   8.444  1.00  0.00     0.292 C 
HETATM    5  C2  UNK     1      17.034   8.923   9.836  1.00  0.00     0.292 C 
HETATM    6  C3  UNK     1      14.310   9.196   8.931  1.00  0.00     0.156 C 
HETATM    7  C4  UNK     1      15.927   8.018  10.374  1.00  0.00     0.156 C 
HETATM    8  C6  UNK     1      14.237   6.661   9.206  1.00  0.00     0.260 C 
ENDROOT
BRANCH   8   9
HETATM    9  C8  UNK     1      13.012   6.608   8.383  1.00  0.00     0.108 A 
HETATM   10  C11 UNK     1      11.862   6.437   9.044  1.00  0.00     0.037 A 
HETATM   11  C13 UNK     1      10.602   6.371   8.319  1.00  0.00    -0.001 A 
HETATM   12  C16 UNK     1      10.616   6.487   6.934  1.00  0.00     0.089 A 
HETATM   13  C18 UNK     1       9.378   6.195   8.969  1.00  0.00     0.014 A 
HETATM   14  O2  UNK     1      11.830   6.667   6.243  1.00  0.00    -0.274 OA
HETATM   15  C19 UNK     1       9.445   6.432   6.181  1.00  0.00     0.038 A 
HETATM   16  C12 UNK     1      13.051   6.734   6.907  1.00  0.00     0.304 A 
HETATM   17  O3  UNK     1      14.103   6.889   6.298  1.00  0.00    -0.259 OA
HETATM   18  C21 UNK     1       8.228   6.256   6.836  1.00  0.00     0.003 A 
HETATM   19  C20 UNK     1       8.194   6.138   8.227  1.00  0.00     0.001 A 
ENDBRANCH   8   9
BRANCH   2  20
HETATM   20  C5  UNK     1      17.557  11.123   9.003  1.00  0.00     0.311 C 
BRANCH  20  21
HETATM   21  C7  UNK     1      18.249  11.821  10.143  1.00  0.00    -0.030 A 
HETATM   22  C10 UNK     1      19.634  11.771  10.235  1.00  0.00     0.009 A 
HETATM   23  C15 UNK     1      20.275  12.418  11.290  1.00  0.00     0.001 A 
HETATM   24  C17 UNK     1      19.527  13.109  12.244  1.00  0.00     0.000 A 
HETATM   25  C14 UNK     1      18.136  13.152  12.141  1.00  0.00     0.001 A 
HETATM   26  C9  UNK     1      17.495  12.505  11.085  1.00  0.00     0.009 A 
ENDBRANCH  20  21
ENDBRANCH   2  20
TORSDOF 3
ENDMDL
MODEL 10
REMARK VINA RESULT:      -9.1     11.921     13.587
REMARK  3 active torsions:
REMARK  status: ('A' for Active; 'I' for Inactive)
REMARK    1  A    between atoms: C5_10  and  N1_4 
REMARK       I    between atoms: C6_11  and  N2_5 
REMARK    2  A    between atoms: C5_10  and  C7_12 
REMARK    3  A    between atoms: C6_11  and  C8_13 
ROOT
HETATM    1  O1  UNK     1      32.365  -3.099  36.410  1.00  0.00    -0.267 OA
HETATM    2  N1  UNK     1      28.926  -6.032  38.514  1.00  0.00     0.095 N 
HETATM    3  N2  UNK     1      31.270  -4.981  37.228  1.00  0.00    -0.344 N 
HETATM    4  C1  UNK     1      29.520  -6.736  37.371  1.00  0.00     0.292 C 
HETATM    5  C2  UNK     1      29.106  -4.581  38.366  1.00  0.00     0.292 C 
HETATM    6  C3  UNK     1      31.015  -6.427  37.243  1.00  0.00     0.156 C 
HETATM    7  C4  UNK     1      30.590  -4.232  38.286  1.00  0.00     0.156 C 
HETATM    8  C6  UNK     1      32.172  -4.315  36.401  1.00  0.00     0.260 C 
ENDROOT
BRANCH   8   9
HETATM    9  C8  UNK     1      32.958  -5.127  35.451  1.00  0.00     0.108 A 
HETATM   10  C11 UNK     1      34.208  -5.429  35.822  1.00  0.00     0.037 A 
HETATM   11  C13 UNK     1      35.061  -6.223  34.953  1.00  0.00    -0.001 A 
HETATM   12  C16 UNK     1      34.556  -6.659  33.732  1.00  0.00     0.089 A 
HETATM   13  C18 UNK     1      36.370  -6.562  35.301  1.00  0.00     0.014 A 
HETATM   14  O2  UNK     1      33.240  -6.339  33.346  1.00  0.00    -0.274 OA
HETATM   15  C19 UNK     1      35.321  -7.423  32.853  1.00  0.00     0.038 A 
HETATM   16  C12 UNK     1      32.400  -5.581  34.156  1.00  0.00     0.304 A 
HETATM   17  O3  UNK     1      31.257  -5.305  33.811  1.00  0.00    -0.259 OA
HETATM   18  C21 UNK     1      36.627  -7.757  33.208  1.00  0.00     0.003 A 
HETATM   19  C20 UNK     1      37.150  -7.328  34.429  1.00  0.00     0.001 A 
ENDBRANCH   8   9
BRANCH   2  20
HETATM   20  C5  UNK     1      27.507  -6.364  38.641  1.00  0.00     0.311 C 
BRANCH  20  21
HETATM   21  C7  UNK     1      27.283  -7.851  38.713  1.00  0.00    -0.030 A 
HETATM   22  C10 UNK     1      27.682  -8.547  39.847  1.00  0.00     0.009 A 
HETATM   23  C15 UNK     1      27.473  -9.924  39.914  1.00  0.00     0.001 A 
HETATM   24  C17 UNK     1      26.869 -10.593  38.849  1.00  0.00     0.000 A 
HETATM   25  C14 UNK     1      26.473  -9.882  37.715  1.00  0.00     0.001 A 
HETATM   26  C9  UNK     1      26.681  -8.505  37.648  1.00  0.00     0.009 A 
ENDBRANCH  20  21
ENDBRANCH   2  20
TORSDOF 3
ENDMDL
