MODEL 1
REMARK VINA RESULT:      -8.5      0.000      0.000
REMARK  2 active torsions:
REMARK  status: ('A' for Active; 'I' for Inactive)
REMARK    1  A    between atoms: C16_21  and  O3_3 
REMARK    2  A    between atoms: C14_19  and  C16_21 
ROOT
HETATM    1  O1  UNK     1      18.618   0.997  31.953  1.00  0.00    -0.273 OA
HETATM    2  O2  UNK     1      18.689   1.800  29.815  1.00  0.00    -0.259 OA
HETATM    3  N1  UNK     1      18.399  -0.710  36.507  1.00  0.00    -0.380 N 
HETATM    4  C1  UNK     1      18.798  -0.848  35.174  1.00  0.00     0.045 A 
HETATM    5  C2  UNK     1      17.479   0.365  36.867  1.00  0.00     0.123 C 
HETATM    6  C3  UNK     1      18.534   0.168  34.226  1.00  0.00     0.004 A 
HETATM    7  C4  UNK     1      18.499  -1.855  37.406  1.00  0.00     0.123 C 
HETATM    8  C5  UNK     1      19.512  -1.994  34.747  1.00  0.00    -0.030 A 
HETATM    9  C6  UNK     1      17.790   1.419  34.630  1.00  0.00     0.045 C 
HETATM   10  C7  UNK     1      17.852   1.646  36.136  1.00  0.00     0.025 C 
HETATM   11  C8  UNK     1      19.793  -2.617  37.157  1.00  0.00     0.024 C 
HETATM   12  C9  UNK     1      19.834  -3.107  35.716  1.00  0.00     0.042 C 
HETATM   13  C10 UNK     1      18.929  -0.016  32.890  1.00  0.00     0.098 A 
HETATM   14  C11 UNK     1      19.896  -2.143  33.404  1.00  0.00     0.023 A 
HETATM   15  C12 UNK     1      19.603  -1.155  32.467  1.00  0.00     0.000 A 
HETATM   16  C13 UNK     1      19.983  -1.282  31.070  1.00  0.00     0.039 A 
HETATM   17  C14 UNK     1      19.686  -0.314  30.195  1.00  0.00     0.114 A 
HETATM   18  C15 UNK     1      18.967   0.908  30.609  1.00  0.00     0.305 A 
ENDROOT
BRANCH  17  19
HETATM   19  C16 UNK     1      20.114  -0.537  28.808  1.00  0.00     0.182 C 
HETATM   20  O4  UNK     1      21.268  -0.705  28.463  1.00  0.00    -0.646 OA
BRANCH  19  21
HETATM   21  O3  UNK     1      19.036  -0.526  27.998  1.00  0.00    -0.772 OA
HETATM   22  H15 UNK     1      18.251  -0.933  28.425  1.00  0.00     0.167 HD
ENDBRANCH  19  21
ENDBRANCH  17  19
TORSDOF 2
ENDMDL
MODEL 2
REMARK VINA RESULT:      -8.4      3.156      6.768
REMARK  2 active torsions:
REMARK  status: ('A' for Active; 'I' for Inactive)
REMARK    1  A    between atoms: C16_21  and  O3_3 
REMARK    2  A    between atoms: C14_19  and  C16_21 
ROOT
HETATM    1  O1  UNK     1      19.228  -1.248  34.048  1.00  0.00    -0.273 OA
HETATM    2  O2  UNK     1      19.221  -2.535  35.936  1.00  0.00    -0.259 OA
HETATM    3  N1  UNK     1      19.207   1.446  29.994  1.00  0.00    -0.380 N 
HETATM    4  C1  UNK     1      18.926   1.295  31.355  1.00  0.00     0.045 A 
HETATM    5  C2  UNK     1      19.596   0.276  29.213  1.00  0.00     0.123 C 
HETATM    6  C3  UNK     1      19.250   0.098  32.037  1.00  0.00     0.004 A 
HETATM    7  C4  UNK     1      18.675   2.601  29.278  1.00  0.00     0.123 C 
HETATM    8  C5  UNK     1      18.344   2.352  32.096  1.00  0.00    -0.030 A 
HETATM    9  C6  UNK     1      19.887  -1.055  31.299  1.00  0.00     0.045 C 
HETATM   10  C7  UNK     1      20.555  -0.596  30.009  1.00  0.00     0.025 C 
HETATM   11  C8  UNK     1      18.774   3.853  30.138  1.00  0.00     0.024 C 
HETATM   12  C9  UNK     1      17.986   3.658  31.426  1.00  0.00     0.042 C 
HETATM   13  C10 UNK     1      18.930  -0.027  33.399  1.00  0.00     0.098 A 
HETATM   14  C11 UNK     1      18.041   2.194  33.459  1.00  0.00     0.023 A 
HETATM   15  C12 UNK     1      18.332   1.001  34.116  1.00  0.00     0.000 A 
HETATM   16  C13 UNK     1      18.028   0.806  35.525  1.00  0.00     0.039 A 
HETATM   17  C14 UNK     1      18.319  -0.353  36.128  1.00  0.00     0.114 A 
HETATM   18  C15 UNK     1      18.952  -1.469  35.394  1.00  0.00     0.305 A 
ENDROOT
BRANCH  17  19
HETATM   19  C16 UNK     1      17.974  -0.450  37.552  1.00  0.00     0.182 C 
HETATM   20  O4  UNK     1      18.053   0.470  38.343  1.00  0.00    -0.646 OA
BRANCH  19  21
HETATM   21  O3  UNK     1      17.562  -1.704  37.829  1.00  0.00    -0.772 OA
HETATM   22  H15 UNK     1      17.968  -2.366  37.230  1.00  0.00     0.167 HD
ENDBRANCH  19  21
ENDBRANCH  17  19
TORSDOF 2
ENDMDL
MODEL 3
REMARK VINA RESULT:      -8.0     15.628     18.920
REMARK  2 active torsions:
REMARK  status: ('A' for Active; 'I' for Inactive)
REMARK    1  A    between atoms: C16_21  and  O3_3 
REMARK    2  A    between atoms: C14_19  and  C16_21 
ROOT
HETATM    1  O1  UNK     1      19.528   0.218  14.709  1.00  0.00    -0.273 OA
HETATM    2  O2  UNK     1      19.892   2.300  15.578  1.00  0.00    -0.259 OA
HETATM    3  N1  UNK     1      18.818  -4.220  12.840  1.00  0.00    -0.380 N 
HETATM    4  C1  UNK     1      18.767  -3.332  13.918  1.00  0.00     0.045 A 
HETATM    5  C2  UNK     1      19.509  -3.818  11.619  1.00  0.00     0.123 C 
HETATM    6  C3  UNK     1      19.146  -1.978  13.766  1.00  0.00     0.004 A 
HETATM    7  C4  UNK     1      18.622  -5.647  13.078  1.00  0.00     0.123 C 
HETATM    8  C5  UNK     1      18.297  -3.758  15.185  1.00  0.00    -0.030 A 
HETATM    9  C6  UNK     1      19.640  -1.467  12.433  1.00  0.00     0.045 C 
HETATM   10  C7  UNK     1      19.195  -2.367  11.287  1.00  0.00     0.025 C 
HETATM   11  C8  UNK     1      17.510  -5.870  14.093  1.00  0.00     0.024 C 
HETATM   12  C9  UNK     1      17.867  -5.189  15.407  1.00  0.00     0.042 C 
HETATM   13  C10 UNK     1      19.106  -1.121  14.878  1.00  0.00     0.098 A 
HETATM   14  C11 UNK     1      18.265  -2.872  16.276  1.00  0.00     0.023 A 
HETATM   15  C12 UNK     1      18.673  -1.549  16.127  1.00  0.00     0.000 A 
HETATM   16  C13 UNK     1      18.655  -0.609  17.237  1.00  0.00     0.039 A 
HETATM   17  C14 UNK     1      19.054   0.656  17.062  1.00  0.00     0.114 A 
HETATM   18  C15 UNK     1      19.524   1.144  15.749  1.00  0.00     0.305 A 
ENDROOT
BRANCH  17  19
HETATM   19  C16 UNK     1      18.997   1.525  18.243  1.00  0.00     0.182 C 
HETATM   20  O4  UNK     1      19.314   1.182  19.366  1.00  0.00    -0.646 OA
BRANCH  19  21
HETATM   21  O3  UNK     1      18.546   2.744  17.882  1.00  0.00    -0.772 OA
HETATM   22  H15 UNK     1      18.975   3.462  18.395  1.00  0.00     0.167 HD
ENDBRANCH  19  21
ENDBRANCH  17  19
TORSDOF 2
ENDMDL
MODEL 4
REMARK VINA RESULT:      -8.0      3.081      6.089
REMARK  2 active torsions:
REMARK  status: ('A' for Active; 'I' for Inactive)
REMARK    1  A    between atoms: C16_21  and  O3_3 
REMARK    2  A    between atoms: C14_19  and  C16_21 
ROOT
HETATM    1  O1  UNK     1      17.948   1.323  34.570  1.00  0.00    -0.273 OA
HETATM    2  O2  UNK     1      17.245   1.703  36.711  1.00  0.00    -0.259 OA
HETATM    3  N1  UNK     1      19.487   0.567  30.014  1.00  0.00    -0.380 N 
HETATM    4  C1  UNK     1      19.297   0.118  31.324  1.00  0.00     0.045 A 
HETATM    5  C2  UNK     1      19.288   1.981  29.711  1.00  0.00     0.123 C 
HETATM    6  C3  UNK     1      18.682   0.942  32.295  1.00  0.00     0.004 A 
HETATM    7  C4  UNK     1      20.307  -0.221  29.099  1.00  0.00     0.123 C 
HETATM    8  C5  UNK     1      19.683  -1.192  31.704  1.00  0.00    -0.030 A 
HETATM    9  C6  UNK     1      18.236   2.340  31.941  1.00  0.00     0.045 C 
HETATM   10  C7  UNK     1      18.060   2.510  30.437  1.00  0.00     0.025 C 
HETATM   11  C8  UNK     1      20.025  -1.706  29.277  1.00  0.00     0.024 C 
HETATM   12  C9  UNK     1      20.334  -2.122  30.708  1.00  0.00     0.042 C 
HETATM   13  C10 UNK     1      18.530   0.465  33.608  1.00  0.00     0.098 A 
HETATM   14  C11 UNK     1      19.512  -1.637  33.025  1.00  0.00     0.023 A 
HETATM   15  C12 UNK     1      18.937  -0.809  33.985  1.00  0.00     0.000 A 
HETATM   16  C13 UNK     1      18.750  -1.240  35.361  1.00  0.00     0.039 A 
HETATM   17  C14 UNK     1      18.194  -0.419  36.260  1.00  0.00     0.114 A 
HETATM   18  C15 UNK     1      17.754   0.943  35.895  1.00  0.00     0.305 A 
ENDROOT
BRANCH  17  19
HETATM   19  C16 UNK     1      18.049  -0.949  37.622  1.00  0.00     0.182 C 
HETATM   20  O4  UNK     1      18.376  -0.352  38.630  1.00  0.00    -0.646 OA
BRANCH  19  21
HETATM   21  O3  UNK     1      17.501  -2.180  37.568  1.00  0.00    -0.772 OA
HETATM   22  H15 UNK     1      18.147  -2.858  37.278  1.00  0.00     0.167 HD
ENDBRANCH  19  21
ENDBRANCH  17  19
TORSDOF 2
ENDMDL
MODEL 5
REMARK VINA RESULT:      -7.9      4.151      6.262
REMARK  2 active torsions:
REMARK  status: ('A' for Active; 'I' for Inactive)
REMARK    1  A    between atoms: C16_21  and  O3_3 
REMARK    2  A    between atoms: C14_19  and  C16_21 
ROOT
HETATM    1  O1  UNK     1      17.610   4.933  34.176  1.00  0.00    -0.273 OA
HETATM    2  O2  UNK     1      17.012   7.075  34.701  1.00  0.00    -0.259 OA
HETATM    3  N1  UNK     1      18.826   0.347  33.086  1.00  0.00    -0.380 N 
HETATM    4  C1  UNK     1      18.587   1.668  32.695  1.00  0.00     0.045 A 
HETATM    5  C2  UNK     1      18.469  -0.071  34.438  1.00  0.00     0.123 C 
HETATM    6  C3  UNK     1      18.246   2.659  33.645  1.00  0.00     0.004 A 
HETATM    7  C4  UNK     1      18.969  -0.686  32.065  1.00  0.00     0.123 C 
HETATM    8  C5  UNK     1      18.719   2.057  31.339  1.00  0.00    -0.030 A 
HETATM    9  C6  UNK     1      18.108   2.303  35.106  1.00  0.00     0.045 C 
HETATM   10  C7  UNK     1      18.843   1.010  35.441  1.00  0.00     0.025 C 
HETATM   11  C8  UNK     1      19.784  -0.165  30.890  1.00  0.00     0.024 C 
HETATM   12  C9  UNK     1      19.093   1.046  30.280  1.00  0.00     0.042 C 
HETATM   13  C10 UNK     1      17.989   3.970  33.212  1.00  0.00     0.098 A 
HETATM   14  C11 UNK     1      18.458   3.379  30.941  1.00  0.00     0.023 A 
HETATM   15  C12 UNK     1      18.089   4.342  31.877  1.00  0.00     0.000 A 
HETATM   16  C13 UNK     1      17.810   5.717  31.496  1.00  0.00     0.039 A 
HETATM   17  C14 UNK     1      17.456   6.619  32.419  1.00  0.00     0.114 A 
HETATM   18  C15 UNK     1      17.336   6.257  33.847  1.00  0.00     0.305 A 
ENDROOT
BRANCH  17  19
HETATM   19  C16 UNK     1      17.197   7.980  31.934  1.00  0.00     0.182 C 
HETATM   20  O4  UNK     1      16.552   8.243  30.937  1.00  0.00    -0.646 OA
BRANCH  19  21
HETATM   21  O3  UNK     1      17.779   8.870  32.763  1.00  0.00    -0.772 OA
HETATM   22  H15 UNK     1      18.495   8.463  33.298  1.00  0.00     0.167 HD
ENDBRANCH  19  21
ENDBRANCH  17  19
TORSDOF 2
ENDMDL
MODEL 6
REMARK VINA RESULT:      -7.7      3.554      6.327
REMARK  2 active torsions:
REMARK  status: ('A' for Active; 'I' for Inactive)
REMARK    1  A    between atoms: C16_21  and  O3_3 
REMARK    2  A    between atoms: C14_19  and  C16_21 
ROOT
HETATM    1  O1  UNK     1      18.229   1.975  35.547  1.00  0.00    -0.273 OA
HETATM    2  O2  UNK     1      18.155   1.153  37.678  1.00  0.00    -0.259 OA
HETATM    3  N1  UNK     1      18.438   3.766  31.025  1.00  0.00    -0.380 N 
HETATM    4  C1  UNK     1      18.470   2.681  31.907  1.00  0.00     0.045 A 
HETATM    5  C2  UNK     1      18.489   5.122  31.564  1.00  0.00     0.123 C 
HETATM    6  C3  UNK     1      18.300   2.868  33.298  1.00  0.00     0.004 A 
HETATM    7  C4  UNK     1      18.824   3.568  29.632  1.00  0.00     0.123 C 
HETATM    8  C5  UNK     1      18.638   1.361  31.423  1.00  0.00    -0.030 A 
HETATM    9  C6  UNK     1      18.101   4.253  33.867  1.00  0.00     0.045 C 
HETATM   10  C7  UNK     1      17.615   5.232  32.804  1.00  0.00     0.025 C 
HETATM   11  C8  UNK     1      18.273   2.249  29.110  1.00  0.00     0.024 C 
HETATM   12  C9  UNK     1      18.814   1.097  29.946  1.00  0.00     0.042 C 
HETATM   13  C10 UNK     1      18.363   1.757  34.156  1.00  0.00     0.098 A 
HETATM   14  C11 UNK     1      18.692   0.272  32.309  1.00  0.00     0.023 A 
HETATM   15  C12 UNK     1      18.557   0.466  33.682  1.00  0.00     0.000 A 
HETATM   16  C13 UNK     1      18.612  -0.641  34.624  1.00  0.00     0.039 A 
HETATM   17  C14 UNK     1      18.480  -0.421  35.937  1.00  0.00     0.114 A 
HETATM   18  C15 UNK     1      18.276   0.940  36.477  1.00  0.00     0.305 A 
ENDROOT
BRANCH  17  19
HETATM   19  C16 UNK     1      18.549  -1.603  36.805  1.00  0.00     0.182 C 
HETATM   20  O4  UNK     1      19.429  -2.441  36.757  1.00  0.00    -0.646 OA
BRANCH  19  21
HETATM   21  O3  UNK     1      17.496  -1.602  37.648  1.00  0.00    -0.772 OA
HETATM   22  H15 UNK     1      17.368  -2.475  38.079  1.00  0.00     0.167 HD
ENDBRANCH  19  21
ENDBRANCH  17  19
TORSDOF 2
ENDMDL
MODEL 7
REMARK VINA RESULT:      -7.7     10.810     13.022
REMARK  2 active torsions:
REMARK  status: ('A' for Active; 'I' for Inactive)
REMARK    1  A    between atoms: C16_21  and  O3_3 
REMARK    2  A    between atoms: C14_19  and  C16_21 
ROOT
HETATM    1  O1  UNK     1      26.218  -5.766  38.724  1.00  0.00    -0.273 OA
HETATM    2  O2  UNK     1      23.983  -5.367  38.979  1.00  0.00    -0.259 OA
HETATM    3  N1  UNK     1      30.993  -6.582  38.239  1.00  0.00    -0.380 N 
HETATM    4  C1  UNK     1      29.684  -7.057  38.359  1.00  0.00     0.045 A 
HETATM    5  C2  UNK     1      31.260  -5.166  38.469  1.00  0.00     0.123 C 
HETATM    6  C3  UNK     1      28.590  -6.165  38.450  1.00  0.00     0.004 A 
HETATM    7  C4  UNK     1      32.108  -7.517  38.357  1.00  0.00     0.123 C 
HETATM    8  C5  UNK     1      29.415  -8.448  38.354  1.00  0.00    -0.030 A 
HETATM    9  C6  UNK     1      28.817  -4.672  38.444  1.00  0.00     0.045 C 
HETATM   10  C7  UNK     1      30.169  -4.312  37.839  1.00  0.00     0.025 C 
HETATM   11  C8  UNK     1      31.787  -8.820  37.640  1.00  0.00     0.024 C 
HETATM   12  C9  UNK     1      30.541  -9.450  38.247  1.00  0.00     0.042 C 
HETATM   13  C10 UNK     1      27.291  -6.680  38.595  1.00  0.00     0.098 A 
HETATM   14  C11 UNK     1      28.103  -8.928  38.496  1.00  0.00     0.023 A 
HETATM   15  C12 UNK     1      27.033  -8.044  38.620  1.00  0.00     0.000 A 
HETATM   16  C13 UNK     1      25.664  -8.510  38.772  1.00  0.00     0.039 A 
HETATM   17  C14 UNK     1      24.659  -7.635  38.889  1.00  0.00     0.114 A 
HETATM   18  C15 UNK     1      24.897  -6.177  38.870  1.00  0.00     0.305 A 
ENDROOT
BRANCH  17  19
HETATM   19  C16 UNK     1      23.314  -8.205  39.036  1.00  0.00     0.182 C 
HETATM   20  O4  UNK     1      22.649  -8.145  40.053  1.00  0.00    -0.646 OA
BRANCH  19  21
HETATM   21  O3  UNK     1      22.946  -8.792  37.879  1.00  0.00    -0.772 OA
HETATM   22  H15 UNK     1      23.427  -8.420  37.109  1.00  0.00     0.167 HD
ENDBRANCH  19  21
ENDBRANCH  17  19
TORSDOF 2
ENDMDL
MODEL 8
REMARK VINA RESULT:      -7.6      1.695      2.355
REMARK  2 active torsions:
REMARK  status: ('A' for Active; 'I' for Inactive)
REMARK    1  A    between atoms: C16_21  and  O3_3 
REMARK    2  A    between atoms: C14_19  and  C16_21 
ROOT
HETATM    1  O1  UNK     1      17.831   2.563  33.423  1.00  0.00    -0.273 OA
HETATM    2  O2  UNK     1      17.469   4.263  31.940  1.00  0.00    -0.259 OA
HETATM    3  N1  UNK     1      18.535  -1.061  36.596  1.00  0.00    -0.380 N 
HETATM    4  C1  UNK     1      18.649  -0.534  35.306  1.00  0.00     0.045 A 
HETATM    5  C2  UNK     1      17.722  -0.357  37.583  1.00  0.00     0.123 C 
HETATM    6  C3  UNK     1      18.207   0.777  35.013  1.00  0.00     0.004 A 
HETATM    7  C4  UNK     1      18.804  -2.478  36.817  1.00  0.00     0.123 C 
HETATM    8  C5  UNK     1      19.247  -1.288  34.267  1.00  0.00    -0.030 A 
HETATM    9  C6  UNK     1      17.577   1.631  36.087  1.00  0.00     0.045 C 
HETATM   10  C7  UNK     1      17.950   1.144  37.482  1.00  0.00     0.025 C 
HETATM   11  C8  UNK     1      20.010  -2.924  36.004  1.00  0.00     0.024 C 
HETATM   12  C9  UNK     1      19.748  -2.690  34.522  1.00  0.00     0.042 C 
HETATM   13  C10 UNK     1      18.317   1.263  33.699  1.00  0.00     0.098 A 
HETATM   14  C11 UNK     1      19.344  -0.769  32.965  1.00  0.00     0.023 A 
HETATM   15  C12 UNK     1      18.876   0.510  32.675  1.00  0.00     0.000 A 
HETATM   16  C13 UNK     1      18.959   1.074  31.337  1.00  0.00     0.039 A 
HETATM   17  C14 UNK     1      18.499   2.307  31.090  1.00  0.00     0.114 A 
HETATM   18  C15 UNK     1      17.895   3.134  32.155  1.00  0.00     0.305 A 
ENDROOT
BRANCH  17  19
HETATM   19  C16 UNK     1      18.630   2.785  29.709  1.00  0.00     0.182 C 
HETATM   20  O4  UNK     1      18.220   2.188  28.732  1.00  0.00    -0.646 OA
BRANCH  19  21
HETATM   21  O3  UNK     1      19.265   3.975  29.704  1.00  0.00    -0.772 OA
HETATM   22  H15 UNK     1      18.645   4.724  29.839  1.00  0.00     0.167 HD
ENDBRANCH  19  21
ENDBRANCH  17  19
TORSDOF 2
ENDMDL
MODEL 9
REMARK VINA RESULT:      -7.6      3.703      5.954
REMARK  2 active torsions:
REMARK  status: ('A' for Active; 'I' for Inactive)
REMARK    1  A    between atoms: C16_21  and  O3_3 
REMARK    2  A    between atoms: C14_19  and  C16_21 
ROOT
HETATM    1  O1  UNK     1      18.822   4.352  30.373  1.00  0.00    -0.273 OA
HETATM    2  O2  UNK     1      18.726   6.538  29.716  1.00  0.00    -0.259 OA
HETATM    3  N1  UNK     1      19.093  -0.308  31.755  1.00  0.00    -0.380 N 
HETATM    4  C1  UNK     1      18.802   1.029  32.039  1.00  0.00     0.045 A 
HETATM    5  C2  UNK     1      19.777  -0.640  30.509  1.00  0.00     0.123 C 
HETATM    6  C3  UNK     1      18.928   2.028  31.045  1.00  0.00     0.004 A 
HETATM    7  C4  UNK     1      19.155  -1.274  32.848  1.00  0.00     0.123 C 
HETATM    8  C5  UNK     1      18.336   1.413  33.320  1.00  0.00    -0.030 A 
HETATM    9  C6  UNK     1      19.405   1.672  29.657  1.00  0.00     0.045 C 
HETATM   10  C7  UNK     1      19.217   0.189  29.362  1.00  0.00     0.025 C 
HETATM   11  C8  UNK     1      18.039  -1.016  33.850  1.00  0.00     0.024 C 
HETATM   12  C9  UNK     1      18.170   0.390  34.418  1.00  0.00     0.042 C 
HETATM   13  C10 UNK     1      18.650   3.366  31.373  1.00  0.00     0.098 A 
HETATM   14  C11 UNK     1      18.063   2.760  33.612  1.00  0.00     0.023 A 
HETATM   15  C12 UNK     1      18.222   3.744  32.639  1.00  0.00     0.000 A 
HETATM   16  C13 UNK     1      17.951   5.147  32.913  1.00  0.00     0.039 A 
HETATM   17  C14 UNK     1      18.114   6.068  31.956  1.00  0.00     0.114 A 
HETATM   18  C15 UNK     1      18.571   5.702  30.599  1.00  0.00     0.305 A 
ENDROOT
BRANCH  17  19
HETATM   19  C16 UNK     1      17.813   7.455  32.331  1.00  0.00     0.182 C 
HETATM   20  O4  UNK     1      18.315   8.037  33.274  1.00  0.00    -0.646 OA
BRANCH  19  21
HETATM   21  O3  UNK     1      16.909   7.966  31.471  1.00  0.00    -0.772 OA
HETATM   22  H15 UNK     1      16.320   7.274  31.101  1.00  0.00     0.167 HD
ENDBRANCH  19  21
ENDBRANCH  17  19
TORSDOF 2
ENDMDL
MODEL 10
REMARK VINA RESULT:      -7.6      1.203      3.090
REMARK  2 active torsions:
REMARK  status: ('A' for Active; 'I' for Inactive)
REMARK    1  A    between atoms: C16_21  and  O3_3 
REMARK    2  A    between atoms: C14_19  and  C16_21 
ROOT
HETATM    1  O1  UNK     1      20.149  -2.220  32.362  1.00  0.00    -0.273 OA
HETATM    2  O2  UNK     1      20.943  -2.697  30.273  1.00  0.00    -0.259 OA
HETATM    3  N1  UNK     1      18.519  -1.208  36.836  1.00  0.00    -0.380 N 
HETATM    4  C1  UNK     1      18.662  -0.868  35.487  1.00  0.00     0.045 A 
HETATM    5  C2  UNK     1      19.271  -2.341  37.367  1.00  0.00     0.123 C 
HETATM    6  C3  UNK     1      19.313  -1.737  34.582  1.00  0.00     0.004 A 
HETATM    7  C4  UNK     1      18.033  -0.206  37.779  1.00  0.00     0.123 C 
HETATM    8  C5  UNK     1      18.122   0.341  34.985  1.00  0.00    -0.030 A 
HETATM    9  C6  UNK     1      19.893  -3.047  35.060  1.00  0.00     0.045 C 
HETATM   10  C7  UNK     1      19.263  -3.493  36.374  1.00  0.00     0.025 C 
HETATM   11  C8  UNK     1      16.906   0.607  37.158  1.00  0.00     0.024 C 
HETATM   12  C9  UNK     1      17.405   1.305  35.901  1.00  0.00     0.042 C 
HETATM   13  C10 UNK     1      19.458  -1.351  33.239  1.00  0.00     0.098 A 
HETATM   14  C11 UNK     1      18.282   0.695  33.635  1.00  0.00     0.023 A 
HETATM   15  C12 UNK     1      18.955  -0.150  32.755  1.00  0.00     0.000 A 
HETATM   16  C13 UNK     1      19.140   0.189  31.353  1.00  0.00     0.039 A 
HETATM   17  C14 UNK     1      19.791  -0.644  30.533  1.00  0.00     0.114 A 
HETATM   18  C15 UNK     1      20.344  -1.928  31.015  1.00  0.00     0.305 A 
ENDROOT
BRANCH  17  19
HETATM   19  C16 UNK     1      19.924  -0.212  29.137  1.00  0.00     0.182 C 
HETATM   20  O4  UNK     1      19.078   0.415  28.528  1.00  0.00    -0.646 OA
BRANCH  19  21
HETATM   21  O3  UNK     1      21.117  -0.615  28.654  1.00  0.00    -0.772 OA
HETATM   22  H15 UNK     1      21.861  -0.099  29.033  1.00  0.00     0.167 HD
ENDBRANCH  19  21
ENDBRANCH  17  19
TORSDOF 2
ENDMDL
