MODEL 1
REMARK VINA RESULT:      -8.9      0.000      0.000
REMARK  6 active torsions:
REMARK  status: ('A' for Active; 'I' for Inactive)
REMARK    1  A    between atoms: C10_16  and  O1_2 
REMARK    2  A    between atoms: C12_18  and  N1_5 
REMARK    3  A    between atoms: C8_14  and  N1_5 
REMARK    4  A    between atoms: C12_18  and  N2_6 
REMARK    5  A    between atoms: C13_19  and  N2_6 
REMARK    6  A    between atoms: C1_7  and  C2_8 
ROOT
HETATM    1  S1  UNK     1      19.564   5.725  30.367  1.00  0.00    -0.041 SA
HETATM    2  C12 UNK     1      18.765   5.167  31.743  1.00  0.00     0.176 C 
ENDROOT
BRANCH   2   3
HETATM    3  N1  UNK     1      18.010   4.014  31.598  1.00  0.00    -0.331 N 
HETATM    4  H13 UNK     1      17.029   4.184  31.386  1.00  0.00     0.168 HD
BRANCH   3   5
HETATM    5  C8  UNK     1      18.312   2.678  31.897  1.00  0.00     0.068 A 
HETATM    6  C10 UNK     1      18.806   1.829  30.911  1.00  0.00     0.095 A 
HETATM    7  C9  UNK     1      19.102   0.502  31.224  1.00  0.00     0.039 A 
HETATM    8  C7  UNK     1      18.902   0.030  32.520  1.00  0.00     0.011 A 
HETATM    9  C2  UNK     1      18.407   0.884  33.506  1.00  0.00    -0.048 A 
HETATM   10  C6  UNK     1      18.112   2.211  33.193  1.00  0.00     0.040 A 
BRANCH   6  11
HETATM   11  O1  UNK     1      19.010   2.271  29.638  1.00  0.00    -0.354 OA
HETATM   12  C21 UNK     1      18.024   1.926  28.667  1.00  0.00     0.210 C 
ENDBRANCH   6  11
BRANCH   9  13
HETATM   13  C1  UNK     1      18.195   0.378  34.893  1.00  0.00    -0.024 C 
HETATM   14  C3  UNK     1      18.862  -1.018  35.093  1.00  0.00     0.019 C 
HETATM   15  C4  UNK     1      16.676   0.225  35.214  1.00  0.00     0.019 C 
HETATM   16  C5  UNK     1      18.772   1.282  36.032  1.00  0.00     0.019 C 
ENDBRANCH   9  13
ENDBRANCH   3   5
ENDBRANCH   2   3
BRANCH   2  17
HETATM   17  N2  UNK     1      18.701   5.823  32.975  1.00  0.00    -0.333 N 
HETATM   18  H14 UNK     1      18.901   5.212  33.761  1.00  0.00     0.168 HD
BRANCH  17  19
HETATM   19  C13 UNK     1      17.982   6.941  33.396  1.00  0.00     0.036 A 
HETATM   20  C16 UNK     1      18.561   8.205  33.343  1.00  0.00     0.067 A 
HETATM   21  C14 UNK     1      17.822   9.311  33.769  1.00  0.00     0.092 A 
HETATM   22  C11 UNK     1      16.517   9.196  34.247  1.00  0.00     0.004 A 
HETATM   23  O2  UNK     1      18.464  10.564  33.691  1.00  0.00    -0.275 OA
HETATM   24  C15 UNK     1      15.815  10.415  34.673  1.00  0.00    -0.043 A 
HETATM   25  C17 UNK     1      15.951   7.914  34.292  1.00  0.00     0.017 A 
HETATM   26  C19 UNK     1      16.448  11.592  34.589  1.00  0.00     0.090 A 
HETATM   27  C20 UNK     1      14.409  10.325  35.192  1.00  0.00     0.049 C 
HETATM   28  C22 UNK     1      17.825  11.729  34.086  1.00  0.00     0.288 A 
HETATM   29  O3  UNK     1      18.373  12.825  34.023  1.00  0.00    -0.260 OA
HETATM   30  C18 UNK     1      16.679   6.796  33.870  1.00  0.00     0.030 A 
ENDBRANCH  17  19
ENDBRANCH   2  17
TORSDOF 6
ENDMDL
MODEL 2
REMARK VINA RESULT:      -8.8      7.238     13.612
REMARK  6 active torsions:
REMARK  status: ('A' for Active; 'I' for Inactive)
REMARK    1  A    between atoms: C10_16  and  O1_2 
REMARK    2  A    between atoms: C12_18  and  N1_5 
REMARK    3  A    between atoms: C8_14  and  N1_5 
REMARK    4  A    between atoms: C12_18  and  N2_6 
REMARK    5  A    between atoms: C13_19  and  N2_6 
REMARK    6  A    between atoms: C1_7  and  C2_8 
ROOT
HETATM    1  S1  UNK     1      20.763  -3.370  37.320  1.00  0.00    -0.041 SA
HETATM    2  C12 UNK     1      19.973  -3.911  35.932  1.00  0.00     0.176 C 
ENDROOT
BRANCH   2   3
HETATM    3  N1  UNK     1      20.003  -3.067  34.832  1.00  0.00    -0.331 N 
HETATM    4  H13 UNK     1      20.754  -3.267  34.176  1.00  0.00     0.168 HD
BRANCH   3   5
HETATM    5  C8  UNK     1      19.319  -1.870  34.579  1.00  0.00     0.068 A 
HETATM    6  C10 UNK     1      19.275  -1.341  33.293  1.00  0.00     0.095 A 
HETATM    7  C9  UNK     1      18.590  -0.149  33.056  1.00  0.00     0.039 A 
HETATM    8  C7  UNK     1      17.952   0.509  34.107  1.00  0.00     0.011 A 
HETATM    9  C2  UNK     1      17.998  -0.025  35.395  1.00  0.00    -0.048 A 
HETATM   10  C6  UNK     1      18.682  -1.217  35.631  1.00  0.00     0.040 A 
BRANCH   6  11
HETATM   11  O1  UNK     1      19.890  -1.970  32.252  1.00  0.00    -0.354 OA
HETATM   12  C21 UNK     1      20.162  -1.186  31.091  1.00  0.00     0.210 C 
ENDBRANCH   6  11
BRANCH   9  13
HETATM   13  C1  UNK     1      17.314   0.680  36.517  1.00  0.00    -0.024 C 
HETATM   14  C3  UNK     1      17.743   2.178  36.589  1.00  0.00     0.019 C 
HETATM   15  C4  UNK     1      17.659   0.025  37.891  1.00  0.00     0.019 C 
HETATM   16  C5  UNK     1      15.751   0.698  36.445  1.00  0.00     0.019 C 
ENDBRANCH   9  13
ENDBRANCH   3   5
ENDBRANCH   2   3
BRANCH   2  17
HETATM   17  N2  UNK     1      19.198  -5.069  35.829  1.00  0.00    -0.333 N 
HETATM   18  H14 UNK     1      18.200  -4.878  35.808  1.00  0.00     0.168 HD
BRANCH  17  19
HETATM   19  C13 UNK     1      19.435  -6.385  36.225  1.00  0.00     0.036 A 
HETATM   20  C16 UNK     1      20.399  -7.147  35.574  1.00  0.00     0.067 A 
HETATM   21  C14 UNK     1      20.622  -8.462  35.987  1.00  0.00     0.092 A 
HETATM   22  C11 UNK     1      19.909  -9.044  37.036  1.00  0.00     0.004 A 
HETATM   23  O2  UNK     1      21.611  -9.184  35.288  1.00  0.00    -0.275 OA
HETATM   24  C15 UNK     1      20.210 -10.435  37.404  1.00  0.00    -0.043 A 
HETATM   25  C17 UNK     1      18.943  -8.259  37.679  1.00  0.00     0.017 A 
HETATM   26  C19 UNK     1      21.155 -11.096  36.723  1.00  0.00     0.090 A 
HETATM   27  C20 UNK     1      19.461 -11.089  38.528  1.00  0.00     0.049 C 
HETATM   28  C22 UNK     1      21.915 -10.496  35.614  1.00  0.00     0.288 A 
HETATM   29  O3  UNK     1      22.774 -11.133  35.013  1.00  0.00    -0.260 OA
HETATM   30  C18 UNK     1      18.708  -6.940  37.276  1.00  0.00     0.030 A 
ENDBRANCH  17  19
ENDBRANCH   2  17
TORSDOF 6
ENDMDL
MODEL 3
REMARK VINA RESULT:      -8.6      1.370      2.063
REMARK  6 active torsions:
REMARK  status: ('A' for Active; 'I' for Inactive)
REMARK    1  A    between atoms: C10_16  and  O1_2 
REMARK    2  A    between atoms: C12_18  and  N1_5 
REMARK    3  A    between atoms: C8_14  and  N1_5 
REMARK    4  A    between atoms: C12_18  and  N2_6 
REMARK    5  A    between atoms: C13_19  and  N2_6 
REMARK    6  A    between atoms: C1_7  and  C2_8 
ROOT
HETATM    1  S1  UNK     1      19.421   5.577  30.162  1.00  0.00    -0.041 SA
HETATM    2  C12 UNK     1      18.703   5.077  31.603  1.00  0.00     0.176 C 
ENDROOT
BRANCH   2   3
HETATM    3  N1  UNK     1      17.952   3.912  31.551  1.00  0.00    -0.331 N 
HETATM    4  H13 UNK     1      16.960   4.065  31.381  1.00  0.00     0.168 HD
BRANCH   3   5
HETATM    5  C8  UNK     1      18.281   2.595  31.898  1.00  0.00     0.068 A 
HETATM    6  C10 UNK     1      18.794   1.721  30.944  1.00  0.00     0.095 A 
HETATM    7  C9  UNK     1      19.118   0.413  31.305  1.00  0.00     0.039 A 
HETATM    8  C7  UNK     1      18.926  -0.016  32.618  1.00  0.00     0.011 A 
HETATM    9  C2  UNK     1      18.412   0.863  33.571  1.00  0.00    -0.048 A 
HETATM   10  C6  UNK     1      18.089   2.171  33.211  1.00  0.00     0.040 A 
BRANCH   6  11
HETATM   11  O1  UNK     1      18.991   2.121  29.657  1.00  0.00    -0.354 OA
HETATM   12  C21 UNK     1      17.987   1.766  28.707  1.00  0.00     0.210 C 
ENDBRANCH   6  11
BRANCH   9  13
HETATM   13  C1  UNK     1      18.208   0.403  34.975  1.00  0.00    -0.024 C 
HETATM   14  C3  UNK     1      18.796   1.426  35.996  1.00  0.00     0.019 C 
HETATM   15  C4  UNK     1      18.907  -0.970  35.229  1.00  0.00     0.019 C 
HETATM   16  C5  UNK     1      16.717   0.197  35.404  1.00  0.00     0.019 C 
ENDBRANCH   9  13
ENDBRANCH   3   5
ENDBRANCH   2   3
BRANCH   2  17
HETATM   17  N2  UNK     1      18.698   5.787  32.806  1.00  0.00    -0.333 N 
HETATM   18  H14 UNK     1      18.677   5.184  33.623  1.00  0.00     0.168 HD
BRANCH  17  19
HETATM   19  C13 UNK     1      18.242   7.064  33.129  1.00  0.00     0.036 A 
HETATM   20  C16 UNK     1      16.910   7.405  32.919  1.00  0.00     0.067 A 
HETATM   21  C14 UNK     1      16.474   8.690  33.250  1.00  0.00     0.092 A 
HETATM   22  C11 UNK     1      17.330   9.650  33.790  1.00  0.00     0.004 A 
HETATM   23  O2  UNK     1      15.114   8.974  33.013  1.00  0.00    -0.275 OA
HETATM   24  C15 UNK     1      16.785  10.977  34.110  1.00  0.00    -0.043 A 
HETATM   25  C17 UNK     1      18.668   9.287  33.995  1.00  0.00     0.017 A 
HETATM   26  C19 UNK     1      15.489  11.220  33.874  1.00  0.00     0.090 A 
HETATM   27  C20 UNK     1      17.679  12.033  34.691  1.00  0.00     0.049 C 
HETATM   28  C22 UNK     1      14.574  10.217  33.305  1.00  0.00     0.288 A 
HETATM   29  O3  UNK     1      13.392  10.475  33.103  1.00  0.00    -0.260 OA
HETATM   30  C18 UNK     1      19.120   8.005  33.667  1.00  0.00     0.030 A 
ENDBRANCH  17  19
ENDBRANCH   2  17
TORSDOF 6
ENDMDL
MODEL 4
REMARK VINA RESULT:      -8.5      7.513     13.766
REMARK  6 active torsions:
REMARK  status: ('A' for Active; 'I' for Inactive)
REMARK    1  A    between atoms: C10_16  and  O1_2 
REMARK    2  A    between atoms: C12_18  and  N1_5 
REMARK    3  A    between atoms: C8_14  and  N1_5 
REMARK    4  A    between atoms: C12_18  and  N2_6 
REMARK    5  A    between atoms: C13_19  and  N2_6 
REMARK    6  A    between atoms: C1_7  and  C2_8 
ROOT
HETATM    1  S1  UNK     1      20.370  -3.432  37.546  1.00  0.00    -0.041 SA
HETATM    2  C12 UNK     1      19.911  -3.964  36.013  1.00  0.00     0.176 C 
ENDROOT
BRANCH   2   3
HETATM    3  N1  UNK     1      20.076  -3.067  34.969  1.00  0.00    -0.331 N 
HETATM    4  H13 UNK     1      20.939  -3.195  34.445  1.00  0.00     0.168 HD
BRANCH   3   5
HETATM    5  C8  UNK     1      19.374  -1.897  34.648  1.00  0.00     0.068 A 
HETATM    6  C10 UNK     1      19.314  -1.450  33.331  1.00  0.00     0.095 A 
HETATM    7  C9  UNK     1      18.611  -0.284  33.027  1.00  0.00     0.039 A 
HETATM    8  C7  UNK     1      17.973   0.430  34.040  1.00  0.00     0.011 A 
HETATM    9  C2  UNK     1      18.035  -0.022  35.358  1.00  0.00    -0.048 A 
HETATM   10  C6  UNK     1      18.737  -1.188  35.663  1.00  0.00     0.040 A 
BRANCH   6  11
HETATM   11  O1  UNK     1      19.930  -2.134  32.327  1.00  0.00    -0.354 OA
HETATM   12  C21 UNK     1      20.117  -1.443  31.093  1.00  0.00     0.210 C 
ENDBRANCH   6  11
BRANCH   9  13
HETATM   13  C1  UNK     1      17.351   0.742  36.441  1.00  0.00    -0.024 C 
HETATM   14  C3  UNK     1      15.800   0.685  36.280  1.00  0.00     0.019 C 
HETATM   15  C4  UNK     1      17.770   2.245  36.426  1.00  0.00     0.019 C 
HETATM   16  C5  UNK     1      17.636   0.245  37.897  1.00  0.00     0.019 C 
ENDBRANCH   9  13
ENDBRANCH   3   5
ENDBRANCH   2   3
BRANCH   2  17
HETATM   17  N2  UNK     1      19.273  -5.173  35.723  1.00  0.00    -0.333 N 
HETATM   18  H14 UNK     1      18.261  -5.111  35.775  1.00  0.00     0.168 HD
BRANCH  17  19
HETATM   19  C13 UNK     1      19.689  -6.498  35.855  1.00  0.00     0.036 A 
HETATM   20  C16 UNK     1      19.219  -7.276  36.906  1.00  0.00     0.067 A 
HETATM   21  C14 UNK     1      19.647  -8.601  37.018  1.00  0.00     0.092 A 
HETATM   22  C11 UNK     1      20.534  -9.176  36.108  1.00  0.00     0.004 A 
HETATM   23  O2  UNK     1      19.136  -9.339  38.105  1.00  0.00    -0.275 OA
HETATM   24  C15 UNK     1      20.931 -10.578  36.303  1.00  0.00    -0.043 A 
HETATM   25  C17 UNK     1      20.996  -8.375  35.055  1.00  0.00     0.017 A 
HETATM   26  C19 UNK     1      20.429 -11.255  37.345  1.00  0.00     0.090 A 
HETATM   27  C20 UNK     1      21.883 -11.226  35.342  1.00  0.00     0.049 C 
HETATM   28  C22 UNK     1      19.493 -10.662  38.314  1.00  0.00     0.288 A 
HETATM   29  O3  UNK     1      19.054 -11.313  39.256  1.00  0.00    -0.260 OA
HETATM   30  C18 UNK     1      20.576  -7.046  34.930  1.00  0.00     0.030 A 
ENDBRANCH  17  19
ENDBRANCH   2  17
TORSDOF 6
ENDMDL
MODEL 5
REMARK VINA RESULT:      -8.3     16.739     19.169
REMARK  6 active torsions:
REMARK  status: ('A' for Active; 'I' for Inactive)
REMARK    1  A    between atoms: C10_16  and  O1_2 
REMARK    2  A    between atoms: C12_18  and  N1_5 
REMARK    3  A    between atoms: C8_14  and  N1_5 
REMARK    4  A    between atoms: C12_18  and  N2_6 
REMARK    5  A    between atoms: C13_19  and  N2_6 
REMARK    6  A    between atoms: C1_7  and  C2_8 
ROOT
HETATM    1  S1  UNK     1      34.891  -5.896  36.770  1.00  0.00    -0.041 SA
HETATM    2  C12 UNK     1      33.916  -7.258  36.961  1.00  0.00     0.176 C 
ENDROOT
BRANCH   2   3
HETATM    3  N1  UNK     1      33.800  -8.098  35.863  1.00  0.00    -0.331 N 
HETATM    4  H13 UNK     1      34.550  -8.780  35.781  1.00  0.00     0.168 HD
BRANCH   3   5
HETATM    5  C8  UNK     1      32.955  -8.031  34.747  1.00  0.00     0.068 A 
HETATM    6  C10 UNK     1      33.485  -7.851  33.472  1.00  0.00     0.095 A 
HETATM    7  C9  UNK     1      32.632  -7.787  32.370  1.00  0.00     0.039 A 
HETATM    8  C7  UNK     1      31.254  -7.902  32.547  1.00  0.00     0.011 A 
HETATM    9  C2  UNK     1      30.727  -8.083  33.826  1.00  0.00    -0.048 A 
HETATM   10  C6  UNK     1      31.580  -8.148  34.928  1.00  0.00     0.040 A 
BRANCH   6  11
HETATM   11  O1  UNK     1      34.829  -7.738  33.278  1.00  0.00    -0.354 OA
HETATM   12  C21 UNK     1      35.333  -6.437  32.978  1.00  0.00     0.210 C 
ENDBRANCH   6  11
BRANCH   9  13
HETATM   13  C1  UNK     1      29.253  -8.207  34.014  1.00  0.00    -0.024 C 
HETATM   14  C3  UNK     1      28.884  -9.549  34.718  1.00  0.00     0.019 C 
HETATM   15  C4  UNK     1      28.502  -8.172  32.646  1.00  0.00     0.019 C 
HETATM   16  C5  UNK     1      28.590  -7.086  34.882  1.00  0.00     0.019 C 
ENDBRANCH   9  13
ENDBRANCH   3   5
ENDBRANCH   2   3
BRANCH   2  17
HETATM   17  N2  UNK     1      33.128  -7.552  38.077  1.00  0.00    -0.333 N 
HETATM   18  H14 UNK     1      33.638  -8.042  38.806  1.00  0.00     0.168 HD
BRANCH  17  19
HETATM   19  C13 UNK     1      31.756  -7.758  38.217  1.00  0.00     0.036 A 
HETATM   20  C16 UNK     1      30.894  -6.673  38.328  1.00  0.00     0.067 A 
HETATM   21  C14 UNK     1      29.523  -6.903  38.467  1.00  0.00     0.092 A 
HETATM   22  C11 UNK     1      28.983  -8.189  38.497  1.00  0.00     0.004 A 
HETATM   23  O2  UNK     1      28.701  -5.763  38.575  1.00  0.00    -0.275 OA
HETATM   24  C15 UNK     1      27.528  -8.337  38.645  1.00  0.00    -0.043 A 
HETATM   25  C17 UNK     1      29.868  -9.269  38.382  1.00  0.00     0.017 A 
HETATM   26  C19 UNK     1      26.771  -7.236  38.746  1.00  0.00     0.090 A 
HETATM   27  C20 UNK     1      26.916  -9.706  38.680  1.00  0.00     0.049 C 
HETATM   28  C22 UNK     1      27.326  -5.873  38.716  1.00  0.00     0.288 A 
HETATM   29  O3  UNK     1      26.601  -4.888  38.811  1.00  0.00    -0.260 OA
HETATM   30  C18 UNK     1      31.244  -9.055  38.244  1.00  0.00     0.030 A 
ENDBRANCH  17  19
ENDBRANCH   2  17
TORSDOF 6
ENDMDL
MODEL 6
REMARK VINA RESULT:      -8.2     16.669     19.457
REMARK  6 active torsions:
REMARK  status: ('A' for Active; 'I' for Inactive)
REMARK    1  A    between atoms: C10_16  and  O1_2 
REMARK    2  A    between atoms: C12_18  and  N1_5 
REMARK    3  A    between atoms: C8_14  and  N1_5 
REMARK    4  A    between atoms: C12_18  and  N2_6 
REMARK    5  A    between atoms: C13_19  and  N2_6 
REMARK    6  A    between atoms: C1_7  and  C2_8 
ROOT
HETATM    1  S1  UNK     1      28.225  -7.992  35.593  1.00  0.00    -0.041 SA
HETATM    2  C12 UNK     1      28.893  -6.621  34.874  1.00  0.00     0.176 C 
ENDROOT
BRANCH   2   3
HETATM    3  N1  UNK     1      29.467  -5.690  35.726  1.00  0.00    -0.331 N 
HETATM    4  H13 UNK     1      28.934  -4.828  35.818  1.00  0.00     0.168 HD
BRANCH   3   5
HETATM    5  C8  UNK     1      30.741  -5.646  36.308  1.00  0.00     0.068 A 
HETATM    6  C10 UNK     1      30.883  -5.607  37.692  1.00  0.00     0.095 A 
HETATM    7  C9  UNK     1      32.158  -5.564  38.257  1.00  0.00     0.039 A 
HETATM    8  C7  UNK     1      33.285  -5.558  37.437  1.00  0.00     0.011 A 
HETATM    9  C2  UNK     1      33.138  -5.598  36.050  1.00  0.00    -0.048 A 
HETATM   10  C6  UNK     1      31.864  -5.642  35.485  1.00  0.00     0.040 A 
BRANCH   6  11
HETATM   11  O1  UNK     1      29.794  -5.613  38.512  1.00  0.00    -0.354 OA
HETATM   12  C21 UNK     1      29.425  -4.371  39.108  1.00  0.00     0.210 C 
ENDBRANCH   6  11
BRANCH   9  13
HETATM   13  C1  UNK     1      34.345  -5.593  35.173  1.00  0.00    -0.024 C 
HETATM   14  C3  UNK     1      34.619  -4.170  34.596  1.00  0.00     0.019 C 
HETATM   15  C4  UNK     1      34.171  -6.565  33.965  1.00  0.00     0.019 C 
HETATM   16  C5  UNK     1      35.679  -6.026  35.866  1.00  0.00     0.019 C 
ENDBRANCH   9  13
ENDBRANCH   3   5
ENDBRANCH   2   3
BRANCH   2  17
HETATM   17  N2  UNK     1      28.815  -6.286  33.519  1.00  0.00    -0.333 N 
HETATM   18  H14 UNK     1      28.229  -5.475  33.344  1.00  0.00     0.168 HD
BRANCH  17  19
HETATM   19  C13 UNK     1      28.945  -7.054  32.363  1.00  0.00     0.036 A 
HETATM   20  C16 UNK     1      30.176  -7.153  31.724  1.00  0.00     0.067 A 
HETATM   21  C14 UNK     1      30.284  -7.929  30.568  1.00  0.00     0.092 A 
HETATM   22  C11 UNK     1      29.196  -8.613  30.026  1.00  0.00     0.004 A 
HETATM   23  O2  UNK     1      31.557  -7.990  29.966  1.00  0.00    -0.275 OA
HETATM   24  C15 UNK     1      29.401  -9.407  28.806  1.00  0.00    -0.043 A 
HETATM   25  C17 UNK     1      27.964  -8.501  30.685  1.00  0.00     0.017 A 
HETATM   26  C19 UNK     1      30.622  -9.447  28.256  1.00  0.00     0.090 A 
HETATM   27  C20 UNK     1      28.250 -10.155  28.199  1.00  0.00     0.049 C 
HETATM   28  C22 UNK     1      31.779  -8.730  28.816  1.00  0.00     0.288 A 
HETATM   29  O3  UNK     1      32.883  -8.790  28.284  1.00  0.00    -0.260 OA
HETATM   30  C18 UNK     1      27.840  -7.727  31.844  1.00  0.00     0.030 A 
ENDBRANCH  17  19
ENDBRANCH   2  17
TORSDOF 6
ENDMDL
MODEL 7
REMARK VINA RESULT:      -8.1     16.494     18.207
REMARK  6 active torsions:
REMARK  status: ('A' for Active; 'I' for Inactive)
REMARK    1  A    between atoms: C10_16  and  O1_2 
REMARK    2  A    between atoms: C12_18  and  N1_5 
REMARK    3  A    between atoms: C8_14  and  N1_5 
REMARK    4  A    between atoms: C12_18  and  N2_6 
REMARK    5  A    between atoms: C13_19  and  N2_6 
REMARK    6  A    between atoms: C1_7  and  C2_8 
ROOT
HETATM    1  S1  UNK     1      33.538  -7.771  35.958  1.00  0.00    -0.041 SA
HETATM    2  C12 UNK     1      32.126  -6.955  36.388  1.00  0.00     0.176 C 
ENDROOT
BRANCH   2   3
HETATM    3  N1  UNK     1      31.561  -7.293  37.609  1.00  0.00    -0.331 N 
HETATM    4  H13 UNK     1      32.107  -7.961  38.148  1.00  0.00     0.168 HD
BRANCH   3   5
HETATM    5  C8  UNK     1      30.283  -7.040  38.126  1.00  0.00     0.068 A 
HETATM    6  C10 UNK     1      29.943  -5.767  38.575  1.00  0.00     0.095 A 
HETATM    7  C9  UNK     1      28.667  -5.531  39.088  1.00  0.00     0.039 A 
HETATM    8  C7  UNK     1      27.738  -6.568  39.150  1.00  0.00     0.011 A 
HETATM    9  C2  UNK     1      28.082  -7.842  38.699  1.00  0.00    -0.048 A 
HETATM   10  C6  UNK     1      29.357  -8.079  38.186  1.00  0.00     0.040 A 
BRANCH   6  11
HETATM   11  O1  UNK     1      30.836  -4.740  38.521  1.00  0.00    -0.354 OA
HETATM   12  C21 UNK     1      30.501  -3.633  37.685  1.00  0.00     0.210 C 
ENDBRANCH   6  11
BRANCH   9  13
HETATM   13  C1  UNK     1      27.086  -8.951  38.765  1.00  0.00    -0.024 C 
HETATM   14  C3  UNK     1      27.428  -9.949  39.914  1.00  0.00     0.019 C 
HETATM   15  C4  UNK     1      27.050  -9.761  37.432  1.00  0.00     0.019 C 
HETATM   16  C5  UNK     1      25.607  -8.509  39.024  1.00  0.00     0.019 C 
ENDBRANCH   9  13
ENDBRANCH   3   5
ENDBRANCH   2   3
BRANCH   2  17
HETATM   17  N2  UNK     1      31.416  -6.064  35.580  1.00  0.00    -0.333 N 
HETATM   18  H14 UNK     1      31.104  -5.236  36.079  1.00  0.00     0.168 HD
BRANCH  17  19
HETATM   19  C13 UNK     1      30.648  -6.260  34.432  1.00  0.00     0.036 A 
HETATM   20  C16 UNK     1      31.265  -6.390  33.192  1.00  0.00     0.067 A 
HETATM   21  C14 UNK     1      30.477  -6.587  32.056  1.00  0.00     0.092 A 
HETATM   22  C11 UNK     1      29.085  -6.660  32.119  1.00  0.00     0.004 A 
HETATM   23  O2  UNK     1      31.160  -6.711  30.830  1.00  0.00    -0.275 OA
HETATM   24  C15 UNK     1      28.336  -6.870  30.872  1.00  0.00    -0.043 A 
HETATM   25  C17 UNK     1      28.483  -6.527  33.377  1.00  0.00     0.017 A 
HETATM   26  C19 UNK     1      29.011  -6.985  29.720  1.00  0.00     0.090 A 
HETATM   27  C20 UNK     1      26.838  -6.953  30.905  1.00  0.00     0.049 C 
HETATM   28  C22 UNK     1      30.479  -6.910  29.639  1.00  0.00     0.288 A 
HETATM   29  O3  UNK     1      31.063  -7.020  28.566  1.00  0.00    -0.260 OA
HETATM   30  C18 UNK     1      29.259  -6.328  34.524  1.00  0.00     0.030 A 
ENDBRANCH  17  19
ENDBRANCH   2  17
TORSDOF 6
ENDMDL
MODEL 8
REMARK VINA RESULT:      -8.1     16.462     18.793
REMARK  6 active torsions:
REMARK  status: ('A' for Active; 'I' for Inactive)
REMARK    1  A    between atoms: C10_16  and  O1_2 
REMARK    2  A    between atoms: C12_18  and  N1_5 
REMARK    3  A    between atoms: C8_14  and  N1_5 
REMARK    4  A    between atoms: C12_18  and  N2_6 
REMARK    5  A    between atoms: C13_19  and  N2_6 
REMARK    6  A    between atoms: C1_7  and  C2_8 
ROOT
HETATM    1  S1  UNK     1      27.380  -8.517  36.661  1.00  0.00    -0.041 SA
HETATM    2  C12 UNK     1      28.407  -7.310  36.085  1.00  0.00     0.176 C 
ENDROOT
BRANCH   2   3
HETATM    3  N1  UNK     1      29.463  -6.948  36.908  1.00  0.00    -0.331 N 
HETATM    4  H13 UNK     1      29.382  -7.292  37.862  1.00  0.00     0.168 HD
BRANCH   3   5
HETATM    5  C8  UNK     1      30.499  -6.025  36.714  1.00  0.00     0.068 A 
HETATM    6  C10 UNK     1      30.407  -4.739  37.239  1.00  0.00     0.095 A 
HETATM    7  C9  UNK     1      31.447  -3.831  37.037  1.00  0.00     0.039 A 
HETATM    8  C7  UNK     1      32.574  -4.212  36.311  1.00  0.00     0.011 A 
HETATM    9  C2  UNK     1      32.664  -5.502  35.787  1.00  0.00    -0.048 A 
HETATM   10  C6  UNK     1      31.624  -6.410  35.989  1.00  0.00     0.040 A 
BRANCH   6  11
HETATM   11  O1  UNK     1      29.314  -4.347  37.953  1.00  0.00    -0.354 OA
HETATM   12  C21 UNK     1      29.524  -4.002  39.321  1.00  0.00     0.210 C 
ENDBRANCH   6  11
BRANCH   9  13
HETATM   13  C1  UNK     1      33.871  -5.909  35.012  1.00  0.00    -0.024 C 
HETATM   14  C3  UNK     1      33.476  -6.684  33.717  1.00  0.00     0.019 C 
HETATM   15  C4  UNK     1      34.798  -6.839  35.854  1.00  0.00     0.019 C 
HETATM   16  C5  UNK     1      34.786  -4.734  34.530  1.00  0.00     0.019 C 
ENDBRANCH   9  13
ENDBRANCH   3   5
ENDBRANCH   2   3
BRANCH   2  17
HETATM   17  N2  UNK     1      28.223  -6.566  34.917  1.00  0.00    -0.333 N 
HETATM   18  H14 UNK     1      27.337  -6.069  34.898  1.00  0.00     0.168 HD
BRANCH  17  19
HETATM   19  C13 UNK     1      28.721  -6.727  33.624  1.00  0.00     0.036 A 
HETATM   20  C16 UNK     1      28.164  -7.676  32.774  1.00  0.00     0.067 A 
HETATM   21  C14 UNK     1      28.677  -7.820  31.483  1.00  0.00     0.092 A 
HETATM   22  C11 UNK     1      29.734  -7.042  31.011  1.00  0.00     0.004 A 
HETATM   23  O2  UNK     1      28.071  -8.799  30.670  1.00  0.00    -0.275 OA
HETATM   24  C15 UNK     1      30.209  -7.261  29.638  1.00  0.00    -0.043 A 
HETATM   25  C17 UNK     1      30.281  -6.090  31.882  1.00  0.00     0.017 A 
HETATM   26  C19 UNK     1      29.615  -8.198  28.887  1.00  0.00     0.090 A 
HETATM   27  C20 UNK     1      31.344  -6.440  29.099  1.00  0.00     0.049 C 
HETATM   28  C22 UNK     1      28.499  -9.027  29.371  1.00  0.00     0.288 A 
HETATM   29  O3  UNK     1      27.979  -9.876  28.655  1.00  0.00    -0.260 OA
HETATM   30  C18 UNK     1      29.778  -5.935  33.179  1.00  0.00     0.030 A 
ENDBRANCH  17  19
ENDBRANCH   2  17
TORSDOF 6
ENDMDL
MODEL 9
REMARK VINA RESULT:      -8.1     23.575     25.573
REMARK  6 active torsions:
REMARK  status: ('A' for Active; 'I' for Inactive)
REMARK    1  A    between atoms: C10_16  and  O1_2 
REMARK    2  A    between atoms: C12_18  and  N1_5 
REMARK    3  A    between atoms: C8_14  and  N1_5 
REMARK    4  A    between atoms: C12_18  and  N2_6 
REMARK    5  A    between atoms: C13_19  and  N2_6 
REMARK    6  A    between atoms: C1_7  and  C2_8 
ROOT
HETATM    1  S1  UNK     1      13.017   6.531   7.090  1.00  0.00    -0.041 SA
HETATM    2  C12 UNK     1      12.260   7.484   8.256  1.00  0.00     0.176 C 
ENDROOT
BRANCH   2   3
HETATM    3  N1  UNK     1      12.960   7.696   9.434  1.00  0.00    -0.331 N 
HETATM    4  H13 UNK     1      12.369   7.777  10.259  1.00  0.00     0.168 HD
BRANCH   3   5
HETATM    5  C8  UNK     1      14.304   8.027   9.653  1.00  0.00     0.068 A 
HETATM    6  C10 UNK     1      15.165   7.115  10.256  1.00  0.00     0.095 A 
HETATM    7  C9  UNK     1      16.501   7.457  10.467  1.00  0.00     0.039 A 
HETATM    8  C7  UNK     1      16.970   8.711  10.075  1.00  0.00     0.011 A 
HETATM    9  C2  UNK     1      16.103   9.622   9.471  1.00  0.00    -0.048 A 
HETATM   10  C6  UNK     1      14.768   9.279   9.259  1.00  0.00     0.040 A 
BRANCH   6  11
HETATM   11  O1  UNK     1      14.728   5.884  10.644  1.00  0.00    -0.354 OA
HETATM   12  C21 UNK     1      15.220   4.761   9.914  1.00  0.00     0.210 C 
ENDBRANCH   6  11
BRANCH   9  13
HETATM   13  C1  UNK     1      16.606  10.962   9.051  1.00  0.00    -0.024 C 
HETATM   14  C3  UNK     1      16.533  11.986  10.226  1.00  0.00     0.019 C 
HETATM   15  C4  UNK     1      15.764  11.539   7.871  1.00  0.00     0.019 C 
HETATM   16  C5  UNK     1      18.091  10.998   8.560  1.00  0.00     0.019 C 
ENDBRANCH   9  13
ENDBRANCH   3   5
ENDBRANCH   2   3
BRANCH   2  17
HETATM   17  N2  UNK     1      10.953   7.976   8.191  1.00  0.00    -0.333 N 
HETATM   18  H14 UNK     1      10.912   8.965   7.962  1.00  0.00     0.168 HD
BRANCH  17  19
HETATM   19  C13 UNK     1       9.775   7.570   8.816  1.00  0.00     0.036 A 
HETATM   20  C16 UNK     1       9.329   6.259   8.682  1.00  0.00     0.067 A 
HETATM   21  C14 UNK     1       8.147   5.874   9.318  1.00  0.00     0.092 A 
HETATM   22  C11 UNK     1       7.393   6.759  10.089  1.00  0.00     0.004 A 
HETATM   23  O2  UNK     1       7.746   4.534   9.145  1.00  0.00    -0.275 OA
HETATM   24  C15 UNK     1       6.162   6.266  10.723  1.00  0.00    -0.043 A 
HETATM   25  C17 UNK     1       7.860   8.075  10.213  1.00  0.00     0.017 A 
HETATM   26  C19 UNK     1       5.805   4.988  10.541  1.00  0.00     0.090 A 
HETATM   27  C20 UNK     1       5.328   7.193  11.559  1.00  0.00     0.049 C 
HETATM   28  C22 UNK     1       6.590   4.042   9.731  1.00  0.00     0.288 A 
HETATM   29  O3  UNK     1       6.232   2.878   9.586  1.00  0.00    -0.260 OA
HETATM   30  C18 UNK     1       9.042   8.476   9.581  1.00  0.00     0.030 A 
ENDBRANCH  17  19
ENDBRANCH   2  17
TORSDOF 6
ENDMDL
MODEL 10
REMARK VINA RESULT:      -8.1     16.347     18.514
REMARK  6 active torsions:
REMARK  status: ('A' for Active; 'I' for Inactive)
REMARK    1  A    between atoms: C10_16  and  O1_2 
REMARK    2  A    between atoms: C12_18  and  N1_5 
REMARK    3  A    between atoms: C8_14  and  N1_5 
REMARK    4  A    between atoms: C12_18  and  N2_6 
REMARK    5  A    between atoms: C13_19  and  N2_6 
REMARK    6  A    between atoms: C1_7  and  C2_8 
ROOT
HETATM    1  S1  UNK     1      32.624  -9.072  35.272  1.00  0.00    -0.041 SA
HETATM    2  C12 UNK     1      31.644  -7.805  35.796  1.00  0.00     0.176 C 
ENDROOT
BRANCH   2   3
HETATM    3  N1  UNK     1      31.374  -7.750  37.155  1.00  0.00    -0.331 N 
HETATM    4  H13 UNK     1      32.095  -8.168  37.739  1.00  0.00     0.168 HD
BRANCH   3   5
HETATM    5  C8  UNK     1      30.199  -7.414  37.841  1.00  0.00     0.068 A 
HETATM    6  C10 UNK     1      30.055  -6.157  38.421  1.00  0.00     0.095 A 
HETATM    7  C9  UNK     1      28.880  -5.837  39.101  1.00  0.00     0.039 A 
HETATM    8  C7  UNK     1      27.853  -6.776  39.198  1.00  0.00     0.011 A 
HETATM    9  C2  UNK     1      28.000  -8.034  38.615  1.00  0.00    -0.048 A 
HETATM   10  C6  UNK     1      29.175  -8.354  37.935  1.00  0.00     0.040 A 
BRANCH   6  11
HETATM   11  O1  UNK     1      31.046  -5.225  38.336  1.00  0.00    -0.354 OA
HETATM   12  C21 UNK     1      30.825  -4.123  37.458  1.00  0.00     0.210 C 
ENDBRANCH   6  11
BRANCH   9  13
HETATM   13  C1  UNK     1      26.901  -9.036  38.719  1.00  0.00    -0.024 C 
HETATM   14  C3  UNK     1      25.523  -8.342  38.949  1.00  0.00     0.019 C 
HETATM   15  C4  UNK     1      27.139 -10.017  39.909  1.00  0.00     0.019 C 
HETATM   16  C5  UNK     1      26.702  -9.947  37.462  1.00  0.00     0.019 C 
ENDBRANCH   9  13
ENDBRANCH   3   5
ENDBRANCH   2   3
BRANCH   2  17
HETATM   17  N2  UNK     1      30.988  -6.883  34.976  1.00  0.00    -0.333 N 
HETATM   18  H14 UNK     1      30.845  -5.983  35.425  1.00  0.00     0.168 HD
BRANCH  17  19
HETATM   19  C13 UNK     1      30.093  -7.050  33.920  1.00  0.00     0.036 A 
HETATM   20  C16 UNK     1      30.333  -8.013  32.946  1.00  0.00     0.067 A 
HETATM   21  C14 UNK     1      29.422  -8.165  31.898  1.00  0.00     0.092 A 
HETATM   22  C11 UNK     1      28.273  -7.382  31.791  1.00  0.00     0.004 A 
HETATM   23  O2  UNK     1      29.721  -9.157  30.942  1.00  0.00    -0.275 OA
HETATM   24  C15 UNK     1      27.369  -7.611  30.655  1.00  0.00    -0.043 A 
HETATM   25  C17 UNK     1      28.048  -6.417  32.783  1.00  0.00     0.017 A 
HETATM   26  C19 UNK     1      27.678  -8.560  29.762  1.00  0.00     0.090 A 
HETATM   27  C20 UNK     1      26.124  -6.785  30.512  1.00  0.00     0.049 C 
HETATM   28  C22 UNK     1      28.887  -9.394  29.861  1.00  0.00     0.288 A 
HETATM   29  O3  UNK     1      29.137 -10.255  29.023  1.00  0.00    -0.260 OA
HETATM   30  C18 UNK     1      28.952  -6.253  33.839  1.00  0.00     0.030 A 
ENDBRANCH  17  19
ENDBRANCH   2  17
TORSDOF 6
ENDMDL
