MODEL 1
REMARK VINA RESULT:      -9.2      0.000      0.000
REMARK  2 active torsions:
REMARK  status: ('A' for Active; 'I' for Inactive)
REMARK    1  A    between atoms: C16_22  and  N1_5 
REMARK    2  A    between atoms: C11_17  and  C4_10 
ROOT
HETATM    1  O1  UNK     1      20.423  -3.437  13.032  1.00  0.00    -0.332 OA
HETATM    2  O2  UNK     1      17.002  -4.037  16.442  1.00  0.00    -0.274 OA
HETATM    3  O3  UNK     1      19.327  -0.132  13.986  1.00  0.00    -0.289 OA
HETATM    4  O4  UNK     1      15.342  -4.375  17.983  1.00  0.00    -0.260 OA
HETATM    5  C1  UNK     1      19.976  -2.110  12.748  1.00  0.00     0.125 C 
HETATM    6  C2  UNK     1      18.775  -3.662  14.815  1.00  0.00     0.048 A 
HETATM    7  C3  UNK     1      19.396  -1.358  13.951  1.00  0.00     0.196 C 
HETATM    8  C4  UNK     1      18.885  -2.216  15.062  1.00  0.00     0.044 C 
HETATM    9  C5  UNK     1      19.586  -4.200  13.805  1.00  0.00     0.084 A 
HETATM   10  C6  UNK     1      21.221  -1.359  12.257  1.00  0.00     0.055 C 
HETATM   11  C7  UNK     1      18.933  -2.146  11.624  1.00  0.00     0.055 C 
HETATM   12  C8  UNK     1      17.917  -4.549  15.489  1.00  0.00     0.103 A 
HETATM   13  C9  UNK     1      17.911  -5.922  15.227  1.00  0.00    -0.001 A 
HETATM   14  C10 UNK     1      19.609  -5.575  13.549  1.00  0.00     0.039 A 
HETATM   15  C12 UNK     1      18.775  -6.435  14.260  1.00  0.00     0.017 A 
HETATM   16  C13 UNK     1      17.005  -6.789  15.965  1.00  0.00     0.020 A 
HETATM   17  C14 UNK     1      16.166  -6.281  16.870  1.00  0.00     0.083 A 
HETATM   18  C15 UNK     1      16.120  -4.838  17.157  1.00  0.00     0.288 A 
ENDROOT
BRANCH   8  19
HETATM   19  C11 UNK     1      18.679  -1.613  16.243  1.00  0.00     0.104 C 
HETATM   20  N1  UNK     1      19.296  -0.511  16.728  1.00  0.00    -0.365 N 
HETATM   21  H11 UNK     1      19.997  -0.081  16.136  1.00  0.00     0.165 HD
BRANCH  20  22
HETATM   22  C16 UNK     1      19.098   0.139  17.961  1.00  0.00     0.034 A 
HETATM   23  C17 UNK     1      18.902   1.515  18.001  1.00  0.00     0.048 A 
HETATM   24  C19 UNK     1      18.711   2.109  19.240  1.00  0.00     0.118 A 
HETATM   25  N2  UNK     1      18.704   1.432  20.410  1.00  0.00    -0.273 NA
HETATM   26  C20 UNK     1      18.898   0.096  20.332  1.00  0.00     0.118 A 
HETATM   27  C18 UNK     1      19.098  -0.591  19.146  1.00  0.00     0.048 A 
ENDBRANCH  20  22
ENDBRANCH   8  19
TORSDOF 2
ENDMDL
MODEL 2
REMARK VINA RESULT:      -8.7     15.799     19.765
REMARK  2 active torsions:
REMARK  status: ('A' for Active; 'I' for Inactive)
REMARK    1  A    between atoms: C16_22  and  N1_5 
REMARK    2  A    between atoms: C11_17  and  C4_10 
ROOT
HETATM    1  O1  UNK     1      17.510   1.443  35.187  1.00  0.00    -0.332 OA
HETATM    2  O2  UNK     1      19.790  -2.070  32.708  1.00  0.00    -0.274 OA
HETATM    3  O3  UNK     1      17.150  -1.584  37.121  1.00  0.00    -0.289 OA
HETATM    4  O4  UNK     1      20.805  -3.703  31.463  1.00  0.00    -0.260 OA
HETATM    5  C1  UNK     1      16.754   0.490  35.936  1.00  0.00     0.125 C 
HETATM    6  C2  UNK     1      18.719  -0.342  34.047  1.00  0.00     0.048 A 
HETATM    7  C3  UNK     1      17.476  -0.834  36.205  1.00  0.00     0.196 C 
HETATM    8  C4  UNK     1      18.580  -1.170  35.255  1.00  0.00     0.044 C 
HETATM    9  C5  UNK     1      18.182   0.953  34.097  1.00  0.00     0.084 A 
HETATM   10  C6  UNK     1      16.464   1.169  37.282  1.00  0.00     0.055 C 
HETATM   11  C7  UNK     1      15.428   0.206  35.219  1.00  0.00     0.055 C 
HETATM   12  C8  UNK     1      19.329  -0.738  32.844  1.00  0.00     0.103 A 
HETATM   13  C9  UNK     1      19.466   0.132  31.758  1.00  0.00    -0.001 A 
HETATM   14  C10 UNK     1      18.334   1.842  33.028  1.00  0.00     0.039 A 
HETATM   15  C12 UNK     1      18.977   1.434  31.861  1.00  0.00     0.017 A 
HETATM   16  C13 UNK     1      20.113  -0.336  30.542  1.00  0.00     0.020 A 
HETATM   17  C14 UNK     1      20.555  -1.592  30.448  1.00  0.00     0.083 A 
HETATM   18  C15 UNK     1      20.406  -2.548  31.557  1.00  0.00     0.288 A 
ENDROOT
BRANCH   8  19
HETATM   19  C11 UNK     1      19.434  -2.132  35.639  1.00  0.00     0.104 C 
HETATM   20  N1  UNK     1      19.135  -3.355  36.135  1.00  0.00    -0.365 N 
HETATM   21  H11 UNK     1      18.151  -3.582  36.229  1.00  0.00     0.165 HD
BRANCH  20  22
HETATM   22  C16 UNK     1      20.010  -4.378  36.544  1.00  0.00     0.034 A 
HETATM   23  C17 UNK     1      20.949  -4.137  37.542  1.00  0.00     0.048 A 
HETATM   24  C19 UNK     1      21.788  -5.177  37.910  1.00  0.00     0.118 A 
HETATM   25  N2  UNK     1      21.750  -6.411  37.359  1.00  0.00    -0.273 NA
HETATM   26  C20 UNK     1      20.825  -6.608  36.393  1.00  0.00     0.118 A 
HETATM   27  C18 UNK     1      19.942  -5.636  35.953  1.00  0.00     0.048 A 
ENDBRANCH  20  22
ENDBRANCH   8  19
TORSDOF 2
ENDMDL
MODEL 3
REMARK VINA RESULT:      -8.6     20.507     23.516
REMARK  2 active torsions:
REMARK  status: ('A' for Active; 'I' for Inactive)
REMARK    1  A    between atoms: C16_22  and  N1_5 
REMARK    2  A    between atoms: C11_17  and  C4_10 
ROOT
HETATM    1  O1  UNK     1      32.010  -3.902  36.717  1.00  0.00    -0.332 OA
HETATM    2  O2  UNK     1      28.669  -7.440  36.592  1.00  0.00    -0.274 OA
HETATM    3  O3  UNK     1      33.102  -6.265  34.215  1.00  0.00    -0.289 OA
HETATM    4  O4  UNK     1      27.111  -9.119  36.630  1.00  0.00    -0.260 OA
HETATM    5  C1  UNK     1      32.986  -4.736  36.089  1.00  0.00     0.125 C 
HETATM    6  C2  UNK     1      30.324  -5.655  36.532  1.00  0.00     0.048 A 
HETATM    7  C3  UNK     1      32.416  -5.755  35.098  1.00  0.00     0.196 C 
HETATM    8  C4  UNK     1      30.980  -6.118  35.299  1.00  0.00     0.044 C 
HETATM    9  C5  UNK     1      30.880  -4.536  37.168  1.00  0.00     0.084 A 
HETATM   10  C6  UNK     1      33.909  -3.776  35.326  1.00  0.00     0.055 C 
HETATM   11  C7  UNK     1      33.800  -5.473  37.161  1.00  0.00     0.055 C 
HETATM   12  C8  UNK     1      29.200  -6.245  37.136  1.00  0.00     0.103 A 
HETATM   13  C9  UNK     1      28.606  -5.709  38.283  1.00  0.00    -0.001 A 
HETATM   14  C10 UNK     1      30.282  -3.974  38.301  1.00  0.00     0.039 A 
HETATM   15  C12 UNK     1      29.145  -4.558  38.857  1.00  0.00     0.017 A 
HETATM   16  C13 UNK     1      27.440  -6.362  38.857  1.00  0.00     0.020 A 
HETATM   17  C14 UNK     1      26.949  -7.477  38.313  1.00  0.00     0.083 A 
HETATM   18  C15 UNK     1      27.560  -8.090  37.122  1.00  0.00     0.288 A 
ENDROOT
BRANCH   8  19
HETATM   19  C11 UNK     1      30.366  -6.738  34.279  1.00  0.00     0.104 C 
HETATM   20  N1  UNK     1      29.257  -6.338  33.615  1.00  0.00    -0.365 N 
HETATM   21  H11 UNK     1      28.834  -5.468  33.915  1.00  0.00     0.165 HD
BRANCH  20  22
HETATM   22  C16 UNK     1      28.596  -6.969  32.545  1.00  0.00     0.034 A 
HETATM   23  C17 UNK     1      27.571  -6.312  31.872  1.00  0.00     0.048 A 
HETATM   24  C19 UNK     1      26.950  -6.976  30.825  1.00  0.00     0.118 A 
HETATM   25  N2  UNK     1      27.280  -8.222  30.418  1.00  0.00    -0.273 NA
HETATM   26  C20 UNK     1      28.281  -8.829  31.095  1.00  0.00     0.118 A 
HETATM   27  C18 UNK     1      28.963  -8.253  32.154  1.00  0.00     0.048 A 
ENDBRANCH  20  22
ENDBRANCH   8  19
TORSDOF 2
ENDMDL
MODEL 4
REMARK VINA RESULT:      -8.0     13.057     14.979
REMARK  2 active torsions:
REMARK  status: ('A' for Active; 'I' for Inactive)
REMARK    1  A    between atoms: C16_22  and  N1_5 
REMARK    2  A    between atoms: C11_17  and  C4_10 
ROOT
HETATM    1  O1  UNK     1      10.461   5.403   7.863  1.00  0.00    -0.332 OA
HETATM    2  O2  UNK     1      13.350   8.286  10.515  1.00  0.00    -0.274 OA
HETATM    3  O3  UNK     1       8.376   8.059   9.141  1.00  0.00    -0.289 OA
HETATM    4  O4  UNK     1      14.734   9.563  11.818  1.00  0.00    -0.260 OA
HETATM    5  C1  UNK     1       9.287   5.908   8.504  1.00  0.00     0.125 C 
HETATM    6  C2  UNK     1      11.870   6.944   9.122  1.00  0.00     0.048 A 
HETATM    7  C3  UNK     1       9.376   7.374   8.939  1.00  0.00     0.196 C 
HETATM    8  C4  UNK     1      10.757   7.907   9.137  1.00  0.00     0.044 C 
HETATM    9  C5  UNK     1      11.654   5.732   8.452  1.00  0.00     0.084 A 
HETATM   10  C6  UNK     1       8.167   5.774   7.464  1.00  0.00     0.055 C 
HETATM   11  C7  UNK     1       8.951   5.039   9.722  1.00  0.00     0.055 C 
HETATM   12  C8  UNK     1      13.122   7.125   9.735  1.00  0.00     0.103 A 
HETATM   13  C9  UNK     1      14.146   6.178   9.630  1.00  0.00    -0.001 A 
HETATM   14  C10 UNK     1      12.677   4.786   8.316  1.00  0.00     0.039 A 
HETATM   15  C12 UNK     1      13.921   5.010   8.902  1.00  0.00     0.017 A 
HETATM   16  C13 UNK     1      15.422   6.428  10.281  1.00  0.00     0.020 A 
HETATM   17  C14 UNK     1      15.615   7.539  10.994  1.00  0.00     0.083 A 
HETATM   18  C15 UNK     1      14.556   8.548  11.154  1.00  0.00     0.288 A 
ENDROOT
BRANCH   8  19
HETATM   19  C11 UNK     1      10.887   9.241   9.193  1.00  0.00     0.104 C 
HETATM   20  N1  UNK     1      10.580  10.060  10.226  1.00  0.00    -0.365 N 
HETATM   21  H11 UNK     1      10.208   9.622  11.061  1.00  0.00     0.165 HD
BRANCH  20  22
HETATM   22  C16 UNK     1      10.707  11.459  10.309  1.00  0.00     0.034 A 
HETATM   23  C17 UNK     1       9.652  12.280   9.925  1.00  0.00     0.048 A 
HETATM   24  C19 UNK     1       9.825  13.652  10.026  1.00  0.00     0.118 A 
HETATM   25  N2  UNK     1      10.957  14.240  10.475  1.00  0.00    -0.273 NA
HETATM   26  C20 UNK     1      11.960  13.410  10.840  1.00  0.00     0.118 A 
HETATM   27  C18 UNK     1      11.887  12.029  10.776  1.00  0.00     0.048 A 
ENDBRANCH  20  22
ENDBRANCH   8  19
TORSDOF 2
ENDMDL
MODEL 5
REMARK VINA RESULT:      -7.9     20.862     24.010
REMARK  2 active torsions:
REMARK  status: ('A' for Active; 'I' for Inactive)
REMARK    1  A    between atoms: C16_22  and  N1_5 
REMARK    2  A    between atoms: C11_17  and  C4_10 
ROOT
HETATM    1  O1  UNK     1      29.559  -9.138  38.503  1.00  0.00    -0.332 OA
HETATM    2  O2  UNK     1      31.297  -5.887  35.325  1.00  0.00    -0.274 OA
HETATM    3  O3  UNK     1      26.763  -8.075  36.482  1.00  0.00    -0.289 OA
HETATM    4  O4  UNK     1      32.149  -4.304  33.906  1.00  0.00    -0.260 OA
HETATM    5  C1  UNK     1      28.221  -8.672  38.321  1.00  0.00     0.125 C 
HETATM    6  C2  UNK     1      30.382  -7.578  36.819  1.00  0.00     0.048 A 
HETATM    7  C3  UNK     1      27.910  -8.147  36.916  1.00  0.00     0.196 C 
HETATM    8  C4  UNK     1      29.091  -7.694  36.121  1.00  0.00     0.044 C 
HETATM    9  C5  UNK     1      30.547  -8.343  37.983  1.00  0.00     0.084 A 
HETATM   10  C6  UNK     1      27.327  -9.889  38.596  1.00  0.00     0.055 C 
HETATM   11  C7  UNK     1      27.912  -7.577  39.350  1.00  0.00     0.055 C 
HETATM   12  C8  UNK     1      31.455  -6.758  36.431  1.00  0.00     0.103 A 
HETATM   13  C9  UNK     1      32.670  -6.746  37.124  1.00  0.00    -0.001 A 
HETATM   14  C10 UNK     1      31.765  -8.360  38.672  1.00  0.00     0.039 A 
HETATM   15  C12 UNK     1      32.826  -7.565  38.242  1.00  0.00     0.017 A 
HETATM   16  C13 UNK     1      33.746  -5.880  36.668  1.00  0.00     0.020 A 
HETATM   17  C14 UNK     1      33.576  -5.083  35.611  1.00  0.00     0.083 A 
HETATM   18  C15 UNK     1      32.304  -5.044  34.871  1.00  0.00     0.288 A 
ENDROOT
BRANCH   8  19
HETATM   19  C11 UNK     1      28.907  -7.542  34.801  1.00  0.00     0.104 C 
HETATM   20  N1  UNK     1      28.672  -6.394  34.125  1.00  0.00    -0.365 N 
HETATM   21  H11 UNK     1      28.629  -5.542  34.672  1.00  0.00     0.165 HD
BRANCH  20  22
HETATM   22  C16 UNK     1      28.475  -6.209  32.743  1.00  0.00     0.034 A 
HETATM   23  C17 UNK     1      27.409  -6.828  32.100  1.00  0.00     0.048 A 
HETATM   24  C19 UNK     1      27.259  -6.614  30.739  1.00  0.00     0.118 A 
HETATM   25  N2  UNK     1      28.084  -5.841  29.999  1.00  0.00    -0.273 NA
HETATM   26  C20 UNK     1      29.109  -5.255  30.658  1.00  0.00     0.118 A 
HETATM   27  C18 UNK     1      29.347  -5.405  32.014  1.00  0.00     0.048 A 
ENDBRANCH  20  22
ENDBRANCH   8  19
TORSDOF 2
ENDMDL
MODEL 6
REMARK VINA RESULT:      -7.8     19.396     21.210
REMARK  2 active torsions:
REMARK  status: ('A' for Active; 'I' for Inactive)
REMARK    1  A    between atoms: C16_22  and  N1_5 
REMARK    2  A    between atoms: C11_17  and  C4_10 
ROOT
HETATM    1  O1  UNK     1      33.400  -9.555  29.880  1.00  0.00    -0.332 OA
HETATM    2  O2  UNK     1      29.396  -7.359  31.562  1.00  0.00    -0.274 OA
HETATM    3  O3  UNK     1      34.515  -6.935  32.099  1.00  0.00    -0.289 OA
HETATM    4  O4  UNK     1      27.484  -6.308  32.261  1.00  0.00    -0.260 OA
HETATM    5  C1  UNK     1      34.217  -8.432  30.220  1.00  0.00     0.125 C 
HETATM    6  C2  UNK     1      31.435  -8.475  30.838  1.00  0.00     0.048 A 
HETATM    7  C3  UNK     1      33.756  -7.656  31.457  1.00  0.00     0.196 C 
HETATM    8  C4  UNK     1      32.312  -7.804  31.811  1.00  0.00     0.044 C 
HETATM    9  C5  UNK     1      32.046  -9.347  29.925  1.00  0.00     0.084 A 
HETATM   10  C6  UNK     1      35.609  -9.014  30.499  1.00  0.00     0.055 C 
HETATM   11  C7  UNK     1      34.301  -7.475  29.024  1.00  0.00     0.055 C 
HETATM   12  C8  UNK     1      30.043  -8.308  30.734  1.00  0.00     0.103 A 
HETATM   13  C9  UNK     1      29.275  -9.026  29.812  1.00  0.00    -0.001 A 
HETATM   14  C10 UNK     1      31.288 -10.090  29.014  1.00  0.00     0.039 A 
HETATM   15  C12 UNK     1      29.904  -9.932  28.959  1.00  0.00     0.017 A 
HETATM   16  C13 UNK     1      27.837  -8.814  29.758  1.00  0.00     0.020 A 
HETATM   17  C14 UNK     1      27.251  -7.926  30.563  1.00  0.00     0.083 A 
HETATM   18  C15 UNK     1      28.025  -7.129  31.529  1.00  0.00     0.288 A 
ENDROOT
BRANCH   8  19
HETATM   19  C11 UNK     1      31.950  -7.418  33.044  1.00  0.00     0.104 C 
HETATM   20  N1  UNK     1      31.609  -6.175  33.455  1.00  0.00    -0.365 N 
HETATM   21  H11 UNK     1      31.624  -5.442  32.755  1.00  0.00     0.165 HD
BRANCH  20  22
HETATM   22  C16 UNK     1      31.227  -5.746  34.740  1.00  0.00     0.034 A 
HETATM   23  C17 UNK     1      32.027  -4.853  35.445  1.00  0.00     0.048 A 
HETATM   24  C19 UNK     1      31.608  -4.460  36.706  1.00  0.00     0.118 A 
HETATM   25  N2  UNK     1      30.469  -4.891  37.293  1.00  0.00    -0.273 NA
HETATM   26  C20 UNK     1      29.716  -5.757  36.578  1.00  0.00     0.118 A 
HETATM   27  C18 UNK     1      30.047  -6.211  35.312  1.00  0.00     0.048 A 
ENDBRANCH  20  22
ENDBRANCH   8  19
TORSDOF 2
ENDMDL
MODEL 7
REMARK VINA RESULT:      -7.8     19.424     21.700
REMARK  2 active torsions:
REMARK  status: ('A' for Active; 'I' for Inactive)
REMARK    1  A    between atoms: C16_22  and  N1_5 
REMARK    2  A    between atoms: C11_17  and  C4_10 
ROOT
HETATM    1  O1  UNK     1      28.966  -6.855  29.609  1.00  0.00    -0.332 OA
HETATM    2  O2  UNK     1      32.679  -7.256  32.730  1.00  0.00    -0.274 OA
HETATM    3  O3  UNK     1      27.530  -6.903  32.921  1.00  0.00    -0.289 OA
HETATM    4  O4  UNK     1      34.455  -7.527  34.152  1.00  0.00    -0.260 OA
HETATM    5  C1  UNK     1      28.031  -7.314  30.588  1.00  0.00     0.125 C 
HETATM    6  C2  UNK     1      30.785  -6.954  31.231  1.00  0.00     0.048 A 
HETATM    7  C3  UNK     1      28.376  -6.934  32.031  1.00  0.00     0.196 C 
HETATM    8  C4  UNK     1      29.817  -6.639  32.294  1.00  0.00     0.044 C 
HETATM    9  C5  UNK     1      30.291  -7.023  29.920  1.00  0.00     0.084 A 
HETATM   10  C6  UNK     1      26.697  -6.653  30.215  1.00  0.00     0.055 C 
HETATM   11  C7  UNK     1      27.885  -8.837  30.487  1.00  0.00     0.055 C 
HETATM   12  C8  UNK     1      32.155  -7.207  31.415  1.00  0.00     0.103 A 
HETATM   13  C9  UNK     1      33.018  -7.449  30.341  1.00  0.00    -0.001 A 
HETATM   14  C10 UNK     1      31.146  -7.238  28.834  1.00  0.00     0.039 A 
HETATM   15  C12 UNK     1      32.507  -7.449  29.044  1.00  0.00     0.017 A 
HETATM   16  C13 UNK     1      34.428  -7.698  30.597  1.00  0.00     0.020 A 
HETATM   17  C14 UNK     1      34.898  -7.719  31.846  1.00  0.00     0.083 A 
HETATM   18  C15 UNK     1      34.020  -7.498  33.006  1.00  0.00     0.288 A 
ENDROOT
BRANCH   8  19
HETATM   19  C11 UNK     1      30.103  -5.997  33.437  1.00  0.00     0.104 C 
HETATM   20  N1  UNK     1      30.241  -6.529  34.673  1.00  0.00    -0.365 N 
HETATM   21  H11 UNK     1      30.119  -7.533  34.755  1.00  0.00     0.165 HD
BRANCH  20  22
HETATM   22  C16 UNK     1      30.540  -5.879  35.885  1.00  0.00     0.034 A 
HETATM   23  C17 UNK     1      31.773  -5.259  36.060  1.00  0.00     0.048 A 
HETATM   24  C19 UNK     1      32.018  -4.632  37.272  1.00  0.00     0.118 A 
HETATM   25  N2  UNK     1      31.134  -4.585  38.293  1.00  0.00    -0.273 NA
HETATM   26  C20 UNK     1      29.946  -5.198  38.086  1.00  0.00     0.118 A 
HETATM   27  C18 UNK     1      29.604  -5.852  36.914  1.00  0.00     0.048 A 
ENDBRANCH  20  22
ENDBRANCH   8  19
TORSDOF 2
ENDMDL
MODEL 8
REMARK VINA RESULT:      -7.8     20.494     23.218
REMARK  2 active torsions:
REMARK  status: ('A' for Active; 'I' for Inactive)
REMARK    1  A    between atoms: C16_22  and  N1_5 
REMARK    2  A    between atoms: C11_17  and  C4_10 
ROOT
HETATM    1  O1  UNK     1      34.639  -5.125  33.942  1.00  0.00    -0.332 OA
HETATM    2  O2  UNK     1      30.294  -6.542  35.616  1.00  0.00    -0.274 OA
HETATM    3  O3  UNK     1      33.899  -8.278  32.348  1.00  0.00    -0.289 OA
HETATM    4  O4  UNK     1      28.285  -7.203  36.495  1.00  0.00    -0.260 OA
HETATM    5  C1  UNK     1      34.966  -6.453  33.527  1.00  0.00     0.125 C 
HETATM    6  C2  UNK     1      32.424  -5.845  34.662  1.00  0.00     0.048 A 
HETATM    7  C3  UNK     1      33.770  -7.295  33.074  1.00  0.00     0.196 C 
HETATM    8  C4  UNK     1      32.441  -6.865  33.602  1.00  0.00     0.044 C 
HETATM    9  C5  UNK     1      33.542  -5.003  34.754  1.00  0.00     0.084 A 
HETATM   10  C6  UNK     1      35.922  -6.283  32.338  1.00  0.00     0.055 C 
HETATM   11  C7  UNK     1      35.698  -7.181  34.661  1.00  0.00     0.055 C 
HETATM   12  C8  UNK     1      31.394  -5.649  35.599  1.00  0.00     0.103 A 
HETATM   13  C9  UNK     1      31.434  -4.619  36.544  1.00  0.00    -0.001 A 
HETATM   14  C10 UNK     1      33.585  -3.953  35.677  1.00  0.00     0.039 A 
HETATM   15  C12 UNK     1      32.532  -3.760  36.569  1.00  0.00     0.017 A 
HETATM   16  C13 UNK     1      30.333  -4.465  37.483  1.00  0.00     0.020 A 
HETATM   17  C14 UNK     1      29.301  -5.310  37.463  1.00  0.00     0.083 A 
HETATM   18  C15 UNK     1      29.232  -6.424  36.504  1.00  0.00     0.288 A 
ENDROOT
BRANCH   8  19
HETATM   19  C11 UNK     1      31.357  -7.359  32.983  1.00  0.00     0.104 C 
HETATM   20  N1  UNK     1      31.101  -7.381  31.655  1.00  0.00    -0.365 N 
HETATM   21  H11 UNK     1      31.807  -6.981  31.047  1.00  0.00     0.165 HD
BRANCH  20  22
HETATM   22  C16 UNK     1      29.975  -7.891  30.983  1.00  0.00     0.034 A 
HETATM   23  C17 UNK     1      28.713  -7.794  31.560  1.00  0.00     0.048 A 
HETATM   24  C19 UNK     1      27.636  -8.312  30.858  1.00  0.00     0.118 A 
HETATM   25  N2  UNK     1      27.736  -8.905  29.647  1.00  0.00    -0.273 NA
HETATM   26  C20 UNK     1      28.978  -8.981  29.117  1.00  0.00     0.118 A 
HETATM   27  C18 UNK     1      30.117  -8.496  29.737  1.00  0.00     0.048 A 
ENDBRANCH  20  22
ENDBRANCH   8  19
TORSDOF 2
ENDMDL
MODEL 9
REMARK VINA RESULT:      -7.8     20.224     23.043
REMARK  2 active torsions:
REMARK  status: ('A' for Active; 'I' for Inactive)
REMARK    1  A    between atoms: C16_22  and  N1_5 
REMARK    2  A    between atoms: C11_17  and  C4_10 
ROOT
HETATM    1  O1  UNK     1      30.612  -4.356  37.103  1.00  0.00    -0.332 OA
HETATM    2  O2  UNK     1      29.366  -8.336  34.594  1.00  0.00    -0.274 OA
HETATM    3  O3  UNK     1      32.918  -4.595  34.336  1.00  0.00    -0.289 OA
HETATM    4  O4  UNK     1      28.790 -10.262  33.495  1.00  0.00    -0.260 OA
HETATM    5  C1  UNK     1      31.920  -4.344  36.528  1.00  0.00     0.125 C 
HETATM    6  C2  UNK     1      29.979  -6.279  35.744  1.00  0.00     0.048 A 
HETATM    7  C3  UNK     1      31.994  -4.879  35.094  1.00  0.00     0.196 C 
HETATM    8  C4  UNK     1      30.888  -5.799  34.691  1.00  0.00     0.044 C 
HETATM    9  C5  UNK     1      29.879  -5.498  36.904  1.00  0.00     0.084 A 
HETATM   10  C6  UNK     1      32.346  -2.870  36.522  1.00  0.00     0.055 C 
HETATM   11  C7  UNK     1      32.881  -5.144  37.417  1.00  0.00     0.055 C 
HETATM   12  C8  UNK     1      29.217  -7.459  35.696  1.00  0.00     0.103 A 
HETATM   13  C9  UNK     1      28.336  -7.817  36.722  1.00  0.00    -0.001 A 
HETATM   14  C10 UNK     1      28.984  -5.830  37.926  1.00  0.00     0.039 A 
HETATM   15  C12 UNK     1      28.211  -6.986  37.834  1.00  0.00     0.017 A 
HETATM   16  C13 UNK     1      27.569  -9.048  36.610  1.00  0.00     0.020 A 
HETATM   17  C14 UNK     1      27.715  -9.846  35.551  1.00  0.00     0.083 A 
HETATM   18  C15 UNK     1      28.652  -9.521  34.462  1.00  0.00     0.288 A 
ENDROOT
BRANCH   8  19
HETATM   19  C11 UNK     1      30.738  -6.021  33.376  1.00  0.00     0.104 C 
HETATM   20  N1  UNK     1      31.354  -6.958  32.619  1.00  0.00    -0.365 N 
HETATM   21  H11 UNK     1      32.007  -7.572  33.094  1.00  0.00     0.165 HD
BRANCH  20  22
HETATM   22  C16 UNK     1      31.214  -7.211  31.242  1.00  0.00     0.034 A 
HETATM   23  C17 UNK     1      29.948  -7.357  30.683  1.00  0.00     0.048 A 
HETATM   24  C19 UNK     1      29.863  -7.604  29.322  1.00  0.00     0.118 A 
HETATM   25  N2  UNK     1      30.934  -7.712  28.504  1.00  0.00    -0.273 NA
HETATM   26  C20 UNK     1      32.147  -7.564  29.082  1.00  0.00     0.118 A 
HETATM   27  C18 UNK     1      32.340  -7.316  30.431  1.00  0.00     0.048 A 
ENDBRANCH  20  22
ENDBRANCH   8  19
TORSDOF 2
ENDMDL
MODEL 10
REMARK VINA RESULT:      -7.7     19.052     21.384
REMARK  2 active torsions:
REMARK  status: ('A' for Active; 'I' for Inactive)
REMARK    1  A    between atoms: C16_22  and  N1_5 
REMARK    2  A    between atoms: C11_17  and  C4_10 
ROOT
HETATM    1  O1  UNK     1      28.696  -6.266  33.820  1.00  0.00    -0.332 OA
HETATM    2  O2  UNK     1      29.992  -9.478  30.400  1.00  0.00    -0.274 OA
HETATM    3  O3  UNK     1      31.712  -7.864  34.996  1.00  0.00    -0.289 OA
HETATM    4  O4  UNK     1      30.512 -11.031  28.799  1.00  0.00    -0.260 OA
HETATM    5  C1  UNK     1      29.487  -6.928  34.809  1.00  0.00     0.125 C 
HETATM    6  C2  UNK     1      29.458  -7.821  32.103  1.00  0.00     0.048 A 
HETATM    7  C3  UNK     1      30.755  -7.598  34.273  1.00  0.00     0.196 C 
HETATM    8  C4  UNK     1      30.738  -7.942  32.819  1.00  0.00     0.044 C 
HETATM    9  C5  UNK     1      28.502  -6.953  32.650  1.00  0.00     0.084 A 
HETATM   10  C6  UNK     1      29.898  -5.830  35.801  1.00  0.00     0.055 C 
HETATM   11  C7  UNK     1      28.632  -7.972  35.539  1.00  0.00     0.055 C 
HETATM   12  C8  UNK     1      29.103  -8.510  30.930  1.00  0.00     0.103 A 
HETATM   13  C9  UNK     1      27.881  -8.298  30.283  1.00  0.00    -0.001 A 
HETATM   14  C10 UNK     1      27.286  -6.711  32.001  1.00  0.00     0.039 A 
HETATM   15  C12 UNK     1      26.977  -7.381  30.818  1.00  0.00     0.017 A 
HETATM   16  C13 UNK     1      27.576  -9.037  29.068  1.00  0.00     0.020 A 
HETATM   17  C14 UNK     1      28.441  -9.929  28.581  1.00  0.00     0.083 A 
HETATM   18  C15 UNK     1      29.725 -10.204  29.246  1.00  0.00     0.288 A 
ENDROOT
BRANCH   8  19
HETATM   19  C11 UNK     1      31.921  -8.220  32.250  1.00  0.00     0.104 C 
HETATM   20  N1  UNK     1      32.471  -7.641  31.158  1.00  0.00    -0.365 N 
HETATM   21  H11 UNK     1      31.934  -6.907  30.711  1.00  0.00     0.165 HD
BRANCH  20  22
HETATM   22  C16 UNK     1      33.708  -7.914  30.544  1.00  0.00     0.034 A 
HETATM   23  C17 UNK     1      34.026  -7.329  29.323  1.00  0.00     0.048 A 
HETATM   24  C19 UNK     1      35.256  -7.630  28.759  1.00  0.00     0.118 A 
HETATM   25  N2  UNK     1      36.164  -8.457  29.322  1.00  0.00    -0.273 NA
HETATM   26  C20 UNK     1      35.821  -9.007  30.509  1.00  0.00     0.118 A 
HETATM   27  C18 UNK     1      34.618  -8.771  31.154  1.00  0.00     0.048 A 
ENDBRANCH  20  22
ENDBRANCH   8  19
TORSDOF 2
ENDMDL
