MODEL 1
REMARK VINA RESULT:      -9.3      0.000      0.000
REMARK  4 active torsions:
REMARK  status: ('A' for Active; 'I' for Inactive)
REMARK    1  A    between atoms: C12_16  and  O2_2 
REMARK    2  A    between atoms: C6_10  and  O2_2 
REMARK    3  A    between atoms: C11_15  and  C13_17 
REMARK    4  A    between atoms: C12_16  and  C14_18 
ROOT
HETATM    1  O1  UNK     1      16.561   8.830  33.293  1.00  0.00    -0.275 OA
HETATM    2  O3  UNK     1      16.066  10.981  33.896  1.00  0.00    -0.260 OA
HETATM    3  C1  UNK     1      18.839   8.001  33.588  1.00  0.00     0.004 A 
HETATM    4  C2  UNK     1      19.220   9.314  34.128  1.00  0.00    -0.043 A 
HETATM    5  C3  UNK     1      17.517   7.802  33.186  1.00  0.00     0.092 A 
HETATM    6  C4  UNK     1      19.730   6.928  33.450  1.00  0.00     0.017 A 
HETATM    7  C5  UNK     1      17.073   6.587  32.663  1.00  0.00     0.075 A 
HETATM    8  C6  UNK     1      17.972   5.534  32.534  1.00  0.00     0.082 A 
HETATM    9  C7  UNK     1      19.298   5.704  32.926  1.00  0.00     0.038 A 
HETATM   10  C8  UNK     1      18.289  10.274  34.218  1.00  0.00     0.090 A 
HETATM   11  C9  UNK     1      20.633   9.560  34.570  1.00  0.00     0.049 C 
HETATM   12  C10 UNK     1      16.890  10.078  33.799  1.00  0.00     0.288 A 
ENDROOT
BRANCH   8  13
HETATM   13  O2  UNK     1      17.559   4.341  32.026  1.00  0.00    -0.276 OA
BRANCH  13  14
HETATM   14  C12 UNK     1      18.322   3.886  30.943  1.00  0.00     0.288 C 
HETATM   15  O4  UNK     1      18.668   4.547  29.975  1.00  0.00    -0.260 OA
BRANCH  14  16
HETATM   16  C14 UNK     1      18.642   2.456  31.166  1.00  0.00     0.083 C 
HETATM   17  C13 UNK     1      19.308   1.774  30.224  1.00  0.00     0.017 C 
BRANCH  17  18
HETATM   18  C11 UNK     1      19.675   0.351  30.325  1.00  0.00    -0.036 A 
HETATM   19  C15 UNK     1      19.469  -0.320  31.518  1.00  0.00     0.011 A 
HETATM   20  C17 UNK     1      19.817  -1.668  31.613  1.00  0.00     0.001 A 
HETATM   21  C19 UNK     1      20.364  -2.326  30.512  1.00  0.00     0.000 A 
HETATM   22  C18 UNK     1      20.566  -1.637  29.317  1.00  0.00     0.001 A 
HETATM   23  C16 UNK     1      20.219  -0.289  29.222  1.00  0.00     0.011 A 
ENDBRANCH  17  18
ENDBRANCH  14  16
ENDBRANCH  13  14
ENDBRANCH   8  13
TORSDOF 4
ENDMDL
MODEL 2
REMARK VINA RESULT:      -8.9      5.486      9.153
REMARK  4 active torsions:
REMARK  status: ('A' for Active; 'I' for Inactive)
REMARK    1  A    between atoms: C12_16  and  O2_2 
REMARK    2  A    between atoms: C6_10  and  O2_2 
REMARK    3  A    between atoms: C11_15  and  C13_17 
REMARK    4  A    between atoms: C12_16  and  C14_18 
ROOT
HETATM    1  O1  UNK     1      18.427   1.134  31.719  1.00  0.00    -0.275 OA
HETATM    2  O3  UNK     1      17.979   2.720  30.132  1.00  0.00    -0.260 OA
HETATM    3  C1  UNK     1      19.897  -0.734  31.160  1.00  0.00     0.004 A 
HETATM    4  C2  UNK     1      20.049  -0.177  29.808  1.00  0.00    -0.043 A 
HETATM    5  C3  UNK     1      19.088  -0.058  32.074  1.00  0.00     0.092 A 
HETATM    6  C4  UNK     1      20.521  -1.913  31.590  1.00  0.00     0.017 A 
HETATM    7  C5  UNK     1      18.890  -0.518  33.377  1.00  0.00     0.075 A 
HETATM    8  C6  UNK     1      19.518  -1.690  33.785  1.00  0.00     0.082 A 
HETATM    9  C7  UNK     1      20.331  -2.386  32.894  1.00  0.00     0.038 A 
HETATM   10  C8  UNK     1      19.408   0.958  29.498  1.00  0.00     0.090 A 
HETATM   11  C9  UNK     1      20.912  -0.880  28.802  1.00  0.00     0.049 C 
HETATM   12  C10 UNK     1      18.551   1.683  30.452  1.00  0.00     0.288 A 
ENDROOT
BRANCH   8  13
HETATM   13  O2  UNK     1      19.339  -2.155  35.052  1.00  0.00    -0.276 OA
BRANCH  13  14
HETATM   14  C12 UNK     1      20.510  -2.188  35.819  1.00  0.00     0.288 C 
HETATM   15  O4  UNK     1      21.480  -1.456  35.688  1.00  0.00    -0.260 OA
BRANCH  14  16
HETATM   16  C14 UNK     1      20.378  -3.267  36.826  1.00  0.00     0.083 C 
HETATM   17  C13 UNK     1      20.128  -4.520  36.421  1.00  0.00     0.017 C 
BRANCH  17  18
HETATM   18  C11 UNK     1      19.966  -5.674  37.323  1.00  0.00    -0.036 A 
HETATM   19  C15 UNK     1      18.952  -6.586  37.083  1.00  0.00     0.011 A 
HETATM   20  C17 UNK     1      18.800  -7.679  37.937  1.00  0.00     0.001 A 
HETATM   21  C19 UNK     1      19.665  -7.844  39.019  1.00  0.00     0.000 A 
HETATM   22  C18 UNK     1      20.681  -6.917  39.247  1.00  0.00     0.001 A 
HETATM   23  C16 UNK     1      20.833  -5.824  38.393  1.00  0.00     0.011 A 
ENDBRANCH  17  18
ENDBRANCH  14  16
ENDBRANCH  13  14
ENDBRANCH   8  13
TORSDOF 4
ENDMDL
MODEL 3
REMARK VINA RESULT:      -8.9      3.414      8.790
REMARK  4 active torsions:
REMARK  status: ('A' for Active; 'I' for Inactive)
REMARK    1  A    between atoms: C12_16  and  O2_2 
REMARK    2  A    between atoms: C6_10  and  O2_2 
REMARK    3  A    between atoms: C11_15  and  C13_17 
REMARK    4  A    between atoms: C12_16  and  C14_18 
ROOT
HETATM    1  O1  UNK     1      19.433  -0.748  33.043  1.00  0.00    -0.275 OA
HETATM    2  O3  UNK     1      19.413  -1.739  35.104  1.00  0.00    -0.260 OA
HETATM    3  C1  UNK     1      20.488  -1.908  31.170  1.00  0.00     0.004 A 
HETATM    4  C2  UNK     1      20.818  -3.017  32.075  1.00  0.00    -0.043 A 
HETATM    5  C3  UNK     1      19.804  -0.806  31.685  1.00  0.00     0.092 A 
HETATM    6  C4  UNK     1      20.820  -1.889  29.808  1.00  0.00     0.017 A 
HETATM    7  C5  UNK     1      19.452   0.289  30.894  1.00  0.00     0.075 A 
HETATM    8  C6  UNK     1      19.792   0.289  29.545  1.00  0.00     0.082 A 
HETATM    9  C7  UNK     1      20.475  -0.798  29.003  1.00  0.00     0.038 A 
HETATM   10  C8  UNK     1      20.453  -2.935  33.363  1.00  0.00     0.090 A 
HETATM   11  C9  UNK     1      21.552  -4.217  31.552  1.00  0.00     0.049 C 
HETATM   12  C10 UNK     1      19.731  -1.779  33.920  1.00  0.00     0.288 A 
ENDROOT
BRANCH   8  13
HETATM   13  O2  UNK     1      19.458   1.347  28.756  1.00  0.00    -0.276 OA
BRANCH  13  14
HETATM   14  C12 UNK     1      18.317   2.040  29.183  1.00  0.00     0.288 C 
HETATM   15  O4  UNK     1      17.157   1.702  28.999  1.00  0.00    -0.260 OA
BRANCH  14  16
HETATM   16  C14 UNK     1      18.755   3.261  29.899  1.00  0.00     0.083 C 
HETATM   17  C13 UNK     1      18.222   3.552  31.094  1.00  0.00     0.017 C 
BRANCH  17  18
HETATM   18  C11 UNK     1      18.568   4.738  31.897  1.00  0.00    -0.036 A 
HETATM   19  C15 UNK     1      17.786   5.069  32.991  1.00  0.00     0.011 A 
HETATM   20  C17 UNK     1      18.114   6.192  33.751  1.00  0.00     0.001 A 
HETATM   21  C19 UNK     1      19.220   6.968  33.406  1.00  0.00     0.000 A 
HETATM   22  C18 UNK     1      19.997   6.623  32.301  1.00  0.00     0.001 A 
HETATM   23  C16 UNK     1      19.669   5.500  31.541  1.00  0.00     0.011 A 
ENDBRANCH  17  18
ENDBRANCH  14  16
ENDBRANCH  13  14
ENDBRANCH   8  13
TORSDOF 4
ENDMDL
MODEL 4
REMARK VINA RESULT:      -8.9      8.974     14.462
REMARK  4 active torsions:
REMARK  status: ('A' for Active; 'I' for Inactive)
REMARK    1  A    between atoms: C12_16  and  O2_2 
REMARK    2  A    between atoms: C6_10  and  O2_2 
REMARK    3  A    between atoms: C11_15  and  C13_17 
REMARK    4  A    between atoms: C12_16  and  C14_18 
ROOT
HETATM    1  O1  UNK     1      21.496  -9.118  35.335  1.00  0.00    -0.275 OA
HETATM    2  O3  UNK     1      22.469 -11.138  34.883  1.00  0.00    -0.260 OA
HETATM    3  C1  UNK     1      19.928  -8.937  37.198  1.00  0.00     0.004 A 
HETATM    4  C2  UNK     1      20.132 -10.366  37.475  1.00  0.00    -0.043 A 
HETATM    5  C3  UNK     1      20.619  -8.358  36.133  1.00  0.00     0.092 A 
HETATM    6  C4  UNK     1      19.075  -8.113  37.945  1.00  0.00     0.017 A 
HETATM    7  C5  UNK     1      20.483  -7.009  35.802  1.00  0.00     0.075 A 
HETATM    8  C6  UNK     1      19.631  -6.207  36.555  1.00  0.00     0.082 A 
HETATM    9  C7  UNK     1      18.928  -6.759  37.624  1.00  0.00     0.038 A 
HETATM   10  C8  UNK     1      20.972 -11.064  36.699  1.00  0.00     0.090 A 
HETATM   11  C9  UNK     1      19.403 -11.019  38.614  1.00  0.00     0.049 C 
HETATM   12  C10 UNK     1      21.708 -10.467  35.572  1.00  0.00     0.288 A 
ENDROOT
BRANCH   8  13
HETATM   13  O2  UNK     1      19.485  -4.889  36.250  1.00  0.00    -0.276 OA
BRANCH  13  14
HETATM   14  C12 UNK     1      20.379  -4.045  36.921  1.00  0.00     0.288 C 
HETATM   15  O4  UNK     1      21.481  -4.353  37.347  1.00  0.00    -0.260 OA
BRANCH  14  16
HETATM   16  C14 UNK     1      19.759  -2.703  37.030  1.00  0.00     0.083 C 
HETATM   17  C13 UNK     1      18.473  -2.540  36.688  1.00  0.00     0.017 C 
BRANCH  17  18
HETATM   18  C11 UNK     1      17.749  -1.258  36.744  1.00  0.00    -0.036 A 
HETATM   19  C15 UNK     1      17.981  -0.394  37.801  1.00  0.00     0.011 A 
HETATM   20  C17 UNK     1      17.295   0.820  37.853  1.00  0.00     0.001 A 
HETATM   21  C19 UNK     1      16.388   1.153  36.848  1.00  0.00     0.000 A 
HETATM   22  C18 UNK     1      16.165   0.271  35.790  1.00  0.00     0.001 A 
HETATM   23  C16 UNK     1      16.851  -0.943  35.738  1.00  0.00     0.011 A 
ENDBRANCH  17  18
ENDBRANCH  14  16
ENDBRANCH  13  14
ENDBRANCH   8  13
TORSDOF 4
ENDMDL
MODEL 5
REMARK VINA RESULT:      -8.7      1.440      2.354
REMARK  4 active torsions:
REMARK  status: ('A' for Active; 'I' for Inactive)
REMARK    1  A    between atoms: C12_16  and  O2_2 
REMARK    2  A    between atoms: C6_10  and  O2_2 
REMARK    3  A    between atoms: C11_15  and  C13_17 
REMARK    4  A    between atoms: C12_16  and  C14_18 
ROOT
HETATM    1  O1  UNK     1      20.159   7.959  33.755  1.00  0.00    -0.275 OA
HETATM    2  O3  UNK     1      21.099   9.782  34.768  1.00  0.00    -0.260 OA
HETATM    3  C1  UNK     1      17.776   7.986  33.220  1.00  0.00     0.004 A 
HETATM    4  C2  UNK     1      17.689   9.337  33.790  1.00  0.00    -0.043 A 
HETATM    5  C3  UNK     1      19.013   7.339  33.221  1.00  0.00     0.092 A 
HETATM    6  C4  UNK     1      16.684   7.301  32.669  1.00  0.00     0.017 A 
HETATM    7  C5  UNK     1      19.183   6.055  32.699  1.00  0.00     0.075 A 
HETATM    8  C6  UNK     1      18.086   5.392  32.158  1.00  0.00     0.082 A 
HETATM    9  C7  UNK     1      16.839   6.013  32.143  1.00  0.00     0.038 A 
HETATM   10  C8  UNK     1      18.796   9.903  34.291  1.00  0.00     0.090 A 
HETATM   11  C9  UNK     1      16.374  10.061  33.803  1.00  0.00     0.049 C 
HETATM   12  C10 UNK     1      20.107   9.233  34.300  1.00  0.00     0.288 A 
ENDROOT
BRANCH   8  13
HETATM   13  O2  UNK     1      18.231   4.140  31.643  1.00  0.00    -0.276 OA
BRANCH  13  14
HETATM   14  C12 UNK     1      18.685   4.116  30.318  1.00  0.00     0.288 C 
HETATM   15  O4  UNK     1      18.739   5.069  29.556  1.00  0.00    -0.260 OA
BRANCH  14  16
HETATM   16  C14 UNK     1      19.091   2.729  29.991  1.00  0.00     0.083 C 
HETATM   17  C13 UNK     1      19.154   1.812  30.966  1.00  0.00     0.017 C 
BRANCH  17  18
HETATM   18  C11 UNK     1      19.552   0.407  30.768  1.00  0.00    -0.036 A 
HETATM   19  C15 UNK     1      20.154   0.033  29.578  1.00  0.00     0.011 A 
HETATM   20  C17 UNK     1      20.531  -1.297  29.392  1.00  0.00     0.001 A 
HETATM   21  C19 UNK     1      20.301  -2.235  30.398  1.00  0.00     0.000 A 
HETATM   22  C18 UNK     1      19.693  -1.843  31.591  1.00  0.00     0.001 A 
HETATM   23  C16 UNK     1      19.316  -0.513  31.778  1.00  0.00     0.011 A 
ENDBRANCH  17  18
ENDBRANCH  14  16
ENDBRANCH  13  14
ENDBRANCH   8  13
TORSDOF 4
ENDMDL
MODEL 6
REMARK VINA RESULT:      -8.6      8.983     14.425
REMARK  4 active torsions:
REMARK  status: ('A' for Active; 'I' for Inactive)
REMARK    1  A    between atoms: C12_16  and  O2_2 
REMARK    2  A    between atoms: C6_10  and  O2_2 
REMARK    3  A    between atoms: C11_15  and  C13_17 
REMARK    4  A    between atoms: C12_16  and  C14_18 
ROOT
HETATM    1  O1  UNK     1      19.113  -9.293  38.306  1.00  0.00    -0.275 OA
HETATM    2  O3  UNK     1      19.064 -11.369  39.264  1.00  0.00    -0.260 OA
HETATM    3  C1  UNK     1      20.388  -8.954  36.251  1.00  0.00     0.004 A 
HETATM    4  C2  UNK     1      20.769 -10.373  36.284  1.00  0.00    -0.043 A 
HETATM    5  C3  UNK     1      19.569  -8.459  37.267  1.00  0.00     0.092 A 
HETATM    6  C4  UNK     1      20.799  -8.061  35.252  1.00  0.00     0.017 A 
HETATM    7  C5  UNK     1      19.161  -7.125  37.311  1.00  0.00     0.075 A 
HETATM    8  C6  UNK     1      19.580  -6.253  36.311  1.00  0.00     0.082 A 
HETATM    9  C7  UNK     1      20.397  -6.720  35.284  1.00  0.00     0.038 A 
HETATM   10  C8  UNK     1      20.320 -11.143  37.285  1.00  0.00     0.090 A 
HETATM   11  C9  UNK     1      21.648 -10.937  35.205  1.00  0.00     0.049 C 
HETATM   12  C10 UNK     1      19.456 -10.635  38.364  1.00  0.00     0.288 A 
ENDROOT
BRANCH   8  13
HETATM   13  O2  UNK     1      19.192  -4.949  36.335  1.00  0.00    -0.276 OA
BRANCH  13  14
HETATM   14  C12 UNK     1      20.175  -4.070  36.807  1.00  0.00     0.288 C 
HETATM   15  O4  UNK     1      21.289  -4.378  37.203  1.00  0.00    -0.260 OA
BRANCH  14  16
HETATM   16  C14 UNK     1      19.635  -2.691  36.748  1.00  0.00     0.083 C 
HETATM   17  C13 UNK     1      18.318  -2.491  36.902  1.00  0.00     0.017 C 
BRANCH  17  18
HETATM   18  C11 UNK     1      17.662  -1.173  36.855  1.00  0.00    -0.036 A 
HETATM   19  C15 UNK     1      17.920  -0.250  37.854  1.00  0.00     0.011 A 
HETATM   20  C17 UNK     1      17.299   0.998  37.809  1.00  0.00     0.001 A 
HETATM   21  C19 UNK     1      16.427   1.306  36.764  1.00  0.00     0.000 A 
HETATM   22  C18 UNK     1      16.177   0.365  35.765  1.00  0.00     0.001 A 
HETATM   23  C16 UNK     1      16.798  -0.883  35.811  1.00  0.00     0.011 A 
ENDBRANCH  17  18
ENDBRANCH  14  16
ENDBRANCH  13  14
ENDBRANCH   8  13
TORSDOF 4
ENDMDL
MODEL 7
REMARK VINA RESULT:      -8.5     22.571     24.068
REMARK  4 active torsions:
REMARK  status: ('A' for Active; 'I' for Inactive)
REMARK    1  A    between atoms: C12_16  and  O2_2 
REMARK    2  A    between atoms: C6_10  and  O2_2 
REMARK    3  A    between atoms: C11_15  and  C13_17 
REMARK    4  A    between atoms: C12_16  and  C14_18 
ROOT
HETATM    1  O1  UNK     1      17.925   9.724   9.149  1.00  0.00    -0.275 OA
HETATM    2  O3  UNK     1      19.290  11.342   8.282  1.00  0.00    -0.260 OA
HETATM    3  C1  UNK     1      16.054  10.377  10.576  1.00  0.00     0.004 A 
HETATM    4  C2  UNK     1      16.447  11.783  10.405  1.00  0.00    -0.043 A 
HETATM    5  C3  UNK     1      16.808   9.390   9.940  1.00  0.00     0.092 A 
HETATM    6  C4  UNK     1      14.957   9.964  11.345  1.00  0.00     0.017 A 
HETATM    7  C5  UNK     1      16.504   8.033  10.050  1.00  0.00     0.075 A 
HETATM    8  C6  UNK     1      15.411   7.642  10.819  1.00  0.00     0.082 A 
HETATM    9  C7  UNK     1      14.640   8.606  11.465  1.00  0.00     0.038 A 
HETATM   10  C8  UNK     1      17.514  12.071   9.646  1.00  0.00     0.090 A 
HETATM   11  C9  UNK     1      15.656  12.868  11.075  1.00  0.00     0.049 C 
HETATM   12  C10 UNK     1      18.320  11.040   8.969  1.00  0.00     0.288 A 
ENDROOT
BRANCH   8  13
HETATM   13  O2  UNK     1      15.097   6.324  10.939  1.00  0.00    -0.276 OA
BRANCH  13  14
HETATM   14  C12 UNK     1      14.862   5.679   9.717  1.00  0.00     0.288 C 
HETATM   15  O4  UNK     1      15.675   5.030   9.076  1.00  0.00    -0.260 OA
BRANCH  14  16
HETATM   16  C14 UNK     1      13.452   5.918   9.328  1.00  0.00     0.083 C 
HETATM   17  C13 UNK     1      13.067   5.679   8.067  1.00  0.00     0.017 C 
BRANCH  17  18
HETATM   18  C11 UNK     1      11.700   5.885   7.557  1.00  0.00    -0.036 A 
HETATM   19  C15 UNK     1      11.506   6.111   6.205  1.00  0.00     0.011 A 
HETATM   20  C17 UNK     1      10.211   6.305   5.723  1.00  0.00     0.001 A 
HETATM   21  C19 UNK     1       9.128   6.271   6.601  1.00  0.00     0.000 A 
HETATM   22  C18 UNK     1       9.339   6.043   7.961  1.00  0.00     0.001 A 
HETATM   23  C16 UNK     1      10.634   5.848   8.442  1.00  0.00     0.011 A 
ENDBRANCH  17  18
ENDBRANCH  14  16
ENDBRANCH  13  14
ENDBRANCH   8  13
TORSDOF 4
ENDMDL
MODEL 8
REMARK VINA RESULT:      -8.5     22.705     24.841
REMARK  4 active torsions:
REMARK  status: ('A' for Active; 'I' for Inactive)
REMARK    1  A    between atoms: C12_16  and  O2_2 
REMARK    2  A    between atoms: C6_10  and  O2_2 
REMARK    3  A    between atoms: C11_15  and  C13_17 
REMARK    4  A    between atoms: C12_16  and  C14_18 
ROOT
HETATM    1  O1  UNK     1       9.458   5.576   9.516  1.00  0.00    -0.275 OA
HETATM    2  O3  UNK     1       7.207   5.775   9.164  1.00  0.00    -0.260 OA
HETATM    3  C1  UNK     1      10.993   5.888   7.642  1.00  0.00     0.004 A 
HETATM    4  C2  UNK     1       9.837   6.136   6.770  1.00  0.00    -0.043 A 
HETATM    5  C3  UNK     1      10.765   5.615   8.991  1.00  0.00     0.092 A 
HETATM    6  C4  UNK     1      12.322   5.909   7.198  1.00  0.00     0.017 A 
HETATM    7  C5  UNK     1      11.806   5.368   9.888  1.00  0.00     0.075 A 
HETATM    8  C6  UNK     1      13.118   5.393   9.428  1.00  0.00     0.082 A 
HETATM    9  C7  UNK     1      13.376   5.662   8.085  1.00  0.00     0.038 A 
HETATM   10  C8  UNK     1       8.604   6.093   7.296  1.00  0.00     0.090 A 
HETATM   11  C9  UNK     1      10.048   6.432   5.313  1.00  0.00     0.049 C 
HETATM   12  C10 UNK     1       8.349   5.806   8.718  1.00  0.00     0.288 A 
ENDROOT
BRANCH   8  13
HETATM   13  O2  UNK     1      14.148   5.156  10.286  1.00  0.00    -0.276 OA
BRANCH  13  14
HETATM   14  C12 UNK     1      15.357   5.753   9.906  1.00  0.00     0.288 C 
HETATM   15  O4  UNK     1      16.275   5.208   9.311  1.00  0.00    -0.260 OA
BRANCH  14  16
HETATM   16  C14 UNK     1      15.339   7.166  10.351  1.00  0.00     0.083 C 
HETATM   17  C13 UNK     1      16.257   8.019   9.876  1.00  0.00     0.017 C 
BRANCH  17  18
HETATM   18  C11 UNK     1      16.348   9.442  10.248  1.00  0.00    -0.036 A 
HETATM   19  C15 UNK     1      15.317  10.022  10.968  1.00  0.00     0.011 A 
HETATM   20  C17 UNK     1      15.404  11.369  11.321  1.00  0.00     0.001 A 
HETATM   21  C19 UNK     1      16.521  12.117  10.949  1.00  0.00     0.000 A 
HETATM   22  C18 UNK     1      17.551  11.518  10.223  1.00  0.00     0.001 A 
HETATM   23  C16 UNK     1      17.464  10.171   9.870  1.00  0.00     0.011 A 
ENDBRANCH  17  18
ENDBRANCH  14  16
ENDBRANCH  13  14
ENDBRANCH   8  13
TORSDOF 4
ENDMDL
MODEL 9
REMARK VINA RESULT:      -8.4     22.552     23.979
REMARK  4 active torsions:
REMARK  status: ('A' for Active; 'I' for Inactive)
REMARK    1  A    between atoms: C12_16  and  O2_2 
REMARK    2  A    between atoms: C6_10  and  O2_2 
REMARK    3  A    between atoms: C11_15  and  C13_17 
REMARK    4  A    between atoms: C12_16  and  C14_18 
ROOT
HETATM    1  O1  UNK     1      14.151  10.642  10.178  1.00  0.00    -0.275 OA
HETATM    2  O3  UNK     1      13.848  12.889   9.877  1.00  0.00    -0.260 OA
HETATM    3  C1  UNK     1      16.399   9.705   9.999  1.00  0.00     0.004 A 
HETATM    4  C2  UNK     1      16.911  11.053   9.719  1.00  0.00    -0.043 A 
HETATM    5  C3  UNK     1      15.031   9.543  10.220  1.00  0.00     0.092 A 
HETATM    6  C4  UNK     1      17.208   8.562  10.059  1.00  0.00     0.017 A 
HETATM    7  C5  UNK     1      14.462   8.297  10.492  1.00  0.00     0.075 A 
HETATM    8  C6  UNK     1      15.282   7.174  10.547  1.00  0.00     0.082 A 
HETATM    9  C7  UNK     1      16.652   7.306  10.330  1.00  0.00     0.038 A 
HETATM   10  C8  UNK     1      16.051  12.081   9.685  1.00  0.00     0.090 A 
HETATM   11  C9  UNK     1      18.378  11.261   9.477  1.00  0.00     0.049 C 
HETATM   12  C10 UNK     1      14.605  11.925   9.916  1.00  0.00     0.288 A 
ENDROOT
BRANCH   8  13
HETATM   13  O2  UNK     1      14.747   5.951  10.812  1.00  0.00    -0.276 OA
BRANCH  13  14
HETATM   14  C12 UNK     1      14.837   5.046   9.746  1.00  0.00     0.288 C 
HETATM   15  O4  UNK     1      15.603   4.097   9.668  1.00  0.00    -0.260 OA
BRANCH  14  16
HETATM   16  C14 UNK     1      13.842   5.435   8.719  1.00  0.00     0.083 C 
HETATM   17  C13 UNK     1      12.534   5.319   8.991  1.00  0.00     0.017 C 
BRANCH  17  18
HETATM   18  C11 UNK     1      11.452   5.663   8.053  1.00  0.00    -0.036 A 
HETATM   19  C15 UNK     1      10.154   5.770   8.523  1.00  0.00     0.011 A 
HETATM   20  C17 UNK     1       9.130   6.097   7.634  1.00  0.00     0.001 A 
HETATM   21  C19 UNK     1       9.418   6.312   6.286  1.00  0.00     0.000 A 
HETATM   22  C18 UNK     1      10.731   6.200   5.827  1.00  0.00     0.001 A 
HETATM   23  C16 UNK     1      11.755   5.874   6.717  1.00  0.00     0.011 A 
ENDBRANCH  17  18
ENDBRANCH  14  16
ENDBRANCH  13  14
ENDBRANCH   8  13
TORSDOF 4
ENDMDL
MODEL 10
REMARK VINA RESULT:      -8.4      2.140      9.173
REMARK  4 active torsions:
REMARK  status: ('A' for Active; 'I' for Inactive)
REMARK    1  A    between atoms: C12_16  and  O2_2 
REMARK    2  A    between atoms: C6_10  and  O2_2 
REMARK    3  A    between atoms: C11_15  and  C13_17 
REMARK    4  A    between atoms: C12_16  and  C14_18 
ROOT
HETATM    1  O1  UNK     1      19.333  -0.388  32.755  1.00  0.00    -0.275 OA
HETATM    2  O3  UNK     1      20.147  -2.501  33.079  1.00  0.00    -0.260 OA
HETATM    3  C1  UNK     1      19.373   0.576  30.511  1.00  0.00     0.004 A 
HETATM    4  C2  UNK     1      19.985  -0.665  30.016  1.00  0.00    -0.043 A 
HETATM    5  C3  UNK     1      19.066   0.674  31.869  1.00  0.00     0.092 A 
HETATM    6  C4  UNK     1      19.075   1.676  29.695  1.00  0.00     0.017 A 
HETATM    7  C5  UNK     1      18.484   1.816  32.421  1.00  0.00     0.075 A 
HETATM    8  C6  UNK     1      18.196   2.898  31.595  1.00  0.00     0.082 A 
HETATM    9  C7  UNK     1      18.492   2.828  30.235  1.00  0.00     0.038 A 
HETATM   10  C8  UNK     1      20.228  -1.660  30.881  1.00  0.00     0.090 A 
HETATM   11  C9  UNK     1      20.326  -0.803  28.561  1.00  0.00     0.049 C 
HETATM   12  C10 UNK     1      19.910  -1.570  32.317  1.00  0.00     0.288 A 
ENDROOT
BRANCH   8  13
HETATM   13  O2  UNK     1      17.628   4.021  32.112  1.00  0.00    -0.276 OA
BRANCH  13  14
HETATM   14  C12 UNK     1      18.176   4.426  33.336  1.00  0.00     0.288 C 
HETATM   15  O4  UNK     1      18.299   3.734  34.336  1.00  0.00    -0.260 OA
BRANCH  14  16
HETATM   16  C14 UNK     1      18.584   5.846  33.217  1.00  0.00     0.083 C 
HETATM   17  C13 UNK     1      18.220   6.719  34.167  1.00  0.00     0.017 C 
BRANCH  17  18
HETATM   18  C11 UNK     1      18.555   8.154  34.156  1.00  0.00    -0.036 A 
HETATM   19  C15 UNK     1      19.855   8.549  34.424  1.00  0.00     0.011 A 
HETATM   20  C17 UNK     1      20.172   9.907  34.413  1.00  0.00     0.001 A 
HETATM   21  C19 UNK     1      19.184  10.852  34.134  1.00  0.00     0.000 A 
HETATM   22  C18 UNK     1      17.879  10.438  33.868  1.00  0.00     0.001 A 
HETATM   23  C16 UNK     1      17.562   9.080  33.878  1.00  0.00     0.011 A 
ENDBRANCH  17  18
ENDBRANCH  14  16
ENDBRANCH  13  14
ENDBRANCH   8  13
TORSDOF 4
ENDMDL
