MODEL 1
REMARK VINA RESULT:      -7.8      0.000      0.000
REMARK  7 active torsions:
REMARK  status: ('A' for Active; 'I' for Inactive)
REMARK    1  A    between atoms: C15_22  and  O3_3 
REMARK    2  A    between atoms: C19_26  and  O3_3 
REMARK    3  A    between atoms: C5_12  and  N1_5 
REMARK    4  A    between atoms: C6_13  and  N2_6 
REMARK    5  A    between atoms: C16_23  and  N3_7 
REMARK       I    between atoms: C9_16  and  N3_7 
REMARK    6  A    between atoms: C5_12  and  C7_14 
REMARK    7  A    between atoms: C6_13  and  C9_16 
ROOT
HETATM    1  O1  UNK     1      20.197  -1.078  30.415  1.00  0.00    -0.275 OA
HETATM    2  O4  UNK     1      20.729  -0.563  28.251  1.00  0.00    -0.260 OA
HETATM    3  C7  UNK     1      18.842   1.400  30.567  1.00  0.00    -0.011 A 
HETATM    4  C8  UNK     1      18.880   0.503  31.731  1.00  0.00     0.009 A 
HETATM    5  C10 UNK     1      19.458   1.025  29.437  1.00  0.00     0.092 A 
HETATM    6  C11 UNK     1      19.559  -0.711  31.617  1.00  0.00     0.090 A 
HETATM    7  C12 UNK     1      18.270   0.794  32.958  1.00  0.00     0.051 A 
HETATM    8  C13 UNK     1      20.177  -0.252  29.301  1.00  0.00     0.288 A 
HETATM    9  C14 UNK     1      19.643  -1.621  32.672  1.00  0.00     0.041 A 
HETATM   10  C15 UNK     1      18.345  -0.108  34.026  1.00  0.00     0.069 A 
HETATM   11  C17 UNK     1      19.032  -1.314  33.882  1.00  0.00     0.039 A 
ENDROOT
BRANCH   3  12
HETATM   12  C5  UNK     1      18.126   2.703  30.657  1.00  0.00     0.312 C 
BRANCH  12  13
HETATM   13  N1  UNK     1      18.877   3.694  31.426  1.00  0.00     0.096 N 
HETATM   14  C1  UNK     1      18.074   4.202  32.546  1.00  0.00     0.303 C 
HETATM   15  C3  UNK     1      18.859   5.242  33.352  1.00  0.00     0.303 C 
HETATM   16  N2  UNK     1      19.296   6.349  32.491  1.00  0.00     0.100 N 
HETATM   17  C4  UNK     1      20.098   5.841  31.372  1.00  0.00     0.303 C 
HETATM   18  C2  UNK     1      19.315   4.800  30.566  1.00  0.00     0.303 C 
BRANCH  16  19
HETATM   19  C6  UNK     1      20.045   7.341  33.260  1.00  0.00     0.374 C 
BRANCH  19  20
HETATM   20  C9  UNK     1      19.089   8.063  34.186  1.00  0.00     0.246 C 
HETATM   21  O2  UNK     1      19.171   8.005  35.411  1.00  0.00    -0.272 OA
HETATM   22  N3  UNK     1      18.149   8.804  33.485  1.00  0.00    -0.360 N 
HETATM   23  H15 UNK     1      18.164   8.793  32.470  1.00  0.00     0.162 HD
BRANCH  22  24
HETATM   24  C16 UNK     1      17.136   9.611  34.127  1.00  0.00     0.118 C 
HETATM   25  C18 UNK     1      15.872   8.816  34.382  1.00  0.00     0.026 C 
ENDBRANCH  22  24
ENDBRANCH  19  20
ENDBRANCH  16  19
ENDBRANCH  12  13
ENDBRANCH   3  12
BRANCH  10  26
HETATM   26  O3  UNK     1      17.746   0.193  35.211  1.00  0.00    -0.351 OA
BRANCH  26  27
HETATM   27  C19 UNK     1      17.228  -0.898  35.971  1.00  0.00     0.171 C 
HETATM   28  C20 UNK     1      17.815  -0.849  37.365  1.00  0.00     0.034 C 
ENDBRANCH  26  27
ENDBRANCH  10  26
TORSDOF 7
ENDMDL
MODEL 2
REMARK VINA RESULT:      -7.7     15.325     18.206
REMARK  7 active torsions:
REMARK  status: ('A' for Active; 'I' for Inactive)
REMARK    1  A    between atoms: C15_22  and  O3_3 
REMARK    2  A    between atoms: C19_26  and  O3_3 
REMARK    3  A    between atoms: C5_12  and  N1_5 
REMARK    4  A    between atoms: C6_13  and  N2_6 
REMARK    5  A    between atoms: C16_23  and  N3_7 
REMARK       I    between atoms: C9_16  and  N3_7 
REMARK    6  A    between atoms: C5_12  and  C7_14 
REMARK    7  A    between atoms: C6_13  and  C9_16 
ROOT
HETATM    1  O1  UNK     1      28.741  -5.581  39.440  1.00  0.00    -0.275 OA
HETATM    2  O4  UNK     1      29.578  -3.548  40.070  1.00  0.00    -0.260 OA
HETATM    3  C7  UNK     1      30.220  -5.335  37.041  1.00  0.00    -0.011 A 
HETATM    4  C8  UNK     1      29.392  -6.525  37.283  1.00  0.00     0.009 A 
HETATM    5  C10 UNK     1      30.263  -4.373  37.974  1.00  0.00     0.092 A 
HETATM    6  C11 UNK     1      28.677  -6.610  38.479  1.00  0.00     0.090 A 
HETATM    7  C12 UNK     1      29.276  -7.589  36.379  1.00  0.00     0.051 A 
HETATM    8  C13 UNK     1      29.514  -4.448  39.240  1.00  0.00     0.288 A 
HETATM    9  C14 UNK     1      27.866  -7.704  38.787  1.00  0.00     0.041 A 
HETATM   10  C15 UNK     1      28.468  -8.694  36.675  1.00  0.00     0.069 A 
HETATM   11  C17 UNK     1      27.764  -8.750  37.878  1.00  0.00     0.039 A 
ENDROOT
BRANCH   3  12
HETATM   12  C5  UNK     1      30.995  -5.214  35.776  1.00  0.00     0.312 C 
BRANCH  12  13
HETATM   13  N1  UNK     1      32.356  -5.730  35.911  1.00  0.00     0.096 N 
HETATM   14  C1  UNK     1      33.341  -4.657  35.723  1.00  0.00     0.303 C 
HETATM   15  C3  UNK     1      34.769  -5.196  35.863  1.00  0.00     0.303 C 
HETATM   16  N2  UNK     1      35.011  -6.286  34.908  1.00  0.00     0.100 N 
HETATM   17  C4  UNK     1      34.026  -7.359  35.096  1.00  0.00     0.303 C 
HETATM   18  C2  UNK     1      32.598  -6.820  34.958  1.00  0.00     0.303 C 
BRANCH  16  19
HETATM   19  C6  UNK     1      36.372  -6.800  35.041  1.00  0.00     0.374 C 
BRANCH  19  20
HETATM   20  C9  UNK     1      36.694  -7.647  33.828  1.00  0.00     0.246 C 
HETATM   21  O2  UNK     1      36.619  -7.223  32.677  1.00  0.00    -0.272 OA
HETATM   22  N3  UNK     1      37.103  -8.924  34.181  1.00  0.00    -0.360 N 
HETATM   23  H15 UNK     1      37.138  -9.182  35.163  1.00  0.00     0.162 HD
BRANCH  22  24
HETATM   24  C16 UNK     1      37.497  -9.926  33.216  1.00  0.00     0.118 C 
HETATM   25  C18 UNK     1      36.343 -10.841  32.864  1.00  0.00     0.026 C 
ENDBRANCH  22  24
ENDBRANCH  19  20
ENDBRANCH  16  19
ENDBRANCH  12  13
ENDBRANCH   3  12
BRANCH  10  26
HETATM   26  O3  UNK     1      28.369  -9.718  35.784  1.00  0.00    -0.351 OA
BRANCH  26  27
HETATM   27  C19 UNK     1      29.462  -9.906  34.887  1.00  0.00     0.171 C 
HETATM   28  C20 UNK     1      28.923 -10.113  33.488  1.00  0.00     0.034 C 
ENDBRANCH  26  27
ENDBRANCH  10  26
TORSDOF 7
ENDMDL
MODEL 3
REMARK VINA RESULT:      -7.4      2.921      4.100
REMARK  7 active torsions:
REMARK  status: ('A' for Active; 'I' for Inactive)
REMARK    1  A    between atoms: C15_22  and  O3_3 
REMARK    2  A    between atoms: C19_26  and  O3_3 
REMARK    3  A    between atoms: C5_12  and  N1_5 
REMARK    4  A    between atoms: C6_13  and  N2_6 
REMARK    5  A    between atoms: C16_23  and  N3_7 
REMARK       I    between atoms: C9_16  and  N3_7 
REMARK    6  A    between atoms: C5_12  and  C7_14 
REMARK    7  A    between atoms: C6_13  and  C9_16 
ROOT
HETATM    1  O1  UNK     1      18.344   1.617  31.368  1.00  0.00    -0.275 OA
HETATM    2  O4  UNK     1      18.327   2.648  29.327  1.00  0.00    -0.260 OA
HETATM    3  C7  UNK     1      18.389   4.184  32.554  1.00  0.00    -0.011 A 
HETATM    4  C8  UNK     1      18.387   2.979  33.395  1.00  0.00     0.009 A 
HETATM    5  C10 UNK     1      18.368   4.046  31.221  1.00  0.00     0.092 A 
HETATM    6  C11 UNK     1      18.364   1.730  32.773  1.00  0.00     0.090 A 
HETATM    7  C12 UNK     1      18.405   3.007  34.796  1.00  0.00     0.051 A 
HETATM    8  C13 UNK     1      18.345   2.736  30.550  1.00  0.00     0.288 A 
HETATM    9  C14 UNK     1      18.361   0.536  33.497  1.00  0.00     0.041 A 
HETATM   10  C15 UNK     1      18.400   1.819  35.535  1.00  0.00     0.069 A 
HETATM   11  C17 UNK     1      18.379   0.585  34.886  1.00  0.00     0.039 A 
ENDROOT
BRANCH   3  12
HETATM   12  C5  UNK     1      18.412   5.532  33.188  1.00  0.00     0.312 C 
BRANCH  12  13
HETATM   13  N1  UNK     1      17.141   6.237  33.032  1.00  0.00     0.096 N 
HETATM   14  C1  UNK     1      17.282   7.367  32.104  1.00  0.00     0.303 C 
HETATM   15  C3  UNK     1      15.951   8.108  31.941  1.00  0.00     0.303 C 
HETATM   16  N2  UNK     1      15.449   8.573  33.241  1.00  0.00     0.100 N 
HETATM   17  C4  UNK     1      15.309   7.443  34.169  1.00  0.00     0.303 C 
HETATM   18  C2  UNK     1      16.638   6.700  34.331  1.00  0.00     0.303 C 
BRANCH  16  19
HETATM   19  C6  UNK     1      14.180   9.280  33.086  1.00  0.00     0.374 C 
BRANCH  19  20
HETATM   20  C9  UNK     1      14.441  10.770  33.152  1.00  0.00     0.246 C 
HETATM   21  O2  UNK     1      15.423  11.254  33.711  1.00  0.00    -0.272 OA
HETATM   22  N3  UNK     1      13.465  11.497  32.487  1.00  0.00    -0.360 N 
HETATM   23  H15 UNK     1      12.691  11.006  32.050  1.00  0.00     0.162 HD
BRANCH  22  24
HETATM   24  C16 UNK     1      13.488  12.938  32.374  1.00  0.00     0.118 C 
HETATM   25  C18 UNK     1      12.163  13.548  32.779  1.00  0.00     0.026 C 
ENDBRANCH  22  24
ENDBRANCH  19  20
ENDBRANCH  16  19
ENDBRANCH  12  13
ENDBRANCH   3  12
BRANCH  10  26
HETATM   26  O3  UNK     1      18.418   1.867  36.896  1.00  0.00    -0.351 OA
BRANCH  26  27
HETATM   27  C19 UNK     1      17.325   1.257  37.581  1.00  0.00     0.171 C 
HETATM   28  C20 UNK     1      17.811  -0.007  38.256  1.00  0.00     0.034 C 
ENDBRANCH  26  27
ENDBRANCH  10  26
TORSDOF 7
ENDMDL
MODEL 4
REMARK VINA RESULT:      -7.4     23.541     25.499
REMARK  7 active torsions:
REMARK  status: ('A' for Active; 'I' for Inactive)
REMARK    1  A    between atoms: C15_22  and  O3_3 
REMARK    2  A    between atoms: C19_26  and  O3_3 
REMARK    3  A    between atoms: C5_12  and  N1_5 
REMARK    4  A    between atoms: C6_13  and  N2_6 
REMARK    5  A    between atoms: C16_23  and  N3_7 
REMARK       I    between atoms: C9_16  and  N3_7 
REMARK    6  A    between atoms: C5_12  and  C7_14 
REMARK    7  A    between atoms: C6_13  and  C9_16 
ROOT
HETATM    1  O1  UNK     1      16.318   6.161  10.111  1.00  0.00    -0.275 OA
HETATM    2  O4  UNK     1      16.061   3.917   9.752  1.00  0.00    -0.260 OA
HETATM    3  C7  UNK     1      13.961   6.571   8.602  1.00  0.00    -0.011 A 
HETATM    4  C8  UNK     1      14.684   7.716   9.174  1.00  0.00     0.009 A 
HETATM    5  C10 UNK     1      14.436   5.334   8.808  1.00  0.00     0.092 A 
HETATM    6  C11 UNK     1      15.843   7.473   9.912  1.00  0.00     0.090 A 
HETATM    7  C12 UNK     1      14.276   9.048   9.023  1.00  0.00     0.051 A 
HETATM    8  C13 UNK     1      15.656   5.062   9.584  1.00  0.00     0.288 A 
HETATM    9  C14 UNK     1      16.589   8.502  10.490  1.00  0.00     0.041 A 
HETATM   10  C15 UNK     1      15.013  10.091   9.596  1.00  0.00     0.069 A 
HETATM   11  C17 UNK     1      16.169   9.817  10.328  1.00  0.00     0.039 A 
ENDROOT
BRANCH   3  12
HETATM   12  C5  UNK     1      12.721   6.797   7.809  1.00  0.00     0.312 C 
BRANCH  12  13
HETATM   13  N1  UNK     1      11.513   6.646   8.618  1.00  0.00     0.096 N 
HETATM   14  C1  UNK     1      11.112   5.236   8.699  1.00  0.00     0.303 C 
HETATM   15  C3  UNK     1       9.845   5.077   9.545  1.00  0.00     0.303 C 
HETATM   16  N2  UNK     1       8.749   5.890   9.003  1.00  0.00     0.100 N 
HETATM   17  C4  UNK     1       9.149   7.300   8.921  1.00  0.00     0.303 C 
HETATM   18  C2  UNK     1      10.417   7.460   8.077  1.00  0.00     0.303 C 
BRANCH  16  19
HETATM   19  C6  UNK     1       7.540   5.738   9.810  1.00  0.00     0.374 C 
BRANCH  19  20
HETATM   20  C9  UNK     1       7.027   4.321   9.657  1.00  0.00     0.246 C 
HETATM   21  O2  UNK     1       7.074   3.703   8.596  1.00  0.00    -0.272 OA
HETATM   22  N3  UNK     1       6.538   3.816  10.853  1.00  0.00    -0.360 N 
HETATM   23  H15 UNK     1       6.546   4.403  11.681  1.00  0.00     0.162 HD
BRANCH  22  24
HETATM   24  C16 UNK     1       6.014   2.475  10.991  1.00  0.00     0.118 C 
HETATM   25  C18 UNK     1       5.236   2.315  12.281  1.00  0.00     0.026 C 
ENDBRANCH  22  24
ENDBRANCH  19  20
ENDBRANCH  16  19
ENDBRANCH  12  13
ENDBRANCH   3  12
BRANCH  10  26
HETATM   26  O3  UNK     1      14.601  11.378   9.438  1.00  0.00    -0.351 OA
BRANCH  26  27
HETATM   27  C19 UNK     1      15.524  12.285   8.837  1.00  0.00     0.171 C 
HETATM   28  C20 UNK     1      15.590  12.009   7.350  1.00  0.00     0.034 C 
ENDBRANCH  26  27
ENDBRANCH  10  26
TORSDOF 7
ENDMDL
MODEL 5
REMARK VINA RESULT:      -7.4     15.191     17.871
REMARK  7 active torsions:
REMARK  status: ('A' for Active; 'I' for Inactive)
REMARK    1  A    between atoms: C15_22  and  O3_3 
REMARK    2  A    between atoms: C19_26  and  O3_3 
REMARK    3  A    between atoms: C5_12  and  N1_5 
REMARK    4  A    between atoms: C6_13  and  N2_6 
REMARK    5  A    between atoms: C16_23  and  N3_7 
REMARK       I    between atoms: C9_16  and  N3_7 
REMARK    6  A    between atoms: C5_12  and  C7_14 
REMARK    7  A    between atoms: C6_13  and  C9_16 
ROOT
HETATM    1  O1  UNK     1      28.434  -5.638  39.558  1.00  0.00    -0.275 OA
HETATM    2  O4  UNK     1      29.699  -3.755  39.847  1.00  0.00    -0.260 OA
HETATM    3  C7  UNK     1      29.679  -5.969  37.039  1.00  0.00    -0.011 A 
HETATM    4  C8  UNK     1      28.670  -6.933  37.500  1.00  0.00     0.009 A 
HETATM    5  C10 UNK     1      29.998  -4.935  37.831  1.00  0.00     0.092 A 
HETATM    6  C11 UNK     1      28.078  -6.736  38.748  1.00  0.00     0.090 A 
HETATM    7  C12 UNK     1      28.263  -8.049  36.756  1.00  0.00     0.051 A 
HETATM    8  C13 UNK     1      29.382  -4.714  39.150  1.00  0.00     0.288 A 
HETATM    9  C14 UNK     1      27.112  -7.604  39.261  1.00  0.00     0.041 A 
HETATM   10  C15 UNK     1      27.297  -8.928  37.257  1.00  0.00     0.069 A 
HETATM   11  C17 UNK     1      26.721  -8.705  38.508  1.00  0.00     0.039 A 
ENDROOT
BRANCH   3  12
HETATM   12  C5  UNK     1      30.329  -6.151  35.712  1.00  0.00     0.312 C 
BRANCH  12  13
HETATM   13  N1  UNK     1      31.786  -6.075  35.796  1.00  0.00     0.096 N 
HETATM   14  C1  UNK     1      32.345  -5.433  34.599  1.00  0.00     0.303 C 
HETATM   15  C3  UNK     1      33.873  -5.355  34.685  1.00  0.00     0.303 C 
HETATM   16  N2  UNK     1      34.455  -6.691  34.868  1.00  0.00     0.100 N 
HETATM   17  C4  UNK     1      33.896  -7.332  36.065  1.00  0.00     0.303 C 
HETATM   18  C2  UNK     1      32.369  -7.410  35.981  1.00  0.00     0.303 C 
BRANCH  16  19
HETATM   19  C6  UNK     1      35.912  -6.616  34.950  1.00  0.00     0.374 C 
BRANCH  19  20
HETATM   20  C9  UNK     1      36.505  -7.386  33.789  1.00  0.00     0.246 C 
HETATM   21  O2  UNK     1      36.592  -6.923  32.654  1.00  0.00    -0.272 OA
HETATM   22  N3  UNK     1      36.955  -8.640  34.175  1.00  0.00    -0.360 N 
HETATM   23  H15 UNK     1      36.844  -8.932  35.141  1.00  0.00     0.162 HD
BRANCH  22  24
HETATM   24  C16 UNK     1      37.590  -9.568  33.267  1.00  0.00     0.118 C 
HETATM   25  C18 UNK     1      36.590 -10.541  32.679  1.00  0.00     0.026 C 
ENDBRANCH  22  24
ENDBRANCH  19  20
ENDBRANCH  16  19
ENDBRANCH  12  13
ENDBRANCH   3  12
BRANCH  10  26
HETATM   26  O3  UNK     1      26.915 -10.007  36.519  1.00  0.00    -0.351 OA
BRANCH  26  27
HETATM   27  C19 UNK     1      25.527 -10.338  36.525  1.00  0.00     0.171 C 
HETATM   28  C20 UNK     1      25.370 -11.811  36.212  1.00  0.00     0.034 C 
ENDBRANCH  26  27
ENDBRANCH  10  26
TORSDOF 7
ENDMDL
MODEL 6
REMARK VINA RESULT:      -7.3     23.296     25.589
REMARK  7 active torsions:
REMARK  status: ('A' for Active; 'I' for Inactive)
REMARK    1  A    between atoms: C15_22  and  O3_3 
REMARK    2  A    between atoms: C19_26  and  O3_3 
REMARK    3  A    between atoms: C5_12  and  N1_5 
REMARK    4  A    between atoms: C6_13  and  N2_6 
REMARK    5  A    between atoms: C16_23  and  N3_7 
REMARK       I    between atoms: C9_16  and  N3_7 
REMARK    6  A    between atoms: C5_12  and  C7_14 
REMARK    7  A    between atoms: C6_13  and  C9_16 
ROOT
HETATM    1  O1  UNK     1      16.009   6.157  10.336  1.00  0.00    -0.275 OA
HETATM    2  O4  UNK     1      15.880   3.936   9.806  1.00  0.00    -0.260 OA
HETATM    3  C7  UNK     1      14.137   6.657   8.275  1.00  0.00    -0.011 A 
HETATM    4  C8  UNK     1      14.669   7.767   9.079  1.00  0.00     0.009 A 
HETATM    5  C10 UNK     1      14.551   5.409   8.537  1.00  0.00     0.092 A 
HETATM    6  C11 UNK     1      15.591   7.480  10.086  1.00  0.00     0.090 A 
HETATM    7  C12 UNK     1      14.304   9.107   8.893  1.00  0.00     0.051 A 
HETATM    8  C13 UNK     1      15.523   5.091   9.596  1.00  0.00     0.288 A 
HETATM    9  C14 UNK     1      16.146   8.474  10.895  1.00  0.00     0.041 A 
HETATM   10  C15 UNK     1      14.850  10.114   9.696  1.00  0.00     0.069 A 
HETATM   11  C17 UNK     1      15.771   9.798  10.695  1.00  0.00     0.039 A 
ENDROOT
BRANCH   3  12
HETATM   12  C5  UNK     1      13.151   6.930   7.193  1.00  0.00     0.312 C 
BRANCH  12  13
HETATM   13  N1  UNK     1      11.874   6.260   7.427  1.00  0.00     0.096 N 
HETATM   14  C1  UNK     1      10.847   6.755   6.502  1.00  0.00     0.303 C 
HETATM   15  C3  UNK     1       9.507   6.055   6.748  1.00  0.00     0.303 C 
HETATM   16  N2  UNK     1       9.071   6.234   8.139  1.00  0.00     0.100 N 
HETATM   17  C4  UNK     1      10.098   5.738   9.064  1.00  0.00     0.303 C 
HETATM   18  C2  UNK     1      11.439   6.437   8.818  1.00  0.00     0.303 C 
BRANCH  16  19
HETATM   19  C6  UNK     1       7.793   5.566   8.374  1.00  0.00     0.374 C 
BRANCH  19  20
HETATM   20  C9  UNK     1       7.045   6.313   9.458  1.00  0.00     0.246 C 
HETATM   21  O2  UNK     1       6.592   7.445   9.302  1.00  0.00    -0.272 OA
HETATM   22  N3  UNK     1       6.915   5.556  10.613  1.00  0.00    -0.360 N 
HETATM   23  H15 UNK     1       7.320   4.625  10.646  1.00  0.00     0.162 HD
BRANCH  22  24
HETATM   24  C16 UNK     1       6.219   6.021  11.792  1.00  0.00     0.118 C 
HETATM   25  C18 UNK     1       6.015   4.902  12.793  1.00  0.00     0.026 C 
ENDBRANCH  22  24
ENDBRANCH  19  20
ENDBRANCH  16  19
ENDBRANCH  12  13
ENDBRANCH   3  12
BRANCH  10  26
HETATM   26  O3  UNK     1      14.483  11.410   9.500  1.00  0.00    -0.351 OA
BRANCH  26  27
HETATM   27  C19 UNK     1      15.499  12.315   9.073  1.00  0.00     0.171 C 
HETATM   28  C20 UNK     1      15.634  12.230   7.568  1.00  0.00     0.034 C 
ENDBRANCH  26  27
ENDBRANCH  10  26
TORSDOF 7
ENDMDL
MODEL 7
REMARK VINA RESULT:      -7.3      2.281      4.602
REMARK  7 active torsions:
REMARK  status: ('A' for Active; 'I' for Inactive)
REMARK    1  A    between atoms: C15_22  and  O3_3 
REMARK    2  A    between atoms: C19_26  and  O3_3 
REMARK    3  A    between atoms: C5_12  and  N1_5 
REMARK    4  A    between atoms: C6_13  and  N2_6 
REMARK    5  A    between atoms: C16_23  and  N3_7 
REMARK       I    between atoms: C9_16  and  N3_7 
REMARK    6  A    between atoms: C5_12  and  C7_14 
REMARK    7  A    between atoms: C6_13  and  C9_16 
ROOT
HETATM    1  O1  UNK     1      20.564  -2.861  34.859  1.00  0.00    -0.275 OA
HETATM    2  O4  UNK     1      20.075  -2.631  37.081  1.00  0.00    -0.260 OA
HETATM    3  C7  UNK     1      18.683  -0.815  34.333  1.00  0.00    -0.011 A 
HETATM    4  C8  UNK     1      19.419  -1.447  33.229  1.00  0.00     0.009 A 
HETATM    5  C10 UNK     1      18.918  -1.223  35.588  1.00  0.00     0.092 A 
HETATM    6  C11 UNK     1      20.339  -2.453  33.528  1.00  0.00     0.090 A 
HETATM    7  C12 UNK     1      19.253  -1.097  31.882  1.00  0.00     0.051 A 
HETATM    8  C13 UNK     1      19.885  -2.283  35.920  1.00  0.00     0.288 A 
HETATM    9  C14 UNK     1      21.079  -3.105  32.540  1.00  0.00     0.041 A 
HETATM   10  C15 UNK     1      19.989  -1.741  30.881  1.00  0.00     0.069 A 
HETATM   11  C17 UNK     1      20.900  -2.744  31.210  1.00  0.00     0.039 A 
ENDROOT
BRANCH   3  12
HETATM   12  C5  UNK     1      17.695   0.261  34.047  1.00  0.00     0.312 C 
BRANCH  12  13
HETATM   13  N1  UNK     1      18.340   1.534  33.731  1.00  0.00     0.096 N 
HETATM   14  C1  UNK     1      18.067   2.530  34.775  1.00  0.00     0.303 C 
HETATM   15  C3  UNK     1      18.742   3.866  34.444  1.00  0.00     0.303 C 
HETATM   16  N2  UNK     1      18.303   4.363  33.134  1.00  0.00     0.100 N 
HETATM   17  C4  UNK     1      18.576   3.367  32.091  1.00  0.00     0.303 C 
HETATM   18  C2  UNK     1      17.903   2.031  32.421  1.00  0.00     0.303 C 
BRANCH  16  19
HETATM   19  C6  UNK     1      18.947   5.637  32.819  1.00  0.00     0.374 C 
BRANCH  19  20
HETATM   20  C9  UNK     1      18.062   6.406  31.861  1.00  0.00     0.246 C 
HETATM   21  O2  UNK     1      18.307   6.512  30.661  1.00  0.00    -0.272 OA
HETATM   22  N3  UNK     1      16.948   6.936  32.496  1.00  0.00    -0.360 N 
HETATM   23  H15 UNK     1      16.829   6.791  33.494  1.00  0.00     0.162 HD
BRANCH  22  24
HETATM   24  C16 UNK     1      15.927   7.691  31.806  1.00  0.00     0.118 C 
HETATM   25  C18 UNK     1      14.555   7.081  32.007  1.00  0.00     0.026 C 
ENDBRANCH  22  24
ENDBRANCH  19  20
ENDBRANCH  16  19
ENDBRANCH  12  13
ENDBRANCH   3  12
BRANCH  10  26
HETATM   26  O3  UNK     1      19.813  -1.387  29.578  1.00  0.00    -0.351 OA
BRANCH  26  27
HETATM   27  C19 UNK     1      20.237  -0.078  29.199  1.00  0.00     0.171 C 
HETATM   28  C20 UNK     1      19.031   0.720  28.751  1.00  0.00     0.034 C 
ENDBRANCH  26  27
ENDBRANCH  10  26
TORSDOF 7
ENDMDL
MODEL 8
REMARK VINA RESULT:      -7.3     15.048     16.950
REMARK  7 active torsions:
REMARK  status: ('A' for Active; 'I' for Inactive)
REMARK    1  A    between atoms: C15_22  and  O3_3 
REMARK    2  A    between atoms: C19_26  and  O3_3 
REMARK    3  A    between atoms: C5_12  and  N1_5 
REMARK    4  A    between atoms: C6_13  and  N2_6 
REMARK    5  A    between atoms: C16_23  and  N3_7 
REMARK       I    between atoms: C9_16  and  N3_7 
REMARK    6  A    between atoms: C5_12  and  C7_14 
REMARK    7  A    between atoms: C6_13  and  C9_16 
ROOT
HETATM    1  O1  UNK     1      30.560  -3.694  37.452  1.00  0.00    -0.275 OA
HETATM    2  O4  UNK     1      32.196  -2.439  36.462  1.00  0.00    -0.260 OA
HETATM    3  C7  UNK     1      31.459  -5.896  35.921  1.00  0.00    -0.011 A 
HETATM    4  C8  UNK     1      30.330  -6.050  36.849  1.00  0.00     0.009 A 
HETATM    5  C10 UNK     1      32.054  -4.699  35.814  1.00  0.00     0.092 A 
HETATM    6  C11 UNK     1      29.915  -4.941  37.587  1.00  0.00     0.090 A 
HETATM    7  C12 UNK     1      29.639  -7.253  37.040  1.00  0.00     0.051 A 
HETATM    8  C13 UNK     1      31.628  -3.520  36.586  1.00  0.00     0.288 A 
HETATM    9  C14 UNK     1      28.852  -5.000  38.490  1.00  0.00     0.041 A 
HETATM   10  C15 UNK     1      28.571  -7.329  37.942  1.00  0.00     0.069 A 
HETATM   11  C17 UNK     1      28.178  -6.203  38.665  1.00  0.00     0.039 A 
ENDROOT
BRANCH   3  12
HETATM   12  C5  UNK     1      31.926  -7.060  35.119  1.00  0.00     0.312 C 
BRANCH  12  13
HETATM   13  N1  UNK     1      32.051  -6.738  33.699  1.00  0.00     0.096 N 
HETATM   14  C1  UNK     1      30.733  -6.702  33.053  1.00  0.00     0.303 C 
HETATM   15  C3  UNK     1      30.864  -6.366  31.564  1.00  0.00     0.303 C 
HETATM   16  N2  UNK     1      31.739  -7.331  30.885  1.00  0.00     0.100 N 
HETATM   17  C4  UNK     1      33.058  -7.366  31.531  1.00  0.00     0.303 C 
HETATM   18  C2  UNK     1      32.928  -7.701  33.020  1.00  0.00     0.303 C 
BRANCH  16  19
HETATM   19  C6  UNK     1      31.864  -7.010  29.465  1.00  0.00     0.374 C 
BRANCH  19  20
HETATM   20  C9  UNK     1      31.685  -8.281  28.662  1.00  0.00     0.246 C 
HETATM   21  O2  UNK     1      32.614  -8.848  28.090  1.00  0.00    -0.272 OA
HETATM   22  N3  UNK     1      30.371  -8.726  28.682  1.00  0.00    -0.360 N 
HETATM   23  H15 UNK     1      29.673  -8.190  29.188  1.00  0.00     0.162 HD
BRANCH  22  24
HETATM   24  C16 UNK     1      29.933  -9.933  28.018  1.00  0.00     0.118 C 
HETATM   25  C18 UNK     1      28.452 -10.173  28.225  1.00  0.00     0.026 C 
ENDBRANCH  22  24
ENDBRANCH  19  20
ENDBRANCH  16  19
ENDBRANCH  12  13
ENDBRANCH   3  12
BRANCH  10  26
HETATM   26  O3  UNK     1      27.912  -8.508  38.114  1.00  0.00    -0.351 OA
BRANCH  26  27
HETATM   27  C19 UNK     1      28.440  -9.411  39.083  1.00  0.00     0.171 C 
HETATM   28  C20 UNK     1      27.297 -10.012  39.873  1.00  0.00     0.034 C 
ENDBRANCH  26  27
ENDBRANCH  10  26
TORSDOF 7
ENDMDL
MODEL 9
REMARK VINA RESULT:      -7.2     14.378     17.002
REMARK  7 active torsions:
REMARK  status: ('A' for Active; 'I' for Inactive)
REMARK    1  A    between atoms: C15_22  and  O3_3 
REMARK    2  A    between atoms: C19_26  and  O3_3 
REMARK    3  A    between atoms: C5_12  and  N1_5 
REMARK    4  A    between atoms: C6_13  and  N2_6 
REMARK    5  A    between atoms: C16_23  and  N3_7 
REMARK       I    between atoms: C9_16  and  N3_7 
REMARK    6  A    between atoms: C5_12  and  C7_14 
REMARK    7  A    between atoms: C6_13  and  C9_16 
ROOT
HETATM    1  O1  UNK     1      33.728  -7.950  28.518  1.00  0.00    -0.275 OA
HETATM    2  O4  UNK     1      35.915  -7.367  28.844  1.00  0.00    -0.260 OA
HETATM    3  C7  UNK     1      33.485  -8.220  31.324  1.00  0.00    -0.011 A 
HETATM    4  C8  UNK     1      32.330  -8.476  30.451  1.00  0.00     0.009 A 
HETATM    5  C10 UNK     1      34.650  -7.856  30.769  1.00  0.00     0.092 A 
HETATM    6  C11 UNK     1      32.489  -8.333  29.073  1.00  0.00     0.090 A 
HETATM    7  C12 UNK     1      31.068  -8.859  30.924  1.00  0.00     0.051 A 
HETATM    8  C13 UNK     1      34.833  -7.701  29.316  1.00  0.00     0.288 A 
HETATM    9  C14 UNK     1      31.445  -8.558  28.174  1.00  0.00     0.041 A 
HETATM   10  C15 UNK     1      30.011  -9.087  30.036  1.00  0.00     0.069 A 
HETATM   11  C17 UNK     1      30.200  -8.937  28.662  1.00  0.00     0.039 A 
ENDROOT
BRANCH   3  12
HETATM   12  C5  UNK     1      33.347  -8.364  32.799  1.00  0.00     0.312 C 
BRANCH  12  13
HETATM   13  N1  UNK     1      33.022  -7.096  33.450  1.00  0.00     0.096 N 
HETATM   14  C1  UNK     1      34.123  -6.656  34.316  1.00  0.00     0.303 C 
HETATM   15  C3  UNK     1      33.782  -5.328  35.000  1.00  0.00     0.303 C 
HETATM   16  N2  UNK     1      32.538  -5.442  35.772  1.00  0.00     0.100 N 
HETATM   17  C4  UNK     1      31.437  -5.882  34.907  1.00  0.00     0.303 C 
HETATM   18  C2  UNK     1      31.777  -7.209  34.221  1.00  0.00     0.303 C 
BRANCH  16  19
HETATM   19  C6  UNK     1      32.213  -4.176  36.425  1.00  0.00     0.374 C 
BRANCH  19  20
HETATM   20  C9  UNK     1      31.599  -4.468  37.778  1.00  0.00     0.246 C 
HETATM   21  O2  UNK     1      32.240  -4.933  38.717  1.00  0.00    -0.272 OA
HETATM   22  N3  UNK     1      30.257  -4.121  37.823  1.00  0.00    -0.360 N 
HETATM   23  H15 UNK     1      29.814  -3.737  36.993  1.00  0.00     0.162 HD
BRANCH  22  24
HETATM   24  C16 UNK     1      29.438  -4.270  39.006  1.00  0.00     0.118 C 
HETATM   25  C18 UNK     1      28.810  -5.646  39.075  1.00  0.00     0.026 C 
ENDBRANCH  22  24
ENDBRANCH  19  20
ENDBRANCH  16  19
ENDBRANCH  12  13
ENDBRANCH   3  12
BRANCH  10  26
HETATM   26  O3  UNK     1      28.791  -9.458  30.514  1.00  0.00    -0.351 OA
BRANCH  26  27
HETATM   27  C19 UNK     1      27.667  -8.688  30.092  1.00  0.00     0.171 C 
HETATM   28  C20 UNK     1      27.562  -7.452  30.959  1.00  0.00     0.034 C 
ENDBRANCH  26  27
ENDBRANCH  10  26
TORSDOF 7
ENDMDL
MODEL 10
REMARK VINA RESULT:      -7.1      4.253      8.768
REMARK  7 active torsions:
REMARK  status: ('A' for Active; 'I' for Inactive)
REMARK    1  A    between atoms: C15_22  and  O3_3 
REMARK    2  A    between atoms: C19_26  and  O3_3 
REMARK    3  A    between atoms: C5_12  and  N1_5 
REMARK    4  A    between atoms: C6_13  and  N2_6 
REMARK    5  A    between atoms: C16_23  and  N3_7 
REMARK       I    between atoms: C9_16  and  N3_7 
REMARK    6  A    between atoms: C5_12  and  C7_14 
REMARK    7  A    between atoms: C6_13  and  C9_16 
ROOT
HETATM    1  O1  UNK     1      19.816  -0.180  30.253  1.00  0.00    -0.275 OA
HETATM    2  O4  UNK     1      20.305  -2.405  30.463  1.00  0.00    -0.260 OA
HETATM    3  C7  UNK     1      18.645  -0.296  32.826  1.00  0.00    -0.011 A 
HETATM    4  C8  UNK     1      18.663   0.967  32.075  1.00  0.00     0.009 A 
HETATM    5  C10 UNK     1      19.192  -1.388  32.272  1.00  0.00     0.092 A 
HETATM    6  C11 UNK     1      19.250   0.985  30.809  1.00  0.00     0.090 A 
HETATM    7  C12 UNK     1      18.123   2.167  32.558  1.00  0.00     0.051 A 
HETATM    8  C13 UNK     1      19.815  -1.385  30.938  1.00  0.00     0.288 A 
HETATM    9  C14 UNK     1      19.309   2.142  30.030  1.00  0.00     0.041 A 
HETATM   10  C15 UNK     1      18.176   3.335  31.790  1.00  0.00     0.069 A 
HETATM   11  C17 UNK     1      18.768   3.322  30.527  1.00  0.00     0.039 A 
ENDROOT
BRANCH   3  12
HETATM   12  C5  UNK     1      18.027  -0.348  34.179  1.00  0.00     0.312 C 
BRANCH  12  13
HETATM   13  N1  UNK     1      18.898  -0.993  35.160  1.00  0.00     0.096 N 
HETATM   14  C1  UNK     1      19.709  -2.041  34.528  1.00  0.00     0.303 C 
HETATM   15  C3  UNK     1      20.621  -2.719  35.556  1.00  0.00     0.303 C 
HETATM   16  N2  UNK     1      19.835  -3.278  36.663  1.00  0.00     0.100 N 
HETATM   17  C4  UNK     1      19.024  -2.230  37.295  1.00  0.00     0.303 C 
HETATM   18  C2  UNK     1      18.113  -1.550  36.268  1.00  0.00     0.303 C 
BRANCH  16  19
HETATM   19  C6  UNK     1      20.705  -3.925  37.644  1.00  0.00     0.374 C 
BRANCH  19  20
HETATM   20  C9  UNK     1      20.621  -5.425  37.454  1.00  0.00     0.246 C 
HETATM   21  O2  UNK     1      21.600  -6.124  37.201  1.00  0.00    -0.272 OA
HETATM   22  N3  UNK     1      19.329  -5.898  37.629  1.00  0.00    -0.360 N 
HETATM   23  H15 UNK     1      18.584  -5.242  37.841  1.00  0.00     0.162 HD
BRANCH  22  24
HETATM   24  C16 UNK     1      18.977  -7.297  37.532  1.00  0.00     0.118 C 
HETATM   25  C18 UNK     1      18.503  -7.654  36.138  1.00  0.00     0.026 C 
ENDBRANCH  22  24
ENDBRANCH  19  20
ENDBRANCH  16  19
ENDBRANCH  12  13
ENDBRANCH   3  12
BRANCH  10  26
HETATM   26  O3  UNK     1      17.646   4.491  32.276  1.00  0.00    -0.351 OA
BRANCH  26  27
HETATM   27  C19 UNK     1      18.209   5.006  33.482  1.00  0.00     0.171 C 
HETATM   28  C20 UNK     1      19.326   5.966  33.133  1.00  0.00     0.034 C 
ENDBRANCH  26  27
ENDBRANCH  10  26
TORSDOF 7
ENDMDL
