MODEL 1
REMARK VINA RESULT:      -8.7      0.000      0.000
REMARK  1 active torsions:
REMARK  status: ('A' for Active; 'I' for Inactive)
REMARK    1  A    between atoms: C1_5  and  C5_9 
ROOT
HETATM    1  O1  UNK     1      16.069   6.914  31.642  1.00  0.00    -0.277 OA
HETATM    2  O2  UNK     1      19.461   7.236  34.116  1.00  0.00    -0.274 OA
HETATM    3  O3  UNK     1      13.852   7.193  31.279  1.00  0.00    -0.265 OA
HETATM    4  O4  UNK     1      18.162   8.063  35.798  1.00  0.00    -0.259 OA
HETATM    5  C1  UNK     1      15.709   7.914  34.316  1.00  0.00     0.070 C 
HETATM    6  C2  UNK     1      17.053   7.510  33.770  1.00  0.00     0.061 A 
HETATM    7  C3  UNK     1      14.590   7.193  33.559  1.00  0.00     0.126 C 
HETATM    8  C4  UNK     1      17.163   7.017  32.528  1.00  0.00     0.105 A 
HETATM    9  C6  UNK     1      18.458   6.615  31.987  1.00  0.00     0.033 A 
HETATM   10  C7  UNK     1      14.792   7.136  32.066  1.00  0.00     0.265 C 
HETATM   11  C8  UNK     1      18.240   7.633  34.652  1.00  0.00     0.298 A 
HETATM   12  C9  UNK     1      19.579   6.738  32.804  1.00  0.00     0.092 A 
HETATM   13  C12 UNK     1      18.636   6.110  30.693  1.00  0.00     0.017 A 
HETATM   14  C13 UNK     1      20.854   6.377  32.372  1.00  0.00     0.038 A 
HETATM   15  C16 UNK     1      19.909   5.745  30.245  1.00  0.00     0.001 A 
HETATM   16  C18 UNK     1      21.016   5.877  31.083  1.00  0.00     0.003 A 
ENDROOT
BRANCH   5  17
HETATM   17  C5  UNK     1      15.507   9.423  34.349  1.00  0.00    -0.049 A 
HETATM   18  C10 UNK     1      14.276   9.948  34.731  1.00  0.00     0.008 A 
HETATM   19  C14 UNK     1      14.092  11.330  34.761  1.00  0.00     0.001 A 
HETATM   20  C17 UNK     1      15.140  12.181  34.411  1.00  0.00     0.000 A 
HETATM   21  C15 UNK     1      16.372  11.650  34.029  1.00  0.00     0.001 A 
HETATM   22  C11 UNK     1      16.556  10.268  33.998  1.00  0.00     0.008 A 
ENDBRANCH   5  17
TORSDOF 1
ENDMDL
MODEL 2
REMARK VINA RESULT:      -8.3     18.262     20.181
REMARK  1 active torsions:
REMARK  status: ('A' for Active; 'I' for Inactive)
REMARK    1  A    between atoms: C1_5  and  C5_9 
ROOT
HETATM    1  O1  UNK     1      30.520  -4.587  38.176  1.00  0.00    -0.277 OA
HETATM    2  O2  UNK     1      30.644  -6.685  34.528  1.00  0.00    -0.274 OA
HETATM    3  O3  UNK     1      29.475  -4.036  40.107  1.00  0.00    -0.265 OA
HETATM    4  O4  UNK     1      28.568  -7.535  34.940  1.00  0.00    -0.259 OA
HETATM    5  C1  UNK     1      28.241  -6.186  37.452  1.00  0.00     0.070 C 
HETATM    6  C2  UNK     1      29.468  -6.076  36.586  1.00  0.00     0.061 A 
HETATM    7  C3  UNK     1      28.118  -4.957  38.359  1.00  0.00     0.126 C 
HETATM    8  C4  UNK     1      30.491  -5.289  36.952  1.00  0.00     0.105 A 
HETATM    9  C6  UNK     1      31.683  -5.167  36.120  1.00  0.00     0.033 A 
HETATM   10  C7  UNK     1      29.420  -4.517  38.979  1.00  0.00     0.265 C 
HETATM   11  C8  UNK     1      29.498  -6.824  35.305  1.00  0.00     0.298 A 
HETATM   12  C9  UNK     1      31.726  -5.875  34.922  1.00  0.00     0.092 A 
HETATM   13  C12 UNK     1      32.788  -4.376  36.459  1.00  0.00     0.017 A 
HETATM   14  C13 UNK     1      32.823  -5.817  34.065  1.00  0.00     0.038 A 
HETATM   15  C16 UNK     1      33.897  -4.308  35.610  1.00  0.00     0.001 A 
HETATM   16  C18 UNK     1      33.915  -5.027  34.414  1.00  0.00     0.003 A 
ENDROOT
BRANCH   5  17
HETATM   17  C5  UNK     1      28.176  -7.492  38.233  1.00  0.00    -0.049 A 
HETATM   18  C10 UNK     1      27.024  -7.817  38.942  1.00  0.00     0.008 A 
HETATM   19  C14 UNK     1      26.965  -9.013  39.656  1.00  0.00     0.001 A 
HETATM   20  C17 UNK     1      28.059  -9.879  39.658  1.00  0.00     0.000 A 
HETATM   21  C15 UNK     1      29.211  -9.548  38.946  1.00  0.00     0.001 A 
HETATM   22  C11 UNK     1      29.270  -8.352  38.231  1.00  0.00     0.008 A 
ENDBRANCH   5  17
TORSDOF 1
ENDMDL
MODEL 3
REMARK VINA RESULT:      -8.3      1.412      6.252
REMARK  1 active torsions:
REMARK  status: ('A' for Active; 'I' for Inactive)
REMARK    1  A    between atoms: C1_5  and  C5_9 
ROOT
HETATM    1  O1  UNK     1      18.754  10.073  34.223  1.00  0.00    -0.277 OA
HETATM    2  O2  UNK     1      14.858   8.823  33.230  1.00  0.00    -0.274 OA
HETATM    3  O3  UNK     1      20.938   9.621  34.611  1.00  0.00    -0.265 OA
HETATM    4  O4  UNK     1      15.572   6.659  33.134  1.00  0.00    -0.259 OA
HETATM    5  C1  UNK     1      18.292   7.262  33.821  1.00  0.00     0.070 C 
HETATM    6  C2  UNK     1      17.205   8.295  33.686  1.00  0.00     0.061 A 
HETATM    7  C3  UNK     1      19.408   7.781  34.733  1.00  0.00     0.126 C 
HETATM    8  C4  UNK     1      17.464   9.590  33.918  1.00  0.00     0.105 A 
HETATM    9  C6  UNK     1      16.419  10.602  33.798  1.00  0.00     0.033 A 
HETATM   10  C7  UNK     1      19.785   9.220  34.488  1.00  0.00     0.265 C 
HETATM   11  C8  UNK     1      15.837   7.839  33.332  1.00  0.00     0.298 A 
HETATM   12  C9  UNK     1      15.136  10.185  33.454  1.00  0.00     0.092 A 
HETATM   13  C12 UNK     1      16.634  11.969  34.010  1.00  0.00     0.017 A 
HETATM   14  C13 UNK     1      14.076  11.081  33.319  1.00  0.00     0.038 A 
HETATM   15  C16 UNK     1      15.582  12.880  33.877  1.00  0.00     0.001 A 
HETATM   16  C18 UNK     1      14.305  12.437  33.532  1.00  0.00     0.003 A 
ENDROOT
BRANCH   5  17
HETATM   17  C5  UNK     1      18.821   6.773  32.479  1.00  0.00    -0.049 A 
HETATM   18  C10 UNK     1      18.010   6.839  31.351  1.00  0.00     0.008 A 
HETATM   19  C14 UNK     1      18.495   6.391  30.122  1.00  0.00     0.001 A 
HETATM   20  C17 UNK     1      19.789   5.880  30.028  1.00  0.00     0.000 A 
HETATM   21  C15 UNK     1      20.598   5.817  31.162  1.00  0.00     0.001 A 
HETATM   22  C11 UNK     1      20.114   6.264  32.390  1.00  0.00     0.008 A 
ENDBRANCH   5  17
TORSDOF 1
ENDMDL
MODEL 4
REMARK VINA RESULT:      -8.2     19.790     22.031
REMARK  1 active torsions:
REMARK  status: ('A' for Active; 'I' for Inactive)
REMARK    1  A    between atoms: C1_5  and  C5_9 
ROOT
HETATM    1  O1  UNK     1      19.989  -2.571  16.218  1.00  0.00    -0.277 OA
HETATM    2  O2  UNK     1      22.379  -6.012  15.808  1.00  0.00    -0.274 OA
HETATM    3  O3  UNK     1      18.155  -1.360  15.675  1.00  0.00    -0.265 OA
HETATM    4  O4  UNK     1      20.946  -6.826  14.231  1.00  0.00    -0.259 OA
HETATM    5  C1  UNK     1      19.174  -4.570  14.315  1.00  0.00     0.070 C 
HETATM    6  C2  UNK     1      20.409  -4.708  15.166  1.00  0.00     0.061 A 
HETATM    7  C3  UNK     1      18.805  -3.092  14.152  1.00  0.00     0.126 C 
HETATM    8  C4  UNK     1      20.765  -3.732  16.014  1.00  0.00     0.105 A 
HETATM    9  C6  UNK     1      21.962  -3.848  16.840  1.00  0.00     0.033 A 
HETATM   10  C7  UNK     1      18.921  -2.284  15.419  1.00  0.00     0.265 C 
HETATM   11  C8  UNK     1      21.240  -5.928  15.013  1.00  0.00     0.298 A 
HETATM   12  C9  UNK     1      22.741  -4.995  16.712  1.00  0.00     0.092 A 
HETATM   13  C12 UNK     1      22.373  -2.870  17.754  1.00  0.00     0.017 A 
HETATM   14  C13 UNK     1      23.901  -5.191  17.459  1.00  0.00     0.038 A 
HETATM   15  C16 UNK     1      23.534  -3.053  18.512  1.00  0.00     0.001 A 
HETATM   16  C18 UNK     1      24.297  -4.211  18.365  1.00  0.00     0.003 A 
ENDROOT
BRANCH   5  17
HETATM   17  C5  UNK     1      18.006  -5.407  14.818  1.00  0.00    -0.049 A 
HETATM   18  C10 UNK     1      17.545  -5.240  16.120  1.00  0.00     0.008 A 
HETATM   19  C14 UNK     1      16.475  -6.007  16.579  1.00  0.00     0.001 A 
HETATM   20  C17 UNK     1      15.870  -6.937  15.733  1.00  0.00     0.000 A 
HETATM   21  C15 UNK     1      16.335  -7.100  14.429  1.00  0.00     0.001 A 
HETATM   22  C11 UNK     1      17.406  -6.334  13.969  1.00  0.00     0.008 A 
ENDBRANCH   5  17
TORSDOF 1
ENDMDL
MODEL 5
REMARK VINA RESULT:      -8.1     23.613     24.962
REMARK  1 active torsions:
REMARK  status: ('A' for Active; 'I' for Inactive)
REMARK    1  A    between atoms: C1_5  and  C5_9 
ROOT
HETATM    1  O1  UNK     1      14.826   6.993   9.201  1.00  0.00    -0.277 OA
HETATM    2  O2  UNK     1      12.574  10.410  10.190  1.00  0.00    -0.274 OA
HETATM    3  O3  UNK     1      14.964   4.784   8.723  1.00  0.00    -0.265 OA
HETATM    4  O4  UNK     1      10.672   9.151  10.231  1.00  0.00    -0.259 OA
HETATM    5  C1  UNK     1      11.992   6.685   9.588  1.00  0.00     0.070 C 
HETATM    6  C2  UNK     1      12.694   8.011   9.720  1.00  0.00     0.061 A 
HETATM    7  C3  UNK     1      12.976   5.536   9.831  1.00  0.00     0.126 C 
HETATM    8  C4  UNK     1      14.023   8.096   9.563  1.00  0.00     0.105 A 
HETATM    9  C6  UNK     1      14.718   9.372   9.694  1.00  0.00     0.033 A 
HETATM   10  C7  UNK     1      14.320   5.727   9.174  1.00  0.00     0.265 C 
HETATM   11  C8  UNK     1      11.886   9.207  10.065  1.00  0.00     0.298 A 
HETATM   12  C9  UNK     1      13.967  10.502  10.005  1.00  0.00     0.092 A 
HETATM   13  C12 UNK     1      16.100   9.524   9.524  1.00  0.00     0.017 A 
HETATM   14  C13 UNK     1      14.546  11.761  10.151  1.00  0.00     0.038 A 
HETATM   15  C16 UNK     1      16.696  10.781   9.666  1.00  0.00     0.001 A 
HETATM   16  C18 UNK     1      15.921  11.898   9.979  1.00  0.00     0.003 A 
ENDROOT
BRANCH   5  17
HETATM   17  C5  UNK     1      11.239   6.535   8.273  1.00  0.00    -0.049 A 
HETATM   18  C10 UNK     1      11.922   6.661   7.068  1.00  0.00     0.008 A 
HETATM   19  C14 UNK     1      11.232   6.523   5.863  1.00  0.00     0.001 A 
HETATM   20  C17 UNK     1       9.863   6.259   5.870  1.00  0.00     0.000 A 
HETATM   21  C15 UNK     1       9.183   6.133   7.082  1.00  0.00     0.001 A 
HETATM   22  C11 UNK     1       9.872   6.271   8.286  1.00  0.00     0.008 A 
ENDBRANCH   5  17
TORSDOF 1
ENDMDL
MODEL 6
REMARK VINA RESULT:      -7.9     19.417     22.647
REMARK  1 active torsions:
REMARK  status: ('A' for Active; 'I' for Inactive)
REMARK    1  A    between atoms: C1_5  and  C5_9 
ROOT
HETATM    1  O1  UNK     1      22.014  -6.064  15.143  1.00  0.00    -0.277 OA
HETATM    2  O2  UNK     1      20.967  -2.489  17.105  1.00  0.00    -0.274 OA
HETATM    3  O3  UNK     1      21.615  -7.654  13.582  1.00  0.00    -0.265 OA
HETATM    4  O4  UNK     1      19.081  -2.336  15.831  1.00  0.00    -0.259 OA
HETATM    5  C1  UNK     1      19.569  -4.759  14.372  1.00  0.00     0.070 C 
HETATM    6  C2  UNK     1      20.483  -4.215  15.437  1.00  0.00     0.061 A 
HETATM    7  C3  UNK     1      19.766  -6.271  14.225  1.00  0.00     0.126 C 
HETATM    8  C4  UNK     1      21.595  -4.879  15.784  1.00  0.00     0.105 A 
HETATM    9  C6  UNK     1      22.488  -4.367  16.820  1.00  0.00     0.033 A 
HETATM   10  C7  UNK     1      21.208  -6.709  14.252  1.00  0.00     0.265 C 
HETATM   11  C8  UNK     1      20.103  -2.952  16.117  1.00  0.00     0.298 A 
HETATM   12  C9  UNK     1      22.145  -3.177  17.455  1.00  0.00     0.092 A 
HETATM   13  C12 UNK     1      23.670  -5.008  17.212  1.00  0.00     0.017 A 
HETATM   14  C13 UNK     1      22.936  -2.615  18.455  1.00  0.00     0.038 A 
HETATM   15  C16 UNK     1      24.475  -4.456  18.213  1.00  0.00     0.001 A 
HETATM   16  C18 UNK     1      24.109  -3.262  18.834  1.00  0.00     0.003 A 
ENDROOT
BRANCH   5  17
HETATM   17  C5  UNK     1      19.696  -4.025  13.043  1.00  0.00    -0.049 A 
HETATM   18  C10 UNK     1      20.494  -2.889  12.955  1.00  0.00     0.008 A 
HETATM   19  C14 UNK     1      20.610  -2.218  11.738  1.00  0.00     0.001 A 
HETATM   20  C17 UNK     1      19.929  -2.687  10.615  1.00  0.00     0.000 A 
HETATM   21  C15 UNK     1      19.130  -3.826  10.709  1.00  0.00     0.001 A 
HETATM   22  C11 UNK     1      19.013  -4.498  11.926  1.00  0.00     0.008 A 
ENDBRANCH   5  17
TORSDOF 1
ENDMDL
MODEL 7
REMARK VINA RESULT:      -7.8     14.076     15.595
REMARK  1 active torsions:
REMARK  status: ('A' for Active; 'I' for Inactive)
REMARK    1  A    between atoms: C1_5  and  C5_9 
ROOT
HETATM    1  O1  UNK     1      19.192  -8.091  35.512  1.00  0.00    -0.277 OA
HETATM    2  O2  UNK     1      22.734  -7.548  37.724  1.00  0.00    -0.274 OA
HETATM    3  O3  UNK     1      17.133  -7.401  34.873  1.00  0.00    -0.265 OA
HETATM    4  O4  UNK     1      21.890  -5.623  38.610  1.00  0.00    -0.259 OA
HETATM    5  C1  UNK     1      19.381  -5.789  37.226  1.00  0.00     0.070 C 
HETATM    6  C2  UNK     1      20.493  -6.796  37.087  1.00  0.00     0.061 A 
HETATM    7  C3  UNK     1      18.037  -6.429  36.869  1.00  0.00     0.126 C 
HETATM    8  C4  UNK     1      20.342  -7.871  36.300  1.00  0.00     0.105 A 
HETATM    9  C6  UNK     1      21.407  -8.859  36.160  1.00  0.00     0.033 A 
HETATM   10  C7  UNK     1      18.080  -7.314  35.649  1.00  0.00     0.265 C 
HETATM   11  C8  UNK     1      21.736  -6.589  37.870  1.00  0.00     0.298 A 
HETATM   12  C9  UNK     1      22.582  -8.666  36.882  1.00  0.00     0.092 A 
HETATM   13  C12 UNK     1      21.313  -9.991  35.342  1.00  0.00     0.017 A 
HETATM   14  C13 UNK     1      23.651  -9.559  36.811  1.00  0.00     0.038 A 
HETATM   15  C16 UNK     1      22.377 -10.895  35.259  1.00  0.00     0.001 A 
HETATM   16  C18 UNK     1      23.544 -10.680  35.992  1.00  0.00     0.003 A 
ENDROOT
BRANCH   5  17
HETATM   17  C5  UNK     1      19.637  -4.505  36.448  1.00  0.00    -0.049 A 
HETATM   18  C10 UNK     1      20.161  -4.570  35.161  1.00  0.00     0.008 A 
HETATM   19  C14 UNK     1      20.395  -3.394  34.449  1.00  0.00     0.001 A 
HETATM   20  C17 UNK     1      20.103  -2.159  35.026  1.00  0.00     0.000 A 
HETATM   21  C15 UNK     1      19.578  -2.099  36.317  1.00  0.00     0.001 A 
HETATM   22  C11 UNK     1      19.344  -3.275  37.030  1.00  0.00     0.008 A 
ENDBRANCH   5  17
TORSDOF 1
ENDMDL
MODEL 8
REMARK VINA RESULT:      -7.8     19.082     20.929
REMARK  1 active torsions:
REMARK  status: ('A' for Active; 'I' for Inactive)
REMARK    1  A    between atoms: C1_5  and  C5_9 
ROOT
HETATM    1  O1  UNK     1      29.974  -8.297  35.324  1.00  0.00    -0.277 OA
HETATM    2  O2  UNK     1      29.094  -5.715  38.530  1.00  0.00    -0.274 OA
HETATM    3  O3  UNK     1      30.978  -8.714  33.338  1.00  0.00    -0.265 OA
HETATM    4  O4  UNK     1      30.256  -4.040  37.507  1.00  0.00    -0.259 OA
HETATM    5  C1  UNK     1      30.965  -5.598  35.204  1.00  0.00     0.070 C 
HETATM    6  C2  UNK     1      30.155  -6.120  36.362  1.00  0.00     0.061 A 
HETATM    7  C3  UNK     1      30.673  -6.415  33.941  1.00  0.00     0.126 C 
HETATM    8  C4  UNK     1      29.687  -7.377  36.354  1.00  0.00     0.105 A 
HETATM    9  C6  UNK     1      28.895  -7.894  37.465  1.00  0.00     0.033 A 
HETATM   10  C7  UNK     1      30.593  -7.902  34.174  1.00  0.00     0.265 C 
HETATM   11  C8  UNK     1      29.856  -5.199  37.486  1.00  0.00     0.298 A 
HETATM   12  C9  UNK     1      28.620  -7.040  38.531  1.00  0.00     0.092 A 
HETATM   13  C12 UNK     1      28.396  -9.201  37.521  1.00  0.00     0.017 A 
HETATM   14  C13 UNK     1      27.871  -7.448  39.633  1.00  0.00     0.038 A 
HETATM   15  C16 UNK     1      27.644  -9.625  38.620  1.00  0.00     0.001 A 
HETATM   16  C18 UNK     1      27.381  -8.751  39.675  1.00  0.00     0.003 A 
ENDROOT
BRANCH   5  17
HETATM   17  C5  UNK     1      32.454  -5.512  35.507  1.00  0.00    -0.049 A 
HETATM   18  C10 UNK     1      33.015  -6.355  36.462  1.00  0.00     0.008 A 
HETATM   19  C14 UNK     1      34.379  -6.276  36.739  1.00  0.00     0.001 A 
HETATM   20  C17 UNK     1      35.177  -5.356  36.059  1.00  0.00     0.000 A 
HETATM   21  C15 UNK     1      34.610  -4.514  35.103  1.00  0.00     0.001 A 
HETATM   22  C11 UNK     1      33.246  -4.592  34.826  1.00  0.00     0.008 A 
ENDBRANCH   5  17
TORSDOF 1
ENDMDL
MODEL 9
REMARK VINA RESULT:      -7.8     18.332     20.113
REMARK  1 active torsions:
REMARK  status: ('A' for Active; 'I' for Inactive)
REMARK    1  A    between atoms: C1_5  and  C5_9 
ROOT
HETATM    1  O1  UNK     1      31.248  -6.215  34.753  1.00  0.00    -0.277 OA
HETATM    2  O2  UNK     1      27.910  -7.297  37.080  1.00  0.00    -0.274 OA
HETATM    3  O3  UNK     1      32.569  -6.499  32.937  1.00  0.00    -0.265 OA
HETATM    4  O4  UNK     1      27.434  -8.985  35.622  1.00  0.00    -0.259 OA
HETATM    5  C1  UNK     1      29.661  -8.454  33.891  1.00  0.00     0.070 C 
HETATM    6  C2  UNK     1      29.344  -7.658  35.129  1.00  0.00     0.061 A 
HETATM    7  C3  UNK     1      31.148  -8.330  33.546  1.00  0.00     0.126 C 
HETATM    8  C4  UNK     1      30.135  -6.644  35.507  1.00  0.00     0.105 A 
HETATM    9  C6  UNK     1      29.844  -5.867  36.708  1.00  0.00     0.033 A 
HETATM   10  C7  UNK     1      31.698  -6.933  33.685  1.00  0.00     0.265 C 
HETATM   11  C8  UNK     1      28.162  -8.049  35.937  1.00  0.00     0.298 A 
HETATM   12  C9  UNK     1      28.731  -6.220  37.466  1.00  0.00     0.092 A 
HETATM   13  C12 UNK     1      30.624  -4.788  37.143  1.00  0.00     0.017 A 
HETATM   14  C13 UNK     1      28.378  -5.535  38.628  1.00  0.00     0.038 A 
HETATM   15  C16 UNK     1      30.283  -4.091  38.305  1.00  0.00     0.001 A 
HETATM   16  C18 UNK     1      29.162  -4.464  39.048  1.00  0.00     0.003 A 
ENDROOT
BRANCH   5  17
HETATM   17  C5  UNK     1      28.762  -8.109  32.711  1.00  0.00    -0.049 A 
HETATM   18  C10 UNK     1      28.114  -6.878  32.673  1.00  0.00     0.008 A 
HETATM   19  C14 UNK     1      27.291  -6.562  31.593  1.00  0.00     0.001 A 
HETATM   20  C17 UNK     1      27.120  -7.478  30.555  1.00  0.00     0.000 A 
HETATM   21  C15 UNK     1      27.771  -8.710  30.598  1.00  0.00     0.001 A 
HETATM   22  C11 UNK     1      28.594  -9.027  31.678  1.00  0.00     0.008 A 
ENDBRANCH   5  17
TORSDOF 1
ENDMDL
MODEL 10
REMARK VINA RESULT:      -7.8     22.601     24.942
REMARK  1 active torsions:
REMARK  status: ('A' for Active; 'I' for Inactive)
REMARK    1  A    between atoms: C1_5  and  C5_9 
ROOT
HETATM    1  O1  UNK     1      11.796   8.780  10.420  1.00  0.00    -0.277 OA
HETATM    2  O2  UNK     1      12.837   5.983   7.451  1.00  0.00    -0.274 OA
HETATM    3  O3  UNK     1      12.368  10.198  12.090  1.00  0.00    -0.265 OA
HETATM    4  O4  UNK     1      15.029   6.141   8.063  1.00  0.00    -0.259 OA
HETATM    5  C1  UNK     1      14.565   8.040  10.164  1.00  0.00     0.070 C 
HETATM    6  C2  UNK     1      13.484   7.474   9.281  1.00  0.00     0.061 A 
HETATM    7  C3  UNK     1      13.970   8.518  11.492  1.00  0.00     0.126 C 
HETATM    8  C4  UNK     1      12.202   7.826   9.464  1.00  0.00     0.105 A 
HETATM    9  C6  UNK     1      11.143   7.281   8.621  1.00  0.00     0.033 A 
HETATM   10  C7  UNK     1      12.668   9.265  11.350  1.00  0.00     0.265 C 
HETATM   11  C8  UNK     1      13.866   6.492   8.237  1.00  0.00     0.298 A 
HETATM   12  C9  UNK     1      11.495   6.368   7.630  1.00  0.00     0.092 A 
HETATM   13  C12 UNK     1       9.792   7.624   8.753  1.00  0.00     0.017 A 
HETATM   14  C13 UNK     1      10.550   5.795   6.780  1.00  0.00     0.038 A 
HETATM   15  C16 UNK     1       8.832   7.059   7.908  1.00  0.00     0.001 A 
HETATM   16  C18 UNK     1       9.210   6.146   6.923  1.00  0.00     0.003 A 
ENDROOT
BRANCH   5  17
HETATM   17  C5  UNK     1      15.393   9.118   9.478  1.00  0.00    -0.049 A 
HETATM   18  C10 UNK     1      14.801   9.945   8.529  1.00  0.00     0.008 A 
HETATM   19  C14 UNK     1      15.560  10.933   7.902  1.00  0.00     0.001 A 
HETATM   20  C17 UNK     1      16.907  11.089   8.227  1.00  0.00     0.000 A 
HETATM   21  C15 UNK     1      17.495  10.257   9.179  1.00  0.00     0.001 A 
HETATM   22  C11 UNK     1      16.737   9.269   9.806  1.00  0.00     0.008 A 
ENDBRANCH   5  17
TORSDOF 1
ENDMDL
