MODEL 1
REMARK VINA RESULT:      -9.6      0.000      0.000
REMARK  3 active torsions:
REMARK  status: ('A' for Active; 'I' for Inactive)
REMARK    1  A    between atoms: C16_24  and  O2_4 
REMARK       I    between atoms: C11_19  and  N1_7 
REMARK    2  A    between atoms: C5_13  and  N1_7 
REMARK    3  A    between atoms: C11_19  and  C6_14 
ROOT
HETATM    1  S1  UNK     1      18.551   8.990  33.980  1.00  0.00    -0.075 SA
HETATM    2  N2  UNK     1      14.685   7.219  31.182  1.00  0.00    -0.191 NA
HETATM    3  C1  UNK     1      18.065   7.006  32.422  1.00  0.00     0.011 A 
HETATM    4  C2  UNK     1      19.059   7.551  33.204  1.00  0.00    -0.006 A 
HETATM    5  C3  UNK     1      18.293   5.788  31.683  1.00  0.00    -0.023 A 
HETATM    6  C4  UNK     1      16.868   7.778  32.462  1.00  0.00     0.090 A 
HETATM    7  C5  UNK     1      17.014   8.865  33.265  1.00  0.00     0.099 A 
HETATM    8  C8  UNK     1      18.791   5.852  30.385  1.00  0.00     0.015 A 
HETATM    9  C9  UNK     1      18.016   4.559  32.274  1.00  0.00     0.015 A 
HETATM   10  C10 UNK     1      20.442   7.070  33.441  1.00  0.00     0.057 C 
HETATM   11  C14 UNK     1      19.012   4.675  29.670  1.00  0.00     0.037 A 
HETATM   12  C15 UNK     1      18.238   3.382  31.558  1.00  0.00     0.037 A 
HETATM   13  C16 UNK     1      18.736   3.440  30.257  1.00  0.00     0.068 A 
HETATM   14  C20 UNK     1      15.663   7.469  31.755  1.00  0.00     0.103 C 
ENDROOT
BRANCH   7  15
HETATM   15  N1  UNK     1      16.112   9.882  33.592  1.00  0.00    -0.316 N 
HETATM   16  C11 UNK     1      14.874   9.715  34.195  1.00  0.00     0.262 C 
HETATM   17  O3  UNK     1      14.330   8.673  34.555  1.00  0.00    -0.267 OA
HETATM   18  H1  UNK     1      16.518  10.815  33.563  1.00  0.00     0.170 HD
BRANCH  16  19
HETATM   19  C6  UNK     1      14.185  10.996  34.395  1.00  0.00     0.108 A 
HETATM   20  C12 UNK     1      13.069  11.186  33.681  1.00  0.00     0.037 A 
HETATM   21  C7  UNK     1      12.317  12.424  33.810  1.00  0.00     0.001 A 
HETATM   22  C13 UNK     1      12.777  13.403  34.686  1.00  0.00     0.089 A 
HETATM   23  C18 UNK     1      11.147  12.665  33.086  1.00  0.00     0.038 A 
HETATM   24  O1  UNK     1      13.953  13.197  35.435  1.00  0.00    -0.274 OA
HETATM   25  C19 UNK     1      12.105  14.611  34.857  1.00  0.00     0.040 A 
HETATM   26  C17 UNK     1      14.694  12.023  35.332  1.00  0.00     0.304 A 
HETATM   27  O4  UNK     1      15.716  11.853  35.987  1.00  0.00    -0.259 OA
HETATM   28  C22 UNK     1      10.939  14.843  34.130  1.00  0.00     0.026 A 
HETATM   29  C21 UNK     1      10.461  13.872  33.247  1.00  0.00     0.035 A 
HETATM   30 Cl1  UNK     1       9.021  14.165  32.349  1.00  0.00    -0.084 Cl
ENDBRANCH  16  19
ENDBRANCH   7  15
BRANCH  13  31
HETATM   31  O2  UNK     1      18.953   2.291  29.559  1.00  0.00    -0.356 OA
HETATM   32  C23 UNK     1      17.896   1.832  28.719  1.00  0.00     0.210 C 
ENDBRANCH  13  31
TORSDOF 3
ENDMDL
MODEL 2
REMARK VINA RESULT:      -9.2      2.482      2.985
REMARK  3 active torsions:
REMARK  status: ('A' for Active; 'I' for Inactive)
REMARK    1  A    between atoms: C16_24  and  O2_4 
REMARK       I    between atoms: C11_19  and  N1_7 
REMARK    2  A    between atoms: C5_13  and  N1_7 
REMARK    3  A    between atoms: C11_19  and  C6_14 
ROOT
HETATM    1  S1  UNK     1      19.229   8.166  34.142  1.00  0.00    -0.075 SA
HETATM    2  N2  UNK     1      14.890   6.788  31.865  1.00  0.00    -0.191 NA
HETATM    3  C1  UNK     1      18.425   6.395  32.465  1.00  0.00     0.011 A 
HETATM    4  C2  UNK     1      19.554   6.831  33.122  1.00  0.00    -0.006 A 
HETATM    5  C3  UNK     1      18.487   5.276  31.556  1.00  0.00    -0.023 A 
HETATM    6  C4  UNK     1      17.276   7.167  32.804  1.00  0.00     0.090 A 
HETATM    7  C5  UNK     1      17.589   8.144  33.695  1.00  0.00     0.099 A 
HETATM    8  C8  UNK     1      18.757   5.496  30.208  1.00  0.00     0.015 A 
HETATM    9  C9  UNK     1      18.279   3.986  32.033  1.00  0.00     0.015 A 
HETATM   10  C10 UNK     1      20.942   6.313  33.056  1.00  0.00     0.057 C 
HETATM   11  C14 UNK     1      18.817   4.415  29.329  1.00  0.00     0.037 A 
HETATM   12  C15 UNK     1      18.340   2.904  31.153  1.00  0.00     0.037 A 
HETATM   13  C16 UNK     1      18.609   3.119  29.801  1.00  0.00     0.068 A 
HETATM   14  C20 UNK     1      15.959   6.958  32.286  1.00  0.00     0.103 C 
ENDROOT
BRANCH   7  15
HETATM   15  N1  UNK     1      16.787   9.120  34.293  1.00  0.00    -0.316 N 
HETATM   16  C11 UNK     1      16.915  10.493  34.135  1.00  0.00     0.262 C 
HETATM   17  O3  UNK     1      17.732  11.115  33.459  1.00  0.00    -0.267 OA
HETATM   18  H1  UNK     1      15.928   8.755  34.698  1.00  0.00     0.170 HD
BRANCH  16  19
HETATM   19  C6  UNK     1      15.906  11.229  34.907  1.00  0.00     0.108 A 
HETATM   20  C12 UNK     1      16.306  12.383  35.454  1.00  0.00     0.037 A 
HETATM   21  C7  UNK     1      15.378  13.183  36.238  1.00  0.00     0.001 A 
HETATM   22  C13 UNK     1      14.073  12.730  36.407  1.00  0.00     0.089 A 
HETATM   23  C18 UNK     1      15.751  14.394  36.828  1.00  0.00     0.038 A 
HETATM   24  O1  UNK     1      13.659  11.514  35.827  1.00  0.00    -0.274 OA
HETATM   25  C19 UNK     1      13.135  13.448  37.145  1.00  0.00     0.040 A 
HETATM   26  C17 UNK     1      14.524  10.727  35.073  1.00  0.00     0.304 A 
HETATM   27  O4  UNK     1      14.154   9.670  34.573  1.00  0.00    -0.259 OA
HETATM   28  C22 UNK     1      13.517  14.654  37.730  1.00  0.00     0.026 A 
HETATM   29  C21 UNK     1      14.821  15.126  37.571  1.00  0.00     0.035 A 
HETATM   30 Cl1  UNK     1      15.287  16.616  38.298  1.00  0.00    -0.084 Cl
ENDBRANCH  16  19
ENDBRANCH   7  15
BRANCH  13  31
HETATM   31  O2  UNK     1      18.669   2.064  28.943  1.00  0.00    -0.356 OA
HETATM   32  C23 UNK     1      19.402   0.919  29.373  1.00  0.00     0.210 C 
ENDBRANCH  13  31
TORSDOF 3
ENDMDL
MODEL 3
REMARK VINA RESULT:      -9.2     18.394     21.401
REMARK  3 active torsions:
REMARK  status: ('A' for Active; 'I' for Inactive)
REMARK    1  A    between atoms: C16_24  and  O2_4 
REMARK       I    between atoms: C11_19  and  N1_7 
REMARK    2  A    between atoms: C5_13  and  N1_7 
REMARK    3  A    between atoms: C11_19  and  C6_14 
ROOT
HETATM    1  S1  UNK     1      28.484  -9.415  36.178  1.00  0.00    -0.075 SA
HETATM    2  N2  UNK     1      29.634  -4.729  37.797  1.00  0.00    -0.191 NA
HETATM    3  C1  UNK     1      30.543  -7.886  36.310  1.00  0.00     0.011 A 
HETATM    4  C2  UNK     1      30.149  -9.140  35.897  1.00  0.00    -0.006 A 
HETATM    5  C3  UNK     1      31.912  -7.457  36.160  1.00  0.00    -0.023 A 
HETATM    6  C4  UNK     1      29.462  -7.141  36.864  1.00  0.00     0.090 A 
HETATM    7  C5  UNK     1      28.310  -7.862  36.844  1.00  0.00     0.099 A 
HETATM    8  C8  UNK     1      32.826  -7.694  37.183  1.00  0.00     0.015 A 
HETATM    9  C9  UNK     1      32.311  -6.811  34.994  1.00  0.00     0.015 A 
HETATM   10  C10 UNK     1      30.950 -10.220  35.273  1.00  0.00     0.057 C 
HETATM   11  C14 UNK     1      34.150  -7.280  37.039  1.00  0.00     0.037 A 
HETATM   12  C15 UNK     1      33.635  -6.397  34.849  1.00  0.00     0.037 A 
HETATM   13  C16 UNK     1      34.555  -6.632  35.871  1.00  0.00     0.068 A 
HETATM   14  C20 UNK     1      29.557  -5.809  37.379  1.00  0.00     0.103 C 
ENDROOT
BRANCH   7  15
HETATM   15  N1  UNK     1      27.024  -7.532  37.280  1.00  0.00    -0.316 N 
HETATM   16  C11 UNK     1      26.472  -7.847  38.514  1.00  0.00     0.262 C 
HETATM   17  O3  UNK     1      26.984  -8.461  39.449  1.00  0.00    -0.267 OA
HETATM   18  H1  UNK     1      26.564  -6.828  36.707  1.00  0.00     0.170 HD
BRANCH  16  19
HETATM   19  C6  UNK     1      25.098  -7.347  38.644  1.00  0.00     0.108 A 
HETATM   20  C12 UNK     1      24.126  -8.264  38.574  1.00  0.00     0.037 A 
HETATM   21  C7  UNK     1      22.732  -7.866  38.690  1.00  0.00     0.001 A 
HETATM   22  C13 UNK     1      22.429  -6.521  38.875  1.00  0.00     0.089 A 
HETATM   23  C18 UNK     1      21.685  -8.789  38.623  1.00  0.00     0.038 A 
HETATM   24  O1  UNK     1      23.458  -5.560  38.948  1.00  0.00    -0.274 OA
HETATM   25  C19 UNK     1      21.116  -6.073  38.994  1.00  0.00     0.040 A 
HETATM   26  C17 UNK     1      24.800  -5.911  38.840  1.00  0.00     0.304 A 
HETATM   27  O4  UNK     1      25.688  -5.067  38.904  1.00  0.00    -0.259 OA
HETATM   28  C22 UNK     1      20.078  -7.000  38.926  1.00  0.00     0.026 A 
HETATM   29  C21 UNK     1      20.361  -8.355  38.741  1.00  0.00     0.035 A 
HETATM   30 Cl1  UNK     1      19.075  -9.496  38.656  1.00  0.00    -0.084 Cl
ENDBRANCH  16  19
ENDBRANCH   7  15
BRANCH  13  31
HETATM   31  O2  UNK     1      35.847  -6.228  35.730  1.00  0.00    -0.356 OA
HETATM   32  C23 UNK     1      36.674  -6.994  34.856  1.00  0.00     0.210 C 
ENDBRANCH  13  31
TORSDOF 3
ENDMDL
MODEL 4
REMARK VINA RESULT:      -9.1      7.541     11.425
REMARK  3 active torsions:
REMARK  status: ('A' for Active; 'I' for Inactive)
REMARK    1  A    between atoms: C16_24  and  O2_4 
REMARK       I    between atoms: C11_19  and  N1_7 
REMARK    2  A    between atoms: C5_13  and  N1_7 
REMARK    3  A    between atoms: C11_19  and  C6_14 
ROOT
HETATM    1  S1  UNK     1      18.041  -0.275  36.263  1.00  0.00    -0.075 SA
HETATM    2  N2  UNK     1      21.126  -2.777  33.081  1.00  0.00    -0.191 NA
HETATM    3  C1  UNK     1      19.328  -2.497  36.194  1.00  0.00     0.011 A 
HETATM    4  C2  UNK     1      18.488  -1.756  36.996  1.00  0.00    -0.006 A 
HETATM    5  C3  UNK     1      19.819  -3.781  36.631  1.00  0.00    -0.023 A 
HETATM    6  C4  UNK     1      19.607  -1.841  34.961  1.00  0.00     0.090 A 
HETATM    7  C5  UNK     1      18.971  -0.642  34.889  1.00  0.00     0.099 A 
HETATM    8  C8  UNK     1      21.011  -3.858  37.345  1.00  0.00     0.015 A 
HETATM    9  C9  UNK     1      19.098  -4.934  36.336  1.00  0.00     0.015 A 
HETATM   10  C10 UNK     1      17.954  -2.068  38.344  1.00  0.00     0.057 C 
HETATM   11  C14 UNK     1      21.487  -5.099  37.767  1.00  0.00     0.037 A 
HETATM   12  C15 UNK     1      19.574  -6.176  36.759  1.00  0.00     0.037 A 
HETATM   13  C16 UNK     1      20.768  -6.258  37.474  1.00  0.00     0.068 A 
HETATM   14  C20 UNK     1      20.446  -2.358  33.923  1.00  0.00     0.103 C 
ENDROOT
BRANCH   7  15
HETATM   15  N1  UNK     1      18.961   0.324  33.878  1.00  0.00    -0.316 N 
HETATM   16  C11 UNK     1      18.562   0.128  32.564  1.00  0.00     0.262 C 
HETATM   17  O3  UNK     1      18.149  -0.901  32.033  1.00  0.00    -0.267 OA
HETATM   18  H1  UNK     1      19.058   1.277  34.220  1.00  0.00     0.170 HD
BRANCH  16  19
HETATM   19  C6  UNK     1      18.678   1.355  31.767  1.00  0.00     0.108 A 
HETATM   20  C12 UNK     1      18.348   2.495  32.386  1.00  0.00     0.037 A 
HETATM   21  C7  UNK     1      18.429   3.764  31.678  1.00  0.00     0.001 A 
HETATM   22  C13 UNK     1      18.854   3.770  30.354  1.00  0.00     0.089 A 
HETATM   23  C18 UNK     1      18.095   4.978  32.284  1.00  0.00     0.038 A 
HETATM   24  O1  UNK     1      19.200   2.566  29.708  1.00  0.00    -0.274 OA
HETATM   25  C19 UNK     1      18.955   4.950  29.620  1.00  0.00     0.040 A 
HETATM   26  C17 UNK     1      19.132   1.337  30.359  1.00  0.00     0.304 A 
HETATM   27  O4  UNK     1      19.434   0.295  29.788  1.00  0.00    -0.259 OA
HETATM   28  C22 UNK     1      18.619   6.156  30.232  1.00  0.00     0.026 A 
HETATM   29  C21 UNK     1      18.191   6.170  31.561  1.00  0.00     0.035 A 
HETATM   30 Cl1  UNK     1      17.777   7.663  32.312  1.00  0.00    -0.084 Cl
ENDBRANCH  16  19
ENDBRANCH   7  15
BRANCH  13  31
HETATM   31  O2  UNK     1      21.232  -7.469  37.887  1.00  0.00    -0.356 OA
HETATM   32  C23 UNK     1      21.938  -8.255  36.930  1.00  0.00     0.210 C 
ENDBRANCH  13  31
TORSDOF 3
ENDMDL
MODEL 5
REMARK VINA RESULT:      -8.9      4.408     10.875
REMARK  3 active torsions:
REMARK  status: ('A' for Active; 'I' for Inactive)
REMARK    1  A    between atoms: C16_24  and  O2_4 
REMARK       I    between atoms: C11_19  and  N1_7 
REMARK    2  A    between atoms: C5_13  and  N1_7 
REMARK    3  A    between atoms: C11_19  and  C6_14 
ROOT
HETATM    1  S1  UNK     1      19.816   6.952  33.158  1.00  0.00    -0.075 SA
HETATM    2  N2  UNK     1      14.967   6.149  31.837  1.00  0.00    -0.191 NA
HETATM    3  C1  UNK     1      17.535   8.093  33.460  1.00  0.00     0.011 A 
HETATM    4  C2  UNK     1      18.868   8.236  33.776  1.00  0.00    -0.006 A 
HETATM    5  C3  UNK     1      16.567   9.073  33.888  1.00  0.00    -0.023 A 
HETATM    6  C4  UNK     1      17.289   6.913  32.699  1.00  0.00     0.090 A 
HETATM    7  C5  UNK     1      18.439   6.224  32.479  1.00  0.00     0.099 A 
HETATM    8  C8  UNK     1      15.928   8.922  35.115  1.00  0.00     0.015 A 
HETATM    9  C9  UNK     1      16.280  10.163  33.072  1.00  0.00     0.015 A 
HETATM   10  C10 UNK     1      19.544   9.309  34.544  1.00  0.00     0.057 C 
HETATM   11  C14 UNK     1      14.992   9.869  35.530  1.00  0.00     0.037 A 
HETATM   12  C15 UNK     1      15.344  11.111  33.488  1.00  0.00     0.037 A 
HETATM   13  C16 UNK     1      14.700  10.964  34.716  1.00  0.00     0.068 A 
HETATM   14  C20 UNK     1      16.007   6.491  32.223  1.00  0.00     0.103 C 
ENDROOT
BRANCH   7  15
HETATM   15  N1  UNK     1      18.666   5.028  31.791  1.00  0.00    -0.316 N 
HETATM   16  C11 UNK     1      18.244   3.766  32.185  1.00  0.00     0.262 C 
HETATM   17  O3  UNK     1      17.606   3.448  33.186  1.00  0.00    -0.267 OA
HETATM   18  H1  UNK     1      18.981   5.159  30.833  1.00  0.00     0.170 HD
BRANCH  16  19
HETATM   19  C6  UNK     1      18.652   2.730  31.229  1.00  0.00     0.108 A 
HETATM   20  C12 UNK     1      19.072   1.573  31.753  1.00  0.00     0.037 A 
HETATM   21  C7  UNK     1      19.499   0.486  30.886  1.00  0.00     0.001 A 
HETATM   22  C13 UNK     1      19.461   0.670  29.507  1.00  0.00     0.089 A 
HETATM   23  C18 UNK     1      19.945  -0.739  31.390  1.00  0.00     0.038 A 
HETATM   24  O1  UNK     1      19.016   1.891  28.961  1.00  0.00    -0.274 OA
HETATM   25  C19 UNK     1      19.854  -0.331  28.622  1.00  0.00     0.040 A 
HETATM   26  C17 UNK     1      18.603   2.948  29.766  1.00  0.00     0.304 A 
HETATM   27  O4  UNK     1      18.219   4.007  29.281  1.00  0.00    -0.259 OA
HETATM   28  C22 UNK     1      20.298  -1.549  29.133  1.00  0.00     0.026 A 
HETATM   29  C21 UNK     1      20.343  -1.753  30.514  1.00  0.00     0.035 A 
HETATM   30 Cl1  UNK     1      20.894  -3.259  31.140  1.00  0.00    -0.084 Cl
ENDBRANCH  16  19
ENDBRANCH   7  15
BRANCH  13  31
HETATM   31  O2  UNK     1      13.788  11.889  35.121  1.00  0.00    -0.356 OA
HETATM   32  C23 UNK     1      12.659  12.102  34.275  1.00  0.00     0.210 C 
ENDBRANCH  13  31
TORSDOF 3
ENDMDL
MODEL 6
REMARK VINA RESULT:      -8.8     23.347     24.841
REMARK  3 active torsions:
REMARK  status: ('A' for Active; 'I' for Inactive)
REMARK    1  A    between atoms: C16_24  and  O2_4 
REMARK       I    between atoms: C11_19  and  N1_7 
REMARK    2  A    between atoms: C5_13  and  N1_7 
REMARK    3  A    between atoms: C11_19  and  C6_14 
ROOT
HETATM    1  S1  UNK     1      15.268  12.430   7.956  1.00  0.00    -0.075 SA
HETATM    2  N2  UNK     1      17.580   8.294   9.816  1.00  0.00    -0.191 NA
HETATM    3  C1  UNK     1      17.576  11.776   8.875  1.00  0.00     0.011 A 
HETATM    4  C2  UNK     1      16.878  12.847   8.361  1.00  0.00    -0.006 A 
HETATM    5  C3  UNK     1      18.953  11.920   9.279  1.00  0.00    -0.023 A 
HETATM    6  C4  UNK     1      16.777  10.597   8.937  1.00  0.00     0.090 A 
HETATM    7  C5  UNK     1      15.522  10.831   8.471  1.00  0.00     0.099 A 
HETATM    8  C8  UNK     1      19.971  11.689   8.358  1.00  0.00     0.015 A 
HETATM    9  C9  UNK     1      19.254  12.290  10.586  1.00  0.00     0.015 A 
HETATM   10  C10 UNK     1      17.328  14.240   8.129  1.00  0.00     0.057 C 
HETATM   11  C14 UNK     1      21.302  11.827   8.748  1.00  0.00     0.037 A 
HETATM   12  C15 UNK     1      20.587  12.430  10.976  1.00  0.00     0.037 A 
HETATM   13  C16 UNK     1      21.611  12.199  10.057  1.00  0.00     0.068 A 
HETATM   14  C20 UNK     1      17.220   9.326   9.423  1.00  0.00     0.103 C 
ENDROOT
BRANCH   7  15
HETATM   15  N1  UNK     1      14.424   9.975   8.349  1.00  0.00    -0.316 N 
HETATM   16  C11 UNK     1      13.712   9.403   9.393  1.00  0.00     0.262 C 
HETATM   17  O3  UNK     1      13.893   9.526  10.603  1.00  0.00    -0.267 OA
HETATM   18  H1  UNK     1      14.015   9.963   7.417  1.00  0.00     0.170 HD
BRANCH  16  19
HETATM   19  C6  UNK     1      12.615   8.556   8.910  1.00  0.00     0.108 A 
HETATM   20  C12 UNK     1      11.404   8.807   9.420  1.00  0.00     0.037 A 
HETATM   21  C7  UNK     1      10.254   8.019   9.003  1.00  0.00     0.001 A 
HETATM   22  C13 UNK     1      10.437   7.005   8.068  1.00  0.00     0.089 A 
HETATM   23  C18 UNK     1       8.972   8.246   9.508  1.00  0.00     0.038 A 
HETATM   24  O1  UNK     1      11.715   6.746   7.534  1.00  0.00    -0.274 OA
HETATM   25  C19 UNK     1       9.379   6.214   7.626  1.00  0.00     0.040 A 
HETATM   26  C17 UNK     1      12.833   7.482   7.915  1.00  0.00     0.304 A 
HETATM   27  O4  UNK     1      13.942   7.248   7.446  1.00  0.00    -0.259 OA
HETATM   28  C22 UNK     1       8.103   6.447   8.136  1.00  0.00     0.026 A 
HETATM   29  C21 UNK     1       7.900   7.461   9.074  1.00  0.00     0.035 A 
HETATM   30 Cl1  UNK     1       6.322   7.744   9.702  1.00  0.00    -0.084 Cl
ENDBRANCH  16  19
ENDBRANCH   7  15
BRANCH  13  31
HETATM   31  O2  UNK     1      22.910  12.335  10.438  1.00  0.00    -0.356 OA
HETATM   32  C23 UNK     1      23.467  13.647  10.387  1.00  0.00     0.210 C 
ENDBRANCH  13  31
TORSDOF 3
ENDMDL
MODEL 7
REMARK VINA RESULT:      -8.8     22.630     24.588
REMARK  3 active torsions:
REMARK  status: ('A' for Active; 'I' for Inactive)
REMARK    1  A    between atoms: C16_24  and  O2_4 
REMARK       I    between atoms: C11_19  and  N1_7 
REMARK    2  A    between atoms: C5_13  and  N1_7 
REMARK    3  A    between atoms: C11_19  and  C6_14 
ROOT
HETATM    1  S1  UNK     1      17.186   7.476  10.393  1.00  0.00    -0.075 SA
HETATM    2  N2  UNK     1      15.060  11.221   7.679  1.00  0.00    -0.191 NA
HETATM    3  C1  UNK     1      14.962   7.952   9.199  1.00  0.00     0.011 A 
HETATM    4  C2  UNK     1      15.609   6.988   9.941  1.00  0.00    -0.006 A 
HETATM    5  C3  UNK     1      13.619   7.734   8.720  1.00  0.00    -0.023 A 
HETATM    6  C4  UNK     1      15.771   9.107   9.000  1.00  0.00     0.090 A 
HETATM    7  C5  UNK     1      16.985   8.963   9.596  1.00  0.00     0.099 A 
HETATM    8  C8  UNK     1      13.416   7.144   7.477  1.00  0.00     0.015 A 
HETATM    9  C9  UNK     1      12.535   8.114   9.506  1.00  0.00     0.015 A 
HETATM   10  C10 UNK     1      15.131   5.652  10.372  1.00  0.00     0.057 C 
HETATM   11  C14 UNK     1      12.118   6.933   7.013  1.00  0.00     0.037 A 
HETATM   12  C15 UNK     1      11.236   7.903   9.042  1.00  0.00     0.037 A 
HETATM   13  C16 UNK     1      11.027   7.312   7.796  1.00  0.00     0.068 A 
HETATM   14  C20 UNK     1      15.378  10.274   8.271  1.00  0.00     0.103 C 
ENDROOT
BRANCH   7  15
HETATM   15  N1  UNK     1      18.078   9.833   9.654  1.00  0.00    -0.316 N 
HETATM   16  C11 UNK     1      18.101  11.077  10.269  1.00  0.00     0.262 C 
HETATM   17  O3  UNK     1      17.196  11.654  10.868  1.00  0.00    -0.267 OA
HETATM   18  H1  UNK     1      18.962   9.398   9.403  1.00  0.00     0.170 HD
BRANCH  16  19
HETATM   19  C6  UNK     1      19.412  11.725  10.143  1.00  0.00     0.108 A 
HETATM   20  C12 UNK     1      20.161  11.766  11.251  1.00  0.00     0.037 A 
HETATM   21  C7  UNK     1      21.476  12.389  11.226  1.00  0.00     0.001 A 
HETATM   22  C13 UNK     1      21.938  12.938  10.034  1.00  0.00     0.089 A 
HETATM   23  C18 UNK     1      22.291  12.454  12.358  1.00  0.00     0.038 A 
HETATM   24  O1  UNK     1      21.144  12.891   8.870  1.00  0.00    -0.274 OA
HETATM   25  C19 UNK     1      23.187  13.548   9.941  1.00  0.00     0.040 A 
HETATM   26  C17 UNK     1      19.883  12.303   8.864  1.00  0.00     0.304 A 
HETATM   27  O4  UNK     1      19.199  12.268   7.846  1.00  0.00    -0.259 OA
HETATM   28  C22 UNK     1      23.993  13.609  11.076  1.00  0.00     0.026 A 
HETATM   29  C21 UNK     1      23.547  13.063  12.281  1.00  0.00     0.035 A 
HETATM   30 Cl1  UNK     1      24.548  13.143  13.680  1.00  0.00    -0.084 Cl
ENDBRANCH  16  19
ENDBRANCH   7  15
BRANCH  13  31
HETATM   31  O2  UNK     1       9.760   7.106   7.345  1.00  0.00    -0.356 OA
HETATM   32  C23 UNK     1       9.601   6.220   6.238  1.00  0.00     0.210 C 
ENDBRANCH  13  31
TORSDOF 3
ENDMDL
MODEL 8
REMARK VINA RESULT:      -8.7      3.996     10.240
REMARK  3 active torsions:
REMARK  status: ('A' for Active; 'I' for Inactive)
REMARK    1  A    between atoms: C16_24  and  O2_4 
REMARK       I    between atoms: C11_19  and  N1_7 
REMARK    2  A    between atoms: C5_13  and  N1_7 
REMARK    3  A    between atoms: C11_19  and  C6_14 
ROOT
HETATM    1  S1  UNK     1      18.270   8.720  33.690  1.00  0.00    -0.075 SA
HETATM    2  N2  UNK     1      13.561   6.895  33.053  1.00  0.00    -0.191 NA
HETATM    3  C1  UNK     1      15.854   9.591  33.745  1.00  0.00     0.011 A 
HETATM    4  C2  UNK     1      17.159  10.004  33.902  1.00  0.00    -0.006 A 
HETATM    5  C3  UNK     1      14.764  10.526  33.884  1.00  0.00    -0.023 A 
HETATM    6  C4  UNK     1      15.765   8.201  33.446  1.00  0.00     0.090 A 
HETATM    7  C5  UNK     1      16.998   7.632  33.392  1.00  0.00     0.099 A 
HETATM    8  C8  UNK     1      14.179  10.725  35.130  1.00  0.00     0.015 A 
HETATM    9  C9  UNK     1      14.305  11.223  32.770  1.00  0.00     0.015 A 
HETATM   10  C10 UNK     1      17.688  11.353  34.215  1.00  0.00     0.057 C 
HETATM   11  C14 UNK     1      13.125  11.627  35.265  1.00  0.00     0.037 A 
HETATM   12  C15 UNK     1      13.251  12.127  32.905  1.00  0.00     0.037 A 
HETATM   13  C16 UNK     1      12.661  12.329  34.152  1.00  0.00     0.068 A 
HETATM   14  C20 UNK     1      14.548   7.480  33.229  1.00  0.00     0.103 C 
ENDROOT
BRANCH   7  15
HETATM   15  N1  UNK     1      17.381   6.313  33.134  1.00  0.00    -0.316 N 
HETATM   16  C11 UNK     1      17.914   5.832  31.946  1.00  0.00     0.262 C 
HETATM   17  O3  UNK     1      18.151   6.447  30.908  1.00  0.00    -0.267 OA
HETATM   18  H1  UNK     1      17.457   5.737  33.969  1.00  0.00     0.170 HD
BRANCH  16  19
HETATM   19  C6  UNK     1      18.204   4.396  32.017  1.00  0.00     0.108 A 
HETATM   20  C12 UNK     1      18.448   3.782  30.853  1.00  0.00     0.037 A 
HETATM   21  C7  UNK     1      18.745   2.359  30.822  1.00  0.00     0.001 A 
HETATM   22  C13 UNK     1      18.772   1.650  32.019  1.00  0.00     0.089 A 
HETATM   23  C18 UNK     1      19.006   1.677  29.630  1.00  0.00     0.038 A 
HETATM   24  O1  UNK     1      18.514   2.302  33.242  1.00  0.00    -0.274 OA
HETATM   25  C19 UNK     1      19.050   0.285  32.059  1.00  0.00     0.040 A 
HETATM   26  C17 UNK     1      18.227   3.662  33.303  1.00  0.00     0.304 A 
HETATM   27  O4  UNK     1      18.003   4.220  34.372  1.00  0.00    -0.259 OA
HETATM   28  C22 UNK     1      19.308  -0.386  30.865  1.00  0.00     0.026 A 
HETATM   29  C21 UNK     1      19.287   0.309  29.654  1.00  0.00     0.035 A 
HETATM   30 Cl1  UNK     1      19.605  -0.527  28.182  1.00  0.00    -0.084 Cl
ENDBRANCH  16  19
ENDBRANCH   7  15
BRANCH  13  31
HETATM   31  O2  UNK     1      11.633  13.212  34.283  1.00  0.00    -0.356 OA
HETATM   32  C23 UNK     1      11.059  13.352  35.581  1.00  0.00     0.210 C 
ENDBRANCH  13  31
TORSDOF 3
ENDMDL
MODEL 9
REMARK VINA RESULT:      -8.7     19.698     21.768
REMARK  3 active torsions:
REMARK  status: ('A' for Active; 'I' for Inactive)
REMARK    1  A    between atoms: C16_24  and  O2_4 
REMARK       I    between atoms: C11_19  and  N1_7 
REMARK    2  A    between atoms: C5_13  and  N1_7 
REMARK    3  A    between atoms: C11_19  and  C6_14 
ROOT
HETATM    1  S1  UNK     1      27.828  -5.603  38.499  1.00  0.00    -0.075 SA
HETATM    2  N2  UNK     1      29.819  -8.972  35.244  1.00  0.00    -0.191 NA
HETATM    3  C1  UNK     1      30.113  -6.138  37.455  1.00  0.00     0.011 A 
HETATM    4  C2  UNK     1      29.497  -5.265  38.325  1.00  0.00    -0.006 A 
HETATM    5  C3  UNK     1      31.523  -6.023  37.171  1.00  0.00    -0.023 A 
HETATM    6  C4  UNK     1      29.203  -7.097  36.925  1.00  0.00     0.090 A 
HETATM    7  C5  UNK     1      27.949  -6.906  37.415  1.00  0.00     0.099 A 
HETATM    8  C8  UNK     1      31.952  -5.223  36.116  1.00  0.00     0.015 A 
HETATM    9  C9  UNK     1      32.444  -6.710  37.956  1.00  0.00     0.015 A 
HETATM   10  C10 UNK     1      30.073  -4.131  39.086  1.00  0.00     0.057 C 
HETATM   11  C14 UNK     1      33.314  -5.112  35.841  1.00  0.00     0.037 A 
HETATM   12  C15 UNK     1      33.807  -6.597  37.682  1.00  0.00     0.037 A 
HETATM   13  C16 UNK     1      34.243  -5.798  36.625  1.00  0.00     0.068 A 
HETATM   14  C20 UNK     1      29.543  -8.133  35.997  1.00  0.00     0.103 C 
ENDROOT
BRANCH   7  15
HETATM   15  N1  UNK     1      26.761  -7.601  37.171  1.00  0.00    -0.316 N 
HETATM   16  C11 UNK     1      26.372  -8.791  37.770  1.00  0.00     0.262 C 
HETATM   17  O3  UNK     1      26.971  -9.458  38.611  1.00  0.00    -0.267 OA
HETATM   18  H1  UNK     1      26.063  -7.056  36.671  1.00  0.00     0.170 HD
BRANCH  16  19
HETATM   19  C6  UNK     1      25.064  -9.246  37.283  1.00  0.00     0.108 A 
HETATM   20  C12 UNK     1      24.013  -8.486  37.612  1.00  0.00     0.037 A 
HETATM   21  C7  UNK     1      22.675  -8.856  37.177  1.00  0.00     0.001 A 
HETATM   22  C13 UNK     1      22.510 -10.009  36.416  1.00  0.00     0.089 A 
HETATM   23  C18 UNK     1      21.549  -8.093  37.497  1.00  0.00     0.038 A 
HETATM   24  O1  UNK     1      23.621 -10.805  36.073  1.00  0.00    -0.274 OA
HETATM   25  C19 UNK     1      21.256 -10.420  35.967  1.00  0.00     0.040 A 
HETATM   26  C17 UNK     1      24.912 -10.477  36.475  1.00  0.00     0.304 A 
HETATM   27  O4  UNK     1      25.873 -11.176  36.173  1.00  0.00    -0.259 OA
HETATM   28  C22 UNK     1      20.139  -9.653  36.291  1.00  0.00     0.026 A 
HETATM   29  C21 UNK     1      20.285  -8.492  37.053  1.00  0.00     0.035 A 
HETATM   30 Cl1  UNK     1      18.901  -7.549  37.451  1.00  0.00    -0.084 Cl
ENDBRANCH  16  19
ENDBRANCH   7  15
BRANCH  13  31
HETATM   31  O2  UNK     1      35.573  -5.689  36.358  1.00  0.00    -0.356 OA
HETATM   32  C23 UNK     1      36.096  -6.509  35.315  1.00  0.00     0.210 C 
ENDBRANCH  13  31
TORSDOF 3
ENDMDL
MODEL 10
REMARK VINA RESULT:      -8.6     18.668     21.362
REMARK  3 active torsions:
REMARK  status: ('A' for Active; 'I' for Inactive)
REMARK    1  A    between atoms: C16_24  and  O2_4 
REMARK       I    between atoms: C11_19  and  N1_7 
REMARK    2  A    between atoms: C5_13  and  N1_7 
REMARK    3  A    between atoms: C11_19  and  C6_14 
ROOT
HETATM    1  S1  UNK     1      30.288  -5.780  38.436  1.00  0.00    -0.075 SA
HETATM    2  N2  UNK     1      28.517  -8.219  34.335  1.00  0.00    -0.191 NA
HETATM    3  C1  UNK     1      31.216  -6.838  36.287  1.00  0.00     0.011 A 
HETATM    4  C2  UNK     1      31.613  -6.172  37.426  1.00  0.00    -0.006 A 
HETATM    5  C3  UNK     1      32.185  -7.258  35.305  1.00  0.00    -0.023 A 
HETATM    6  C4  UNK     1      29.805  -7.030  36.244  1.00  0.00     0.090 A 
HETATM    7  C5  UNK     1      29.205  -6.503  37.344  1.00  0.00     0.099 A 
HETATM    8  C8  UNK     1      32.524  -6.403  34.260  1.00  0.00     0.015 A 
HETATM    9  C9  UNK     1      32.774  -8.514  35.408  1.00  0.00     0.015 A 
HETATM   10  C10 UNK     1      32.974  -5.774  37.859  1.00  0.00     0.057 C 
HETATM   11  C14 UNK     1      33.460  -6.809  33.309  1.00  0.00     0.037 A 
HETATM   12  C15 UNK     1      33.712  -8.920  34.458  1.00  0.00     0.037 A 
HETATM   13  C16 UNK     1      34.055  -8.067  33.408  1.00  0.00     0.068 A 
HETATM   14  C20 UNK     1      29.094  -7.687  35.190  1.00  0.00     0.103 C 
ENDROOT
BRANCH   7  15
HETATM   15  N1  UNK     1      27.857  -6.461  37.713  1.00  0.00    -0.316 N 
HETATM   16  C11 UNK     1      27.216  -7.344  38.570  1.00  0.00     0.262 C 
HETATM   17  O3  UNK     1      27.685  -8.314  39.163  1.00  0.00    -0.267 OA
HETATM   18  H1  UNK     1      27.396  -5.583  37.485  1.00  0.00     0.170 HD
BRANCH  16  19
HETATM   19  C6  UNK     1      25.797  -7.010  38.740  1.00  0.00     0.108 A 
HETATM   20  C12 UNK     1      24.939  -8.036  38.711  1.00  0.00     0.037 A 
HETATM   21  C7  UNK     1      23.512  -7.805  38.869  1.00  0.00     0.001 A 
HETATM   22  C13 UNK     1      23.058  -6.502  39.052  1.00  0.00     0.089 A 
HETATM   23  C18 UNK     1      22.581  -8.846  38.845  1.00  0.00     0.038 A 
HETATM   24  O1  UNK     1      23.967  -5.426  39.083  1.00  0.00    -0.274 OA
HETATM   25  C19 UNK     1      21.704  -6.212  39.211  1.00  0.00     0.040 A 
HETATM   26  C17 UNK     1      25.337  -5.616  38.933  1.00  0.00     0.304 A 
HETATM   27  O4  UNK     1      26.120  -4.673  38.961  1.00  0.00    -0.259 OA
HETATM   28  C22 UNK     1      20.783  -7.257  39.185  1.00  0.00     0.026 A 
HETATM   29  C21 UNK     1      21.220  -8.570  39.003  1.00  0.00     0.035 A 
HETATM   30 Cl1  UNK     1      20.076  -9.857  38.970  1.00  0.00    -0.084 Cl
ENDBRANCH  16  19
ENDBRANCH   7  15
BRANCH  13  31
HETATM   31  O2  UNK     1      34.970  -8.463  32.482  1.00  0.00    -0.356 OA
HETATM   32  C23 UNK     1      36.297  -7.963  32.625  1.00  0.00     0.210 C 
ENDBRANCH  13  31
TORSDOF 3
ENDMDL
