MODEL 1
REMARK VINA RESULT:     -10.7      0.000      0.000
REMARK  5 active torsions:
REMARK  status: ('A' for Active; 'I' for Inactive)
REMARK    1  A    between atoms: C5_12  and  N1_5 
REMARK    2  A    between atoms: C6_13  and  N2_6 
REMARK    3  A    between atoms: C17_24  and  N3_7 
REMARK       I    between atoms: C9_16  and  N3_7 
REMARK    4  A    between atoms: C5_12  and  C7_14 
REMARK    5  A    between atoms: C6_13  and  C9_16 
ROOT
HETATM    1  N1  UNK     1      19.274  -3.131  36.128  1.00  0.00     0.096 N 
HETATM    2  N2  UNK     1      18.274  -0.535  35.339  1.00  0.00     0.100 N 
HETATM    3  C1  UNK     1      20.039  -2.261  35.227  1.00  0.00     0.303 C 
HETATM    4  C2  UNK     1      18.441  -2.327  37.032  1.00  0.00     0.303 C 
HETATM    5  C3  UNK     1      19.105  -1.340  34.434  1.00  0.00     0.303 C 
HETATM    6  C4  UNK     1      17.509  -1.404  36.240  1.00  0.00     0.303 C 
ENDROOT
BRANCH   1   7
HETATM    7  C5  UNK     1      20.166  -4.007  36.884  1.00  0.00     0.312 C 
BRANCH   7   8
HETATM    8  C7  UNK     1      20.181  -5.395  36.346  1.00  0.00    -0.011 A 
HETATM    9  C10 UNK     1      20.270  -5.627  35.029  1.00  0.00     0.092 A 
HETATM   10  C13 UNK     1      20.289  -6.982  34.452  1.00  0.00     0.288 A 
HETATM   11  O1  UNK     1      20.207  -8.040  35.343  1.00  0.00    -0.275 OA
HETATM   12  O3  UNK     1      20.372  -7.156  33.241  1.00  0.00    -0.260 OA
HETATM   13  C11 UNK     1      20.111  -7.828  36.733  1.00  0.00     0.090 A 
HETATM   14  C8  UNK     1      20.095  -6.538  37.266  1.00  0.00     0.006 A 
HETATM   15  C14 UNK     1      20.035  -8.967  37.535  1.00  0.00     0.045 A 
HETATM   16  C12 UNK     1      19.998  -6.411  38.658  1.00  0.00     0.015 A 
HETATM   17  C16 UNK     1      19.919  -7.545  39.475  1.00  0.00     0.007 A 
HETATM   18  C15 UNK     1      19.938  -8.821  38.915  1.00  0.00    -0.059 A 
HETATM   19  C19 UNK     1      19.855 -10.023  39.792  1.00  0.00     0.048 C 
ENDBRANCH   7   8
ENDBRANCH   1   7
BRANCH   2  20
HETATM   20  C6  UNK     1      17.384   0.343  34.583  1.00  0.00     0.375 C 
BRANCH  20  21
HETATM   21  C9  UNK     1      18.132   1.606  34.192  1.00  0.00     0.250 C 
HETATM   22  O2  UNK     1      18.974   2.127  34.917  1.00  0.00    -0.271 OA
HETATM   23  N3  UNK     1      17.719   2.040  32.934  1.00  0.00    -0.325 N 
HETATM   24  H15 UNK     1      17.003   1.488  32.470  1.00  0.00     0.169 HD
BRANCH  23  25
HETATM   25  C17 UNK     1      18.173   3.175  32.220  1.00  0.00     0.041 A 
HETATM   26  C18 UNK     1      18.599   3.062  30.897  1.00  0.00    -0.032 A 
HETATM   27  C21 UNK     1      19.045   4.193  30.210  1.00  0.00     0.051 A 
HETATM   28  C22 UNK     1      18.591   1.746  30.191  1.00  0.00     0.050 C 
HETATM   29  C24 UNK     1      19.065   5.433  30.847  1.00  0.00     0.117 A 
HETATM   30  C23 UNK     1      18.639   5.545  32.170  1.00  0.00     0.044 A 
HETATM   31  F1  UNK     1      19.494   6.517  30.188  1.00  0.00    -0.206 F 
HETATM   32  C20 UNK     1      18.193   4.415  32.858  1.00  0.00     0.033 A 
ENDBRANCH  23  25
ENDBRANCH  20  21
ENDBRANCH   2  20
TORSDOF 5
ENDMDL
MODEL 2
REMARK VINA RESULT:     -10.1      2.088      2.904
REMARK  5 active torsions:
REMARK  status: ('A' for Active; 'I' for Inactive)
REMARK    1  A    between atoms: C5_12  and  N1_5 
REMARK    2  A    between atoms: C6_13  and  N2_6 
REMARK    3  A    between atoms: C17_24  and  N3_7 
REMARK       I    between atoms: C9_16  and  N3_7 
REMARK    4  A    between atoms: C5_12  and  C7_14 
REMARK    5  A    between atoms: C6_13  and  C9_16 
ROOT
HETATM    1  N1  UNK     1      19.511  -3.657  36.470  1.00  0.00     0.096 N 
HETATM    2  N2  UNK     1      18.837  -0.880  36.032  1.00  0.00     0.100 N 
HETATM    3  C1  UNK     1      20.542  -2.665  36.145  1.00  0.00     0.303 C 
HETATM    4  C2  UNK     1      18.395  -3.022  37.182  1.00  0.00     0.303 C 
HETATM    5  C3  UNK     1      19.952  -1.516  35.319  1.00  0.00     0.303 C 
HETATM    6  C4  UNK     1      17.806  -1.872  36.357  1.00  0.00     0.303 C 
ENDROOT
BRANCH   1   7
HETATM    7  C5  UNK     1      20.074  -4.751  37.259  1.00  0.00     0.312 C 
BRANCH   7   8
HETATM    8  C7  UNK     1      20.143  -6.024  36.489  1.00  0.00    -0.011 A 
HETATM    9  C10 UNK     1      20.380  -6.024  35.170  1.00  0.00     0.092 A 
HETATM   10  C13 UNK     1      20.456  -7.257  34.368  1.00  0.00     0.288 A 
HETATM   11  O1  UNK     1      20.267  -8.452  35.044  1.00  0.00    -0.275 OA
HETATM   12  O3  UNK     1      20.675  -7.218  33.162  1.00  0.00    -0.260 OA
HETATM   13  C11 UNK     1      20.015  -8.484  36.430  1.00  0.00     0.090 A 
HETATM   14  C8  UNK     1      19.946  -7.307  37.177  1.00  0.00     0.006 A 
HETATM   15  C14 UNK     1      19.841  -9.744  37.005  1.00  0.00     0.045 A 
HETATM   16  C12 UNK     1      19.692  -7.423  38.551  1.00  0.00     0.015 A 
HETATM   17  C16 UNK     1      19.515  -8.680  39.141  1.00  0.00     0.007 A 
HETATM   18  C15 UNK     1      19.590  -9.838  38.369  1.00  0.00    -0.059 A 
HETATM   19  C19 UNK     1      19.401 -11.173  39.006  1.00  0.00     0.048 C 
ENDBRANCH   7   8
ENDBRANCH   1   7
BRANCH   2  20
HETATM   20  C6  UNK     1      18.274   0.215  35.244  1.00  0.00     0.375 C 
BRANCH  20  21
HETATM   21  C9  UNK     1      18.103  -0.235  33.803  1.00  0.00     0.250 C 
HETATM   22  O2  UNK     1      17.138  -0.893  33.426  1.00  0.00    -0.271 OA
HETATM   23  N3  UNK     1      19.173   0.211  33.029  1.00  0.00    -0.325 N 
HETATM   24  H15 UNK     1      19.894   0.745  33.507  1.00  0.00     0.169 HD
BRANCH  23  25
HETATM   25  C17 UNK     1      19.384   0.001  31.646  1.00  0.00     0.041 A 
HETATM   26  C18 UNK     1      19.069   0.991  30.717  1.00  0.00    -0.032 A 
HETATM   27  C21 UNK     1      19.284   0.764  29.356  1.00  0.00     0.051 A 
HETATM   28  C22 UNK     1      18.500   2.304  31.148  1.00  0.00     0.050 C 
HETATM   29  C24 UNK     1      19.812  -0.453  28.927  1.00  0.00     0.117 A 
HETATM   30  C23 UNK     1      20.126  -1.443  29.857  1.00  0.00     0.044 A 
HETATM   31  F1  UNK     1      20.017  -0.670  27.622  1.00  0.00    -0.206 F 
HETATM   32  C20 UNK     1      19.912  -1.217  31.217  1.00  0.00     0.033 A 
ENDBRANCH  23  25
ENDBRANCH  20  21
ENDBRANCH   2  20
TORSDOF 5
ENDMDL
MODEL 3
REMARK VINA RESULT:     -10.1      6.510     12.469
REMARK  5 active torsions:
REMARK  status: ('A' for Active; 'I' for Inactive)
REMARK    1  A    between atoms: C5_12  and  N1_5 
REMARK    2  A    between atoms: C6_13  and  N2_6 
REMARK    3  A    between atoms: C17_24  and  N3_7 
REMARK       I    between atoms: C9_16  and  N3_7 
REMARK    4  A    between atoms: C5_12  and  C7_14 
REMARK    5  A    between atoms: C6_13  and  C9_16 
ROOT
HETATM    1  N1  UNK     1      18.145   5.759  32.913  1.00  0.00     0.096 N 
HETATM    2  N2  UNK     1      18.847   4.165  30.606  1.00  0.00     0.100 N 
HETATM    3  C1  UNK     1      18.133   4.293  32.968  1.00  0.00     0.303 C 
HETATM    4  C2  UNK     1      19.135   6.227  31.935  1.00  0.00     0.303 C 
HETATM    5  C3  UNK     1      17.855   3.698  31.582  1.00  0.00     0.303 C 
HETATM    6  C4  UNK     1      18.859   5.631  30.550  1.00  0.00     0.303 C 
ENDROOT
BRANCH   1   7
HETATM    7  C5  UNK     1      18.412   6.325  34.234  1.00  0.00     0.312 C 
BRANCH   7   8
HETATM    8  C7  UNK     1      18.391   7.814  34.223  1.00  0.00    -0.011 A 
HETATM    9  C10 UNK     1      19.516   8.525  34.383  1.00  0.00     0.092 A 
HETATM   10  C13 UNK     1      19.544   9.997  34.380  1.00  0.00     0.288 A 
HETATM   11  O1  UNK     1      18.330  10.642  34.200  1.00  0.00    -0.275 OA
HETATM   12  O3  UNK     1      20.593  10.613  34.529  1.00  0.00    -0.260 OA
HETATM   13  C11 UNK     1      17.131   9.923  34.030  1.00  0.00     0.090 A 
HETATM   14  C8  UNK     1      17.120   8.527  34.035  1.00  0.00     0.006 A 
HETATM   15  C14 UNK     1      15.969  10.677  33.857  1.00  0.00     0.045 A 
HETATM   16  C12 UNK     1      15.886   7.886  33.859  1.00  0.00     0.015 A 
HETATM   17  C16 UNK     1      14.713   8.629  33.686  1.00  0.00     0.007 A 
HETATM   18  C15 UNK     1      14.754  10.022  33.684  1.00  0.00    -0.059 A 
HETATM   19  C19 UNK     1      13.500  10.806  33.498  1.00  0.00     0.048 C 
ENDBRANCH   7   8
ENDBRANCH   1   7
BRANCH   2  20
HETATM   20  C6  UNK     1      18.582   3.598  29.285  1.00  0.00     0.375 C 
BRANCH  20  21
HETATM   21  C9  UNK     1      18.501   2.084  29.392  1.00  0.00     0.250 C 
HETATM   22  O2  UNK     1      17.520   1.446  29.023  1.00  0.00    -0.271 OA
HETATM   23  N3  UNK     1      19.675   1.578  29.946  1.00  0.00    -0.325 N 
HETATM   24  H15 UNK     1      20.392   2.253  30.200  1.00  0.00     0.169 HD
BRANCH  23  25
HETATM   25  C17 UNK     1      19.991   0.224  30.211  1.00  0.00     0.041 A 
HETATM   26  C18 UNK     1      19.626  -0.372  31.418  1.00  0.00    -0.032 A 
HETATM   27  C21 UNK     1      19.948  -1.709  31.661  1.00  0.00     0.051 A 
HETATM   28  C22 UNK     1      18.893   0.396  32.468  1.00  0.00     0.050 C 
HETATM   29  C24 UNK     1      20.634  -2.446  30.697  1.00  0.00     0.117 A 
HETATM   30  C23 UNK     1      20.999  -1.850  29.490  1.00  0.00     0.044 A 
HETATM   31  F1  UNK     1      20.943  -3.728  30.931  1.00  0.00    -0.206 F 
HETATM   32  C20 UNK     1      20.678  -0.515  29.247  1.00  0.00     0.033 A 
ENDBRANCH  23  25
ENDBRANCH  20  21
ENDBRANCH   2  20
TORSDOF 5
ENDMDL
MODEL 4
REMARK VINA RESULT:      -9.9      6.439     12.732
REMARK  5 active torsions:
REMARK  status: ('A' for Active; 'I' for Inactive)
REMARK    1  A    between atoms: C5_12  and  N1_5 
REMARK    2  A    between atoms: C6_13  and  N2_6 
REMARK    3  A    between atoms: C17_24  and  N3_7 
REMARK       I    between atoms: C9_16  and  N3_7 
REMARK    4  A    between atoms: C5_12  and  C7_14 
REMARK    5  A    between atoms: C6_13  and  C9_16 
ROOT
HETATM    1  N1  UNK     1      18.199   6.035  32.170  1.00  0.00     0.096 N 
HETATM    2  N2  UNK     1      18.912   4.065  30.178  1.00  0.00     0.100 N 
HETATM    3  C1  UNK     1      18.062   4.599  32.436  1.00  0.00     0.303 C 
HETATM    4  C2  UNK     1      19.285   6.278  31.212  1.00  0.00     0.303 C 
HETATM    5  C3  UNK     1      17.824   3.823  31.135  1.00  0.00     0.303 C 
HETATM    6  C4  UNK     1      19.049   5.501  29.912  1.00  0.00     0.303 C 
ENDROOT
BRANCH   1   7
HETATM    7  C5  UNK     1      18.427   6.773  33.411  1.00  0.00     0.312 C 
BRANCH   7   8
HETATM    8  C7  UNK     1      17.323   7.728  33.709  1.00  0.00    -0.011 A 
HETATM    9  C10 UNK     1      16.050   7.316  33.777  1.00  0.00     0.092 A 
HETATM   10  C13 UNK     1      14.927   8.223  34.068  1.00  0.00     0.288 A 
HETATM   11  O1  UNK     1      15.241   9.556  34.276  1.00  0.00    -0.275 OA
HETATM   12  O3  UNK     1      13.773   7.809  34.123  1.00  0.00    -0.260 OA
HETATM   13  C11 UNK     1      16.570  10.019  34.211  1.00  0.00     0.090 A 
HETATM   14  C8  UNK     1      17.625   9.148  33.934  1.00  0.00     0.006 A 
HETATM   15  C14 UNK     1      16.769  11.382  34.438  1.00  0.00     0.045 A 
HETATM   16  C12 UNK     1      18.918   9.687  33.886  1.00  0.00     0.015 A 
HETATM   17  C16 UNK     1      19.132  11.051  34.111  1.00  0.00     0.007 A 
HETATM   18  C15 UNK     1      18.059  11.898  34.386  1.00  0.00    -0.059 A 
HETATM   19  C19 UNK     1      18.296  13.350  34.625  1.00  0.00     0.048 C 
ENDBRANCH   7   8
ENDBRANCH   1   7
BRANCH   2  20
HETATM   20  C6  UNK     1      18.685   3.326  28.938  1.00  0.00     0.375 C 
BRANCH  20  21
HETATM   21  C9  UNK     1      18.556   1.844  29.249  1.00  0.00     0.250 C 
HETATM   22  O2  UNK     1      17.528   1.210  29.034  1.00  0.00    -0.271 OA
HETATM   23  N3  UNK     1      19.748   1.360  29.786  1.00  0.00    -0.325 N 
HETATM   24  H15 UNK     1      20.505   2.028  29.901  1.00  0.00     0.169 HD
BRANCH  23  25
HETATM   25  C17 UNK     1      20.031   0.038  30.206  1.00  0.00     0.041 A 
HETATM   26  C18 UNK     1      19.661  -0.402  31.476  1.00  0.00    -0.032 A 
HETATM   27  C21 UNK     1      19.951  -1.710  31.872  1.00  0.00     0.051 A 
HETATM   28  C22 UNK     1      18.956   0.502  32.433  1.00  0.00     0.050 C 
HETATM   29  C24 UNK     1      20.610  -2.573  30.997  1.00  0.00     0.117 A 
HETATM   30  C23 UNK     1      20.980  -2.132  29.728  1.00  0.00     0.044 A 
HETATM   31  F1  UNK     1      20.888  -3.826  31.379  1.00  0.00    -0.206 F 
HETATM   32  C20 UNK     1      20.691  -0.825  29.331  1.00  0.00     0.033 A 
ENDBRANCH  23  25
ENDBRANCH  20  21
ENDBRANCH   2  20
TORSDOF 5
ENDMDL
MODEL 5
REMARK VINA RESULT:      -9.7      2.398      3.300
REMARK  5 active torsions:
REMARK  status: ('A' for Active; 'I' for Inactive)
REMARK    1  A    between atoms: C5_12  and  N1_5 
REMARK    2  A    between atoms: C6_13  and  N2_6 
REMARK    3  A    between atoms: C17_24  and  N3_7 
REMARK       I    between atoms: C9_16  and  N3_7 
REMARK    4  A    between atoms: C5_12  and  C7_14 
REMARK    5  A    between atoms: C6_13  and  C9_16 
ROOT
HETATM    1  N1  UNK     1      19.600  -4.165  36.535  1.00  0.00     0.096 N 
HETATM    2  N2  UNK     1      18.726  -1.568  35.613  1.00  0.00     0.100 N 
HETATM    3  C1  UNK     1      18.238  -3.684  36.794  1.00  0.00     0.303 C 
HETATM    4  C2  UNK     1      20.123  -3.580  35.293  1.00  0.00     0.303 C 
HETATM    5  C3  UNK     1      18.205  -2.152  36.856  1.00  0.00     0.303 C 
HETATM    6  C4  UNK     1      20.087  -2.050  35.354  1.00  0.00     0.303 C 
ENDROOT
BRANCH   1   7
HETATM    7  C5  UNK     1      19.631  -5.625  36.474  1.00  0.00     0.312 C 
BRANCH   7   8
HETATM    8  C7  UNK     1      20.872  -6.188  37.076  1.00  0.00    -0.011 A 
HETATM    9  C10 UNK     1      21.567  -5.506  37.996  1.00  0.00     0.092 A 
HETATM   10  C13 UNK     1      22.798  -6.021  38.618  1.00  0.00     0.288 A 
HETATM   11  O1  UNK     1      23.226  -7.273  38.206  1.00  0.00    -0.275 OA
HETATM   12  O3  UNK     1      23.408  -5.368  39.458  1.00  0.00    -0.260 OA
HETATM   13  C11 UNK     1      22.517  -8.014  37.239  1.00  0.00     0.090 A 
HETATM   14  C8  UNK     1      21.352  -7.513  36.659  1.00  0.00     0.006 A 
HETATM   15  C14 UNK     1      23.041  -9.263  36.901  1.00  0.00     0.045 A 
HETATM   16  C12 UNK     1      20.705  -8.311  35.705  1.00  0.00     0.015 A 
HETATM   17  C16 UNK     1      21.219  -9.565  35.356  1.00  0.00     0.007 A 
HETATM   18  C15 UNK     1      22.385 -10.040  35.953  1.00  0.00    -0.059 A 
HETATM   19  C19 UNK     1      22.926 -11.377  35.575  1.00  0.00     0.048 C 
ENDBRANCH   7   8
ENDBRANCH   1   7
BRANCH   2  20
HETATM   20  C6  UNK     1      18.693  -0.108  35.673  1.00  0.00     0.375 C 
BRANCH  20  21
HETATM   21  C9  UNK     1      18.047   0.435  34.410  1.00  0.00     0.250 C 
HETATM   22  O2  UNK     1      16.842   0.646  34.322  1.00  0.00    -0.271 OA
HETATM   23  N3  UNK     1      19.013   0.644  33.427  1.00  0.00    -0.325 N 
HETATM   24  H15 UNK     1      19.972   0.411  33.669  1.00  0.00     0.169 HD
BRANCH  23  25
HETATM   25  C17 UNK     1      18.817   1.138  32.115  1.00  0.00     0.041 A 
HETATM   26  C18 UNK     1      19.228   0.399  31.006  1.00  0.00    -0.032 A 
HETATM   27  C21 UNK     1      19.026   0.904  29.719  1.00  0.00     0.051 A 
HETATM   28  C22 UNK     1      19.885  -0.933  31.163  1.00  0.00     0.050 C 
HETATM   29  C24 UNK     1      18.416   2.146  29.546  1.00  0.00     0.117 A 
HETATM   30  C23 UNK     1      18.006   2.884  30.655  1.00  0.00     0.044 A 
HETATM   31  F1  UNK     1      18.225   2.629  28.311  1.00  0.00    -0.206 F 
HETATM   32  C20 UNK     1      18.207   2.380  31.941  1.00  0.00     0.033 A 
ENDBRANCH  23  25
ENDBRANCH  20  21
ENDBRANCH   2  20
TORSDOF 5
ENDMDL
MODEL 6
REMARK VINA RESULT:      -9.6      4.712     12.553
REMARK  5 active torsions:
REMARK  status: ('A' for Active; 'I' for Inactive)
REMARK    1  A    between atoms: C5_12  and  N1_5 
REMARK    2  A    between atoms: C6_13  and  N2_6 
REMARK    3  A    between atoms: C17_24  and  N3_7 
REMARK       I    between atoms: C9_16  and  N3_7 
REMARK    4  A    between atoms: C5_12  and  C7_14 
REMARK    5  A    between atoms: C6_13  and  C9_16 
ROOT
HETATM    1  N1  UNK     1      18.086   5.511  31.483  1.00  0.00     0.096 N 
HETATM    2  N2  UNK     1      19.018   2.842  30.879  1.00  0.00     0.100 N 
HETATM    3  C1  UNK     1      18.175   4.482  32.525  1.00  0.00     0.303 C 
HETATM    4  C2  UNK     1      19.090   5.272  30.438  1.00  0.00     0.303 C 
HETATM    5  C3  UNK     1      18.012   3.081  31.922  1.00  0.00     0.303 C 
HETATM    6  C4  UNK     1      18.929   3.871  29.837  1.00  0.00     0.303 C 
ENDROOT
BRANCH   1   7
HETATM    7  C5  UNK     1      18.243   6.845  32.058  1.00  0.00     0.312 C 
BRANCH   7   8
HETATM    8  C7  UNK     1      16.934   7.478  32.379  1.00  0.00    -0.011 A 
HETATM    9  C10 UNK     1      15.778   6.894  32.034  1.00  0.00     0.092 A 
HETATM   10  C13 UNK     1      14.461   7.481  32.330  1.00  0.00     0.288 A 
HETATM   11  O1  UNK     1      14.457   8.696  32.997  1.00  0.00    -0.275 OA
HETATM   12  O3  UNK     1      13.424   6.917  31.999  1.00  0.00    -0.260 OA
HETATM   13  C11 UNK     1      15.655   9.335  33.372  1.00  0.00     0.090 A 
HETATM   14  C8  UNK     1      16.897   8.766  33.085  1.00  0.00     0.006 A 
HETATM   15  C14 UNK     1      15.530  10.555  34.040  1.00  0.00     0.045 A 
HETATM   16  C12 UNK     1      18.042   9.464  33.492  1.00  0.00     0.015 A 
HETATM   17  C16 UNK     1      17.932  10.688  34.162  1.00  0.00     0.007 A 
HETATM   18  C15 UNK     1      16.678  11.233  34.436  1.00  0.00    -0.059 A 
HETATM   19  C19 UNK     1      16.570  12.537  35.150  1.00  0.00     0.048 C 
ENDBRANCH   7   8
ENDBRANCH   1   7
BRANCH   2  20
HETATM   20  C6  UNK     1      18.863   1.507  30.305  1.00  0.00     0.375 C 
BRANCH  20  21
HETATM   21  C9  UNK     1      19.628   0.501  31.149  1.00  0.00     0.250 C 
HETATM   22  O2  UNK     1      20.775   0.155  30.886  1.00  0.00    -0.271 OA
HETATM   23  N3  UNK     1      18.842   0.073  32.217  1.00  0.00    -0.325 N 
HETATM   24  H15 UNK     1      17.906   0.462  32.284  1.00  0.00     0.169 HD
BRANCH  23  25
HETATM   25  C17 UNK     1      19.189  -0.857  33.226  1.00  0.00     0.041 A 
HETATM   26  C18 UNK     1      18.670  -0.740  34.515  1.00  0.00    -0.032 A 
HETATM   27  C21 UNK     1      19.026  -1.667  35.497  1.00  0.00     0.051 A 
HETATM   28  C22 UNK     1      17.733   0.367  34.874  1.00  0.00     0.050 C 
HETATM   29  C24 UNK     1      19.901  -2.708  35.188  1.00  0.00     0.117 A 
HETATM   30  C23 UNK     1      20.420  -2.824  33.899  1.00  0.00     0.044 A 
HETATM   31  F1  UNK     1      20.242  -3.596  36.131  1.00  0.00    -0.206 F 
HETATM   32  C20 UNK     1      20.065  -1.899  32.918  1.00  0.00     0.033 A 
ENDBRANCH  23  25
ENDBRANCH  20  21
ENDBRANCH   2  20
TORSDOF 5
ENDMDL
MODEL 7
REMARK VINA RESULT:      -9.4      4.114     10.527
REMARK  5 active torsions:
REMARK  status: ('A' for Active; 'I' for Inactive)
REMARK    1  A    between atoms: C5_12  and  N1_5 
REMARK    2  A    between atoms: C6_13  and  N2_6 
REMARK    3  A    between atoms: C17_24  and  N3_7 
REMARK       I    between atoms: C9_16  and  N3_7 
REMARK    4  A    between atoms: C5_12  and  C7_14 
REMARK    5  A    between atoms: C6_13  and  C9_16 
ROOT
HETATM    1  N1  UNK     1      18.482  -1.227  35.503  1.00  0.00     0.096 N 
HETATM    2  N2  UNK     1      19.894  -3.208  37.066  1.00  0.00     0.100 N 
HETATM    3  C1  UNK     1      19.460  -2.129  34.885  1.00  0.00     0.303 C 
HETATM    4  C2  UNK     1      17.856  -1.869  36.666  1.00  0.00     0.303 C 
HETATM    5  C3  UNK     1      20.520  -2.564  35.905  1.00  0.00     0.303 C 
HETATM    6  C4  UNK     1      18.915  -2.306  37.684  1.00  0.00     0.303 C 
ENDROOT
BRANCH   1   7
HETATM    7  C5  UNK     1      17.471  -0.815  34.531  1.00  0.00     0.312 C 
BRANCH   7   8
HETATM    8  C7  UNK     1      17.961   0.267  33.633  1.00  0.00    -0.011 A 
HETATM    9  C10 UNK     1      17.728   1.557  33.911  1.00  0.00     0.092 A 
HETATM   10  C13 UNK     1      18.193   2.660  33.053  1.00  0.00     0.288 A 
HETATM   11  O1  UNK     1      18.901   2.308  31.915  1.00  0.00    -0.275 OA
HETATM   12  O3  UNK     1      17.960   3.830  33.340  1.00  0.00    -0.260 OA
HETATM   13  C11 UNK     1      19.161   0.960  31.596  1.00  0.00     0.090 A 
HETATM   14  C8  UNK     1      18.714  -0.075  32.419  1.00  0.00     0.006 A 
HETATM   15  C14 UNK     1      19.883   0.724  30.425  1.00  0.00     0.045 A 
HETATM   16  C12 UNK     1      19.014  -1.388  32.032  1.00  0.00     0.015 A 
HETATM   17  C16 UNK     1      19.737  -1.641  30.860  1.00  0.00     0.007 A 
HETATM   18  C15 UNK     1      20.171  -0.587  30.058  1.00  0.00    -0.059 A 
HETATM   19  C19 UNK     1      20.941  -0.865  28.812  1.00  0.00     0.048 C 
ENDBRANCH   7   8
ENDBRANCH   1   7
BRANCH   2  20
HETATM   20  C6  UNK     1      20.904  -3.622  38.038  1.00  0.00     0.375 C 
BRANCH  20  21
HETATM   21  C9  UNK     1      21.123  -5.121  37.931  1.00  0.00     0.250 C 
HETATM   22  O2  UNK     1      22.195  -5.610  37.588  1.00  0.00    -0.271 OA
HETATM   23  N3  UNK     1      19.958  -5.804  38.277  1.00  0.00    -0.325 N 
HETATM   24  H15 UNK     1      19.154  -5.238  38.535  1.00  0.00     0.169 HD
BRANCH  23  25
HETATM   25  C17 UNK     1      19.754  -7.204  38.304  1.00  0.00     0.041 A 
HETATM   26  C18 UNK     1      19.080  -7.847  37.266  1.00  0.00    -0.032 A 
HETATM   27  C21 UNK     1      18.887  -9.229  37.311  1.00  0.00     0.051 A 
HETATM   28  C22 UNK     1      18.554  -7.083  36.095  1.00  0.00     0.050 C 
HETATM   29  C24 UNK     1      19.367  -9.965  38.394  1.00  0.00     0.117 A 
HETATM   30  C23 UNK     1      20.040  -9.321  39.432  1.00  0.00     0.044 A 
HETATM   31  F1  UNK     1      19.181 -11.290  38.437  1.00  0.00    -0.206 F 
HETATM   32  C20 UNK     1      20.234  -7.940  39.387  1.00  0.00     0.033 A 
ENDBRANCH  23  25
ENDBRANCH  20  21
ENDBRANCH   2  20
TORSDOF 5
ENDMDL
MODEL 8
REMARK VINA RESULT:      -9.4      5.058      8.273
REMARK  5 active torsions:
REMARK  status: ('A' for Active; 'I' for Inactive)
REMARK    1  A    between atoms: C5_12  and  N1_5 
REMARK    2  A    between atoms: C6_13  and  N2_6 
REMARK    3  A    between atoms: C17_24  and  N3_7 
REMARK       I    between atoms: C9_16  and  N3_7 
REMARK    4  A    between atoms: C5_12  and  C7_14 
REMARK    5  A    between atoms: C6_13  and  C9_16 
ROOT
HETATM    1  N1  UNK     1      18.869   3.771  31.311  1.00  0.00     0.096 N 
HETATM    2  N2  UNK     1      19.262   6.423  32.393  1.00  0.00     0.100 N 
HETATM    3  C1  UNK     1      17.978   4.313  32.343  1.00  0.00     0.303 C 
HETATM    4  C2  UNK     1      19.421   4.856  30.490  1.00  0.00     0.303 C 
HETATM    5  C3  UNK     1      18.712   5.338  33.216  1.00  0.00     0.303 C 
HETATM    6  C4  UNK     1      20.154   5.882  31.361  1.00  0.00     0.303 C 
ENDROOT
BRANCH   1   7
HETATM    7  C5  UNK     1      18.167   2.796  30.480  1.00  0.00     0.312 C 
BRANCH   7   8
HETATM    8  C7  UNK     1      18.836   1.465  30.486  1.00  0.00    -0.011 A 
HETATM    9  C10 UNK     1      19.428   0.981  29.385  1.00  0.00     0.092 A 
HETATM   10  C13 UNK     1      20.101  -0.328  29.345  1.00  0.00     0.288 A 
HETATM   11  O1  UNK     1      20.101  -1.065  30.518  1.00  0.00    -0.275 OA
HETATM   12  O3  UNK     1      20.633  -0.738  28.318  1.00  0.00    -0.260 OA
HETATM   13  C11 UNK     1      19.487  -0.583  31.691  1.00  0.00     0.090 A 
HETATM   14  C8  UNK     1      18.853   0.660  31.715  1.00  0.00     0.006 A 
HETATM   15  C14 UNK     1      19.549  -1.410  32.814  1.00  0.00     0.045 A 
HETATM   16  C12 UNK     1      18.265   1.068  32.921  1.00  0.00     0.015 A 
HETATM   17  C16 UNK     1      18.319   0.248  34.054  1.00  0.00     0.007 A 
HETATM   18  C15 UNK     1      18.960  -0.989  34.001  1.00  0.00    -0.059 A 
HETATM   19  C19 UNK     1      19.013  -1.855  35.213  1.00  0.00     0.048 C 
ENDBRANCH   7   8
ENDBRANCH   1   7
BRANCH   2  20
HETATM   20  C6  UNK     1      19.962   7.400  33.225  1.00  0.00     0.375 C 
BRANCH  20  21
HETATM   21  C9  UNK     1      18.975   8.055  34.176  1.00  0.00     0.250 C 
HETATM   22  O2  UNK     1      19.069   7.961  35.395  1.00  0.00    -0.271 OA
HETATM   23  N3  UNK     1      18.001   8.747  33.457  1.00  0.00    -0.325 N 
HETATM   24  H15 UNK     1      18.071   8.717  32.443  1.00  0.00     0.169 HD
BRANCH  23  25
HETATM   25  C17 UNK     1      16.909   9.484  33.973  1.00  0.00     0.041 A 
HETATM   26  C18 UNK     1      15.683   8.866  34.220  1.00  0.00    -0.032 A 
HETATM   27  C21 UNK     1      14.617   9.611  34.728  1.00  0.00     0.051 A 
HETATM   28  C22 UNK     1      15.483   7.411  33.951  1.00  0.00     0.050 C 
HETATM   29  C24 UNK     1      14.778  10.972  34.986  1.00  0.00     0.117 A 
HETATM   30  C23 UNK     1      16.004  11.589  34.738  1.00  0.00     0.044 A 
HETATM   31  F1  UNK     1      13.755  11.686  35.472  1.00  0.00    -0.206 F 
HETATM   32  C20 UNK     1      17.070  10.846  34.230  1.00  0.00     0.033 A 
ENDBRANCH  23  25
ENDBRANCH  20  21
ENDBRANCH   2  20
TORSDOF 5
ENDMDL
MODEL 9
REMARK VINA RESULT:      -9.3      4.076     10.643
REMARK  5 active torsions:
REMARK  status: ('A' for Active; 'I' for Inactive)
REMARK    1  A    between atoms: C5_12  and  N1_5 
REMARK    2  A    between atoms: C6_13  and  N2_6 
REMARK    3  A    between atoms: C17_24  and  N3_7 
REMARK       I    between atoms: C9_16  and  N3_7 
REMARK    4  A    between atoms: C5_12  and  C7_14 
REMARK    5  A    between atoms: C6_13  and  C9_16 
ROOT
HETATM    1  N1  UNK     1      18.756  -1.095  35.074  1.00  0.00     0.096 N 
HETATM    2  N2  UNK     1      19.868  -3.079  36.858  1.00  0.00     0.100 N 
HETATM    3  C1  UNK     1      19.719  -2.094  34.596  1.00  0.00     0.303 C 
HETATM    4  C2  UNK     1      17.980  -1.627  36.201  1.00  0.00     0.303 C 
HETATM    5  C3  UNK     1      20.645  -2.545  35.732  1.00  0.00     0.303 C 
HETATM    6  C4  UNK     1      18.906  -2.079  37.335  1.00  0.00     0.303 C 
ENDROOT
BRANCH   1   7
HETATM    7  C5  UNK     1      17.872  -0.668  33.991  1.00  0.00     0.312 C 
BRANCH   7   8
HETATM    8  C7  UNK     1      18.605  -0.476  32.708  1.00  0.00    -0.011 A 
HETATM    9  C10 UNK     1      19.222  -1.499  32.102  1.00  0.00     0.092 A 
HETATM   10  C13 UNK     1      19.958  -1.357  30.834  1.00  0.00     0.288 A 
HETATM   11  O1  UNK     1      19.993  -0.090  30.274  1.00  0.00    -0.275 OA
HETATM   12  O3  UNK     1      20.510  -2.317  30.308  1.00  0.00    -0.260 OA
HETATM   13  C11 UNK     1      19.356   1.006  30.889  1.00  0.00     0.090 A 
HETATM   14  C8  UNK     1      18.661   0.856  32.090  1.00  0.00     0.006 A 
HETATM   15  C14 UNK     1      19.457   2.235  30.235  1.00  0.00     0.045 A 
HETATM   16  C12 UNK     1      18.054   1.995  32.637  1.00  0.00     0.015 A 
HETATM   17  C16 UNK     1      18.148   3.234  31.993  1.00  0.00     0.007 A 
HETATM   18  C15 UNK     1      18.848   3.354  30.793  1.00  0.00    -0.059 A 
HETATM   19  C19 UNK     1      18.943   4.677  30.113  1.00  0.00     0.048 C 
ENDBRANCH   7   8
ENDBRANCH   1   7
BRANCH   2  20
HETATM   20  C6  UNK     1      20.752  -3.508  37.940  1.00  0.00     0.375 C 
BRANCH  20  21
HETATM   21  C9  UNK     1      20.995  -5.003  37.832  1.00  0.00     0.250 C 
HETATM   22  O2  UNK     1      22.078  -5.475  37.500  1.00  0.00    -0.271 OA
HETATM   23  N3  UNK     1      19.837  -5.705  38.162  1.00  0.00    -0.325 N 
HETATM   24  H15 UNK     1      19.021  -5.152  38.412  1.00  0.00     0.169 HD
BRANCH  23  25
HETATM   25  C17 UNK     1      19.654  -7.108  38.182  1.00  0.00     0.041 A 
HETATM   26  C18 UNK     1      19.017  -7.760  37.126  1.00  0.00    -0.032 A 
HETATM   27  C21 UNK     1      18.845  -9.145  37.165  1.00  0.00     0.051 A 
HETATM   28  C22 UNK     1      18.510  -7.003  35.943  1.00  0.00     0.050 C 
HETATM   29  C24 UNK     1      19.307  -9.874  38.260  1.00  0.00     0.117 A 
HETATM   30  C23 UNK     1      19.943  -9.222  39.315  1.00  0.00     0.044 A 
HETATM   31  F1  UNK     1      19.140 -11.203  38.296  1.00  0.00    -0.206 F 
HETATM   32  C20 UNK     1      20.116  -7.838  39.277  1.00  0.00     0.033 A 
ENDBRANCH  23  25
ENDBRANCH  20  21
ENDBRANCH   2  20
TORSDOF 5
ENDMDL
MODEL 10
REMARK VINA RESULT:      -9.2      6.459      9.485
REMARK  5 active torsions:
REMARK  status: ('A' for Active; 'I' for Inactive)
REMARK    1  A    between atoms: C5_12  and  N1_5 
REMARK    2  A    between atoms: C6_13  and  N2_6 
REMARK    3  A    between atoms: C17_24  and  N3_7 
REMARK       I    between atoms: C9_16  and  N3_7 
REMARK    4  A    between atoms: C5_12  and  C7_14 
REMARK    5  A    between atoms: C6_13  and  C9_16 
ROOT
HETATM    1  N1  UNK     1      18.454   4.953  32.575  1.00  0.00     0.096 N 
HETATM    2  N2  UNK     1      18.656   7.744  33.301  1.00  0.00     0.100 N 
HETATM    3  C1  UNK     1      17.257   5.786  32.736  1.00  0.00     0.303 C 
HETATM    4  C2  UNK     1      19.595   5.772  32.146  1.00  0.00     0.303 C 
HETATM    5  C3  UNK     1      17.516   6.924  33.731  1.00  0.00     0.303 C 
HETATM    6  C4  UNK     1      19.853   6.910  33.139  1.00  0.00     0.303 C 
ENDROOT
BRANCH   1   7
HETATM    7  C5  UNK     1      18.206   3.870  31.625  1.00  0.00     0.312 C 
BRANCH   7   8
HETATM    8  C7  UNK     1      18.391   2.527  32.241  1.00  0.00    -0.011 A 
HETATM    9  C10 UNK     1      18.062   2.300  33.520  1.00  0.00     0.092 A 
HETATM   10  C13 UNK     1      18.228   0.990  34.172  1.00  0.00     0.288 A 
HETATM   11  O1  UNK     1      18.752  -0.031  33.394  1.00  0.00    -0.275 OA
HETATM   12  O3  UNK     1      17.915   0.819  35.345  1.00  0.00    -0.260 OA
HETATM   13  C11 UNK     1      19.108   0.178  32.047  1.00  0.00     0.090 A 
HETATM   14  C8  UNK     1      18.945   1.425  31.442  1.00  0.00     0.006 A 
HETATM   15  C14 UNK     1      19.626  -0.922  31.360  1.00  0.00     0.045 A 
HETATM   16  C12 UNK     1      19.323   1.551  30.098  1.00  0.00     0.015 A 
HETATM   17  C16 UNK     1      19.845   0.457  29.397  1.00  0.00     0.007 A 
HETATM   18  C15 UNK     1      19.996  -0.777  30.027  1.00  0.00    -0.059 A 
HETATM   19  C19 UNK     1      20.551  -1.937  29.273  1.00  0.00     0.048 C 
ENDBRANCH   7   8
ENDBRANCH   1   7
BRANCH   2  20
HETATM   20  C6  UNK     1      18.902   8.828  34.250  1.00  0.00     0.375 C 
BRANCH  20  21
HETATM   21  C9  UNK     1      17.941   9.971  33.972  1.00  0.00     0.250 C 
HETATM   22  O2  UNK     1      18.264  10.965  33.329  1.00  0.00    -0.271 OA
HETATM   23  N3  UNK     1      16.696   9.702  34.538  1.00  0.00    -0.325 N 
HETATM   24  H15 UNK     1      16.602   8.825  35.044  1.00  0.00     0.169 HD
BRANCH  23  25
HETATM   25  C17 UNK     1      15.538  10.514  34.504  1.00  0.00     0.041 A 
HETATM   26  C18 UNK     1      14.435  10.152  33.731  1.00  0.00    -0.032 A 
HETATM   27  C21 UNK     1      13.302  10.967  33.709  1.00  0.00     0.051 A 
HETATM   28  C22 UNK     1      14.438   8.900  32.917  1.00  0.00     0.050 C 
HETATM   29  C24 UNK     1      13.275  12.143  34.458  1.00  0.00     0.117 A 
HETATM   30  C23 UNK     1      14.378  12.505  35.230  1.00  0.00     0.044 A 
HETATM   31  F1  UNK     1      12.188  12.925  34.435  1.00  0.00    -0.206 F 
HETATM   32  C20 UNK     1      15.511  11.691  35.253  1.00  0.00     0.033 A 
ENDBRANCH  23  25
ENDBRANCH  20  21
ENDBRANCH   2  20
TORSDOF 5
ENDMDL
