MODEL 1
REMARK VINA RESULT:      -7.1      0.000      0.000
REMARK  3 active torsions:
REMARK  status: ('A' for Active; 'I' for Inactive)
REMARK    1  A    between atoms: C1_3  and  N1_1 
REMARK    2  A    between atoms: C2_4  and  C7_9 
REMARK    3  A    between atoms: C10_12  and  C11_13 
ROOT
HETATM    1  N2  UNK     1      16.489  11.636  34.541  1.00  0.00    -0.191 NA
HETATM    2  C10 UNK     1      18.211   6.889  32.685  1.00  0.00    -0.036 A 
HETATM    3  C12 UNK     1      19.047   7.671  33.482  1.00  0.00     0.013 A 
HETATM    4  C13 UNK     1      16.928   7.338  32.369  1.00  0.00     0.013 A 
HETATM    5  C14 UNK     1      18.601   8.901  33.963  1.00  0.00     0.023 A 
HETATM    6  C15 UNK     1      16.482   8.568  32.850  1.00  0.00     0.023 A 
HETATM    7  C16 UNK     1      17.319   9.350  33.647  1.00  0.00     0.044 A 
HETATM    8  C17 UNK     1      16.861  10.611  34.140  1.00  0.00     0.099 C 
ENDROOT
BRANCH   2   9
HETATM    9  C11 UNK     1      18.677   5.605  32.182  1.00  0.00     0.012 C 
HETATM   10  C7  UNK     1      17.893   4.526  31.951  1.00  0.00     0.012 C 
BRANCH  10  11
HETATM   11  C2  UNK     1      18.363   3.233  31.423  1.00  0.00    -0.036 A 
HETATM   12  C5  UNK     1      18.613   3.105  30.067  1.00  0.00     0.013 A 
HETATM   13  C3  UNK     1      19.057   1.881  29.566  1.00  0.00     0.030 A 
HETATM   14  C1  UNK     1      19.247   0.802  30.430  1.00  0.00     0.029 A 
HETATM   15  C4  UNK     1      18.990   0.947  31.794  1.00  0.00     0.030 A 
HETATM   16  C6  UNK     1      18.546   2.171  32.294  1.00  0.00     0.013 A 
BRANCH  14  17
HETATM   17  N1  UNK     1      19.697  -0.436  29.925  1.00  0.00    -0.390 N 
HETATM   18  C8  UNK     1      19.757  -0.666  28.495  1.00  0.00     0.149 C 
HETATM   19  C9  UNK     1      20.116  -1.489  30.828  1.00  0.00     0.149 C 
ENDBRANCH  14  17
ENDBRANCH  10  11
ENDBRANCH   2   9
TORSDOF 3
ENDMDL
MODEL 2
REMARK VINA RESULT:      -7.0      0.908      8.795
REMARK  3 active torsions:
REMARK  status: ('A' for Active; 'I' for Inactive)
REMARK    1  A    between atoms: C1_3  and  N1_1 
REMARK    2  A    between atoms: C2_4  and  C7_9 
REMARK    3  A    between atoms: C10_12  and  C11_13 
ROOT
HETATM    1  N2  UNK     1      20.305  -1.822  29.330  1.00  0.00    -0.191 NA
HETATM    2  C10 UNK     1      18.405   2.852  31.198  1.00  0.00    -0.036 A 
HETATM    3  C12 UNK     1      18.594   2.675  29.827  1.00  0.00     0.013 A 
HETATM    4  C13 UNK     1      18.708   1.819  32.084  1.00  0.00     0.013 A 
HETATM    5  C14 UNK     1      19.086   1.463  29.343  1.00  0.00     0.023 A 
HETATM    6  C15 UNK     1      19.201   0.607  31.600  1.00  0.00     0.023 A 
HETATM    7  C16 UNK     1      19.390   0.430  30.229  1.00  0.00     0.044 A 
HETATM    8  C17 UNK     1      19.895  -0.812  29.733  1.00  0.00     0.099 C 
ENDROOT
BRANCH   2   9
HETATM    9  C11 UNK     1      17.892   4.117  31.703  1.00  0.00     0.012 C 
HETATM   10  C7  UNK     1      18.620   5.049  32.361  1.00  0.00     0.012 C 
BRANCH  10  11
HETATM   11  C2  UNK     1      18.105   6.337  32.854  1.00  0.00    -0.036 A 
HETATM   12  C5  UNK     1      16.737   6.552  32.888  1.00  0.00     0.013 A 
HETATM   13  C3  UNK     1      16.248   7.773  33.355  1.00  0.00     0.030 A 
HETATM   14  C1  UNK     1      17.135   8.761  33.783  1.00  0.00     0.029 A 
HETATM   15  C4  UNK     1      18.510   8.529  33.743  1.00  0.00     0.030 A 
HETATM   16  C6  UNK     1      18.998   7.309  33.275  1.00  0.00     0.013 A 
BRANCH  14  17
HETATM   17  N1  UNK     1      16.641   9.995  34.256  1.00  0.00    -0.390 N 
HETATM   18  C8  UNK     1      17.440  11.199  34.136  1.00  0.00     0.149 C 
HETATM   19  C9  UNK     1      15.324  10.078  34.855  1.00  0.00     0.149 C 
ENDBRANCH  14  17
ENDBRANCH  10  11
ENDBRANCH   2   9
TORSDOF 3
ENDMDL
MODEL 3
REMARK VINA RESULT:      -7.0      0.751      8.797
REMARK  3 active torsions:
REMARK  status: ('A' for Active; 'I' for Inactive)
REMARK    1  A    between atoms: C1_3  and  N1_1 
REMARK    2  A    between atoms: C2_4  and  C7_9 
REMARK    3  A    between atoms: C10_12  and  C11_13 
ROOT
HETATM    1  N2  UNK     1      20.179  -1.437  28.940  1.00  0.00    -0.191 NA
HETATM    2  C10 UNK     1      18.417   3.085  31.261  1.00  0.00    -0.036 A 
HETATM    3  C12 UNK     1      18.703   1.966  32.043  1.00  0.00     0.013 A 
HETATM    4  C13 UNK     1      18.586   3.032  29.878  1.00  0.00     0.013 A 
HETATM    5  C14 UNK     1      19.160   0.794  31.442  1.00  0.00     0.023 A 
HETATM    6  C15 UNK     1      19.043   1.859  29.276  1.00  0.00     0.023 A 
HETATM    7  C16 UNK     1      19.330   0.740  30.058  1.00  0.00     0.044 A 
HETATM    8  C17 UNK     1      19.798  -0.461  29.441  1.00  0.00     0.099 C 
ENDROOT
BRANCH   2   9
HETATM    9  C11 UNK     1      17.939   4.307  31.889  1.00  0.00     0.012 C 
HETATM   10  C7  UNK     1      18.570   5.504  31.849  1.00  0.00     0.012 C 
BRANCH  10  11
HETATM   11  C2  UNK     1      18.076   6.746  32.468  1.00  0.00    -0.036 A 
HETATM   12  C5  UNK     1      18.927   7.490  33.269  1.00  0.00     0.013 A 
HETATM   13  C3  UNK     1      18.460   8.666  33.856  1.00  0.00     0.030 A 
HETATM   14  C1  UNK     1      17.148   9.083  33.632  1.00  0.00     0.029 A 
HETATM   15  C4  UNK     1      16.303   8.323  32.823  1.00  0.00     0.030 A 
HETATM   16  C6  UNK     1      16.770   7.147  32.237  1.00  0.00     0.013 A 
BRANCH  14  17
HETATM   17  N1  UNK     1      16.675  10.273  34.225  1.00  0.00    -0.390 N 
HETATM   18  C8  UNK     1      15.400  10.292  34.914  1.00  0.00     0.149 C 
HETATM   19  C9  UNK     1      17.464  11.487  34.164  1.00  0.00     0.149 C 
ENDBRANCH  14  17
ENDBRANCH  10  11
ENDBRANCH   2   9
TORSDOF 3
ENDMDL
MODEL 4
REMARK VINA RESULT:      -7.0      1.354      2.330
REMARK  3 active torsions:
REMARK  status: ('A' for Active; 'I' for Inactive)
REMARK    1  A    between atoms: C1_3  and  N1_1 
REMARK    2  A    between atoms: C2_4  and  C7_9 
REMARK    3  A    between atoms: C10_12  and  C11_13 
ROOT
HETATM    1  N2  UNK     1      17.066  13.891  35.169  1.00  0.00    -0.191 NA
HETATM    2  C10 UNK     1      17.416   8.825  33.391  1.00  0.00    -0.036 A 
HETATM    3  C12 UNK     1      18.574   9.530  33.720  1.00  0.00     0.013 A 
HETATM    4  C13 UNK     1      16.168   9.433  33.523  1.00  0.00     0.013 A 
HETATM    5  C14 UNK     1      18.483  10.843  34.181  1.00  0.00     0.023 A 
HETATM    6  C15 UNK     1      16.077  10.746  33.983  1.00  0.00     0.023 A 
HETATM    7  C16 UNK     1      17.235  11.451  34.312  1.00  0.00     0.044 A 
HETATM    8  C17 UNK     1      17.141  12.796  34.785  1.00  0.00     0.099 C 
ENDROOT
BRANCH   2   9
HETATM    9  C11 UNK     1      17.511   7.455  32.910  1.00  0.00     0.012 C 
HETATM   10  C7  UNK     1      18.345   7.026  31.934  1.00  0.00     0.012 C 
BRANCH  10  11
HETATM   11  C2  UNK     1      18.455   5.635  31.460  1.00  0.00    -0.036 A 
HETATM   12  C5  UNK     1      18.979   5.386  30.203  1.00  0.00     0.013 A 
HETATM   13  C3  UNK     1      19.083   4.070  29.754  1.00  0.00     0.030 A 
HETATM   14  C1  UNK     1      18.663   3.020  30.571  1.00  0.00     0.029 A 
HETATM   15  C4  UNK     1      18.139   3.287  31.836  1.00  0.00     0.030 A 
HETATM   16  C6  UNK     1      18.034   4.603  32.284  1.00  0.00     0.013 A 
BRANCH  14  17
HETATM   17  N1  UNK     1      18.769   1.688  30.118  1.00  0.00    -0.390 N 
HETATM   18  C8  UNK     1      18.292   1.322  28.799  1.00  0.00     0.149 C 
HETATM   19  C9  UNK     1      19.368   0.671  30.960  1.00  0.00     0.149 C 
ENDBRANCH  14  17
ENDBRANCH  10  11
ENDBRANCH   2   9
TORSDOF 3
ENDMDL
MODEL 5
REMARK VINA RESULT:      -7.0     13.220     17.154
REMARK  3 active torsions:
REMARK  status: ('A' for Active; 'I' for Inactive)
REMARK    1  A    between atoms: C1_3  and  N1_1 
REMARK    2  A    between atoms: C2_4  and  C7_9 
REMARK    3  A    between atoms: C10_12  and  C11_13 
ROOT
HETATM    1  N2  UNK     1      19.401   2.795  22.573  1.00  0.00    -0.191 NA
HETATM    2  C10 UNK     1      19.085   0.207  17.867  1.00  0.00    -0.036 A 
HETATM    3  C12 UNK     1      19.244  -0.515  19.050  1.00  0.00     0.013 A 
HETATM    4  C13 UNK     1      19.008   1.599  17.903  1.00  0.00     0.013 A 
HETATM    5  C14 UNK     1      19.326   0.156  20.270  1.00  0.00     0.023 A 
HETATM    6  C15 UNK     1      19.090   2.270  19.123  1.00  0.00     0.023 A 
HETATM    7  C16 UNK     1      19.249   1.548  20.306  1.00  0.00     0.044 A 
HETATM    8  C17 UNK     1      19.333   2.236  21.556  1.00  0.00     0.099 C 
ENDROOT
BRANCH   2   9
HETATM    9  C11 UNK     1      19.000  -0.493  16.594  1.00  0.00     0.012 C 
HETATM   10  C7  UNK     1      19.280  -1.804  16.403  1.00  0.00     0.012 C 
BRANCH  10  11
HETATM   11  C2  UNK     1      19.175  -2.517  15.118  1.00  0.00    -0.036 A 
HETATM   12  C5  UNK     1      19.035  -3.895  15.117  1.00  0.00     0.013 A 
HETATM   13  C3  UNK     1      18.935  -4.571  13.901  1.00  0.00     0.030 A 
HETATM   14  C1  UNK     1      18.976  -3.858  12.702  1.00  0.00     0.029 A 
HETATM   15  C4  UNK     1      19.117  -2.470  12.720  1.00  0.00     0.030 A 
HETATM   16  C6  UNK     1      19.217  -1.795  13.936  1.00  0.00     0.013 A 
BRANCH  14  17
HETATM   17  N1  UNK     1      18.874  -4.541  11.472  1.00  0.00    -0.390 N 
HETATM   18  C8  UNK     1      18.659  -5.975  11.444  1.00  0.00     0.149 C 
HETATM   19  C9  UNK     1      18.972  -3.817  10.220  1.00  0.00     0.149 C 
ENDBRANCH  14  17
ENDBRANCH  10  11
ENDBRANCH   2   9
TORSDOF 3
ENDMDL
MODEL 6
REMARK VINA RESULT:      -6.8      1.653      9.370
REMARK  3 active torsions:
REMARK  status: ('A' for Active; 'I' for Inactive)
REMARK    1  A    between atoms: C1_3  and  N1_1 
REMARK    2  A    between atoms: C2_4  and  C7_9 
REMARK    3  A    between atoms: C10_12  and  C11_13 
ROOT
HETATM    1  N2  UNK     1      18.753   0.960  30.087  1.00  0.00    -0.191 NA
HETATM    2  C10 UNK     1      18.438   6.049  31.806  1.00  0.00    -0.036 A 
HETATM    3  C12 UNK     1      18.961   5.771  30.542  1.00  0.00     0.013 A 
HETATM    4  C13 UNK     1      17.998   5.008  32.623  1.00  0.00     0.013 A 
HETATM    5  C14 UNK     1      19.042   4.452  30.097  1.00  0.00     0.023 A 
HETATM    6  C15 UNK     1      18.080   3.689  32.178  1.00  0.00     0.023 A 
HETATM    7  C16 UNK     1      18.602   3.411  30.914  1.00  0.00     0.044 A 
HETATM    8  C17 UNK     1      18.685   2.060  30.458  1.00  0.00     0.099 C 
ENDROOT
BRANCH   2   9
HETATM    9  C11 UNK     1      18.354   7.425  32.271  1.00  0.00     0.012 C 
HETATM   10  C7  UNK     1      17.443   7.897  33.153  1.00  0.00     0.012 C 
BRANCH  10  11
HETATM   11  C2  UNK     1      17.371   9.286  33.639  1.00  0.00    -0.036 A 
HETATM   12  C5  UNK     1      18.541  10.008  33.806  1.00  0.00     0.013 A 
HETATM   13  C3  UNK     1      18.474  11.323  34.266  1.00  0.00     0.030 A 
HETATM   14  C1  UNK     1      17.236  11.899  34.551  1.00  0.00     0.029 A 
HETATM   15  C4  UNK     1      16.066  11.159  34.377  1.00  0.00     0.030 A 
HETATM   16  C6  UNK     1      16.134   9.844  33.918  1.00  0.00     0.013 A 
BRANCH  14  17
HETATM   17  N1  UNK     1      17.167  13.229  35.016  1.00  0.00    -0.390 N 
HETATM   18  C8  UNK     1      17.938  14.273  34.369  1.00  0.00     0.149 C 
HETATM   19  C9  UNK     1      16.314  13.572  36.137  1.00  0.00     0.149 C 
ENDBRANCH  14  17
ENDBRANCH  10  11
ENDBRANCH   2   9
TORSDOF 3
ENDMDL
MODEL 7
REMARK VINA RESULT:      -6.8      7.437     13.396
REMARK  3 active torsions:
REMARK  status: ('A' for Active; 'I' for Inactive)
REMARK    1  A    between atoms: C1_3  and  N1_1 
REMARK    2  A    between atoms: C2_4  and  C7_9 
REMARK    3  A    between atoms: C10_12  and  C11_13 
ROOT
HETATM    1  N2  UNK     1      23.167 -11.264  35.975  1.00  0.00    -0.191 NA
HETATM    2  C10 UNK     1      20.509  -6.587  36.085  1.00  0.00    -0.036 A 
HETATM    3  C12 UNK     1      21.273  -6.981  37.184  1.00  0.00     0.013 A 
HETATM    4  C13 UNK     1      20.434  -7.405  34.958  1.00  0.00     0.013 A 
HETATM    5  C14 UNK     1      21.962  -8.193  37.155  1.00  0.00     0.023 A 
HETATM    6  C15 UNK     1      21.122  -8.618  34.929  1.00  0.00     0.023 A 
HETATM    7  C16 UNK     1      21.887  -9.011  36.028  1.00  0.00     0.044 A 
HETATM    8  C17 UNK     1      22.592 -10.253  35.998  1.00  0.00     0.099 C 
ENDROOT
BRANCH   2   9
HETATM    9  C11 UNK     1      19.790  -5.322  36.115  1.00  0.00     0.012 C 
HETATM   10  C7  UNK     1      20.326  -4.127  36.454  1.00  0.00     0.012 C 
BRANCH  10  11
HETATM   11  C2  UNK     1      19.602  -2.843  36.466  1.00  0.00    -0.036 A 
HETATM   12  C5  UNK     1      19.632  -2.038  35.339  1.00  0.00     0.013 A 
HETATM   13  C3  UNK     1      18.947  -0.823  35.349  1.00  0.00     0.030 A 
HETATM   14  C1  UNK     1      18.241  -0.431  36.486  1.00  0.00     0.029 A 
HETATM   15  C4  UNK     1      18.220  -1.253  37.613  1.00  0.00     0.030 A 
HETATM   16  C6  UNK     1      18.905  -2.468  37.603  1.00  0.00     0.013 A 
BRANCH  14  17
HETATM   17  N1  UNK     1      17.547   0.798  36.497  1.00  0.00    -0.390 N 
HETATM   18  C8  UNK     1      18.215   2.020  36.095  1.00  0.00     0.149 C 
HETATM   19  C9  UNK     1      16.155   0.852  36.898  1.00  0.00     0.149 C 
ENDBRANCH  14  17
ENDBRANCH  10  11
ENDBRANCH   2   9
TORSDOF 3
ENDMDL
MODEL 8
REMARK VINA RESULT:      -6.7      1.428      9.158
REMARK  3 active torsions:
REMARK  status: ('A' for Active; 'I' for Inactive)
REMARK    1  A    between atoms: C1_3  and  N1_1 
REMARK    2  A    between atoms: C2_4  and  C7_9 
REMARK    3  A    between atoms: C10_12  and  C11_13 
ROOT
HETATM    1  N2  UNK     1      18.964   0.667  29.014  1.00  0.00    -0.191 NA
HETATM    2  C10 UNK     1      18.452   5.434  31.455  1.00  0.00    -0.036 A 
HETATM    3  C12 UNK     1      18.110   4.263  32.132  1.00  0.00     0.013 A 
HETATM    4  C13 UNK     1      18.927   5.368  30.145  1.00  0.00     0.013 A 
HETATM    5  C14 UNK     1      18.243   3.028  31.500  1.00  0.00     0.023 A 
HETATM    6  C15 UNK     1      19.059   4.133  29.512  1.00  0.00     0.023 A 
HETATM    7  C16 UNK     1      18.717   2.962  30.190  1.00  0.00     0.044 A 
HETATM    8  C17 UNK     1      18.854   1.696  29.541  1.00  0.00     0.099 C 
ENDROOT
BRANCH   2   9
HETATM    9  C11 UNK     1      18.313   6.723  32.115  1.00  0.00     0.012 C 
HETATM   10  C7  UNK     1      17.142   7.364  32.338  1.00  0.00     0.012 C 
BRANCH  10  11
HETATM   11  C2  UNK     1      17.000   8.659  33.025  1.00  0.00    -0.036 A 
HETATM   12  C5  UNK     1      15.750   9.252  33.102  1.00  0.00     0.013 A 
HETATM   13  C3  UNK     1      15.615  10.479  33.751  1.00  0.00     0.030 A 
HETATM   14  C1  UNK     1      16.731  11.096  34.316  1.00  0.00     0.029 A 
HETATM   15  C4  UNK     1      17.983  10.485  34.231  1.00  0.00     0.030 A 
HETATM   16  C6  UNK     1      18.118   9.259  33.581  1.00  0.00     0.013 A 
BRANCH  14  17
HETATM   17  N1  UNK     1      16.595  12.336  34.974  1.00  0.00    -0.390 N 
HETATM   18  C8  UNK     1      15.364  12.670  35.663  1.00  0.00     0.149 C 
HETATM   19  C9  UNK     1      17.688  13.288  34.981  1.00  0.00     0.149 C 
ENDBRANCH  14  17
ENDBRANCH  10  11
ENDBRANCH   2   9
TORSDOF 3
ENDMDL
MODEL 9
REMARK VINA RESULT:      -6.7      7.181      9.998
REMARK  3 active torsions:
REMARK  status: ('A' for Active; 'I' for Inactive)
REMARK    1  A    between atoms: C1_3  and  N1_1 
REMARK    2  A    between atoms: C2_4  and  C7_9 
REMARK    3  A    between atoms: C10_12  and  C11_13 
ROOT
HETATM    1  N2  UNK     1      17.904   3.258  32.982  1.00  0.00    -0.191 NA
HETATM    2  C10 UNK     1      18.763  -1.285  35.734  1.00  0.00    -0.036 A 
HETATM    3  C12 UNK     1      18.453  -0.107  36.413  1.00  0.00     0.013 A 
HETATM    4  C13 UNK     1      18.852  -1.286  34.342  1.00  0.00     0.013 A 
HETATM    5  C14 UNK     1      18.229   1.070  35.700  1.00  0.00     0.023 A 
HETATM    6  C15 UNK     1      18.630  -0.108  33.629  1.00  0.00     0.023 A 
HETATM    7  C16 UNK     1      18.318   1.070  34.308  1.00  0.00     0.044 A 
HETATM    8  C17 UNK     1      18.090   2.276  33.577  1.00  0.00     0.099 C 
ENDROOT
BRANCH   2   9
HETATM    9  C11 UNK     1      18.997  -2.513  36.479  1.00  0.00     0.012 C 
HETATM   10  C7  UNK     1      19.843  -3.502  36.109  1.00  0.00     0.012 C 
BRANCH  10  11
HETATM   11  C2  UNK     1      20.094  -4.736  36.873  1.00  0.00    -0.036 A 
HETATM   12  C5  UNK     1      21.268  -4.858  37.599  1.00  0.00     0.013 A 
HETATM   13  C3  UNK     1      21.506  -6.026  38.323  1.00  0.00     0.030 A 
HETATM   14  C1  UNK     1      20.566  -7.057  38.312  1.00  0.00     0.029 A 
HETATM   15  C4  UNK     1      19.388  -6.919  37.577  1.00  0.00     0.030 A 
HETATM   16  C6  UNK     1      19.150  -5.751  36.853  1.00  0.00     0.013 A 
BRANCH  14  17
HETATM   17  N1  UNK     1      20.806  -8.238  39.045  1.00  0.00    -0.390 N 
HETATM   18  C8  UNK     1      22.029  -8.393  39.807  1.00  0.00     0.149 C 
HETATM   19  C9  UNK     1      19.827  -9.307  39.055  1.00  0.00     0.149 C 
ENDBRANCH  14  17
ENDBRANCH  10  11
ENDBRANCH   2   9
TORSDOF 3
ENDMDL
MODEL 10
REMARK VINA RESULT:      -6.4      7.647     10.689
REMARK  3 active torsions:
REMARK  status: ('A' for Active; 'I' for Inactive)
REMARK    1  A    between atoms: C1_3  and  N1_1 
REMARK    2  A    between atoms: C2_4  and  C7_9 
REMARK    3  A    between atoms: C10_12  and  C11_13 
ROOT
HETATM    1  N2  UNK     1      16.785   2.146  37.137  1.00  0.00    -0.191 NA
HETATM    2  C10 UNK     1      19.434  -2.494  36.502  1.00  0.00    -0.036 A 
HETATM    3  C12 UNK     1      18.764  -2.231  37.697  1.00  0.00     0.013 A 
HETATM    4  C13 UNK     1      19.417  -1.553  35.472  1.00  0.00     0.013 A 
HETATM    5  C14 UNK     1      18.077  -1.029  37.861  1.00  0.00     0.023 A 
HETATM    6  C15 UNK     1      18.731  -0.350  35.636  1.00  0.00     0.023 A 
HETATM    7  C16 UNK     1      18.061  -0.089  36.831  1.00  0.00     0.044 A 
HETATM    8  C17 UNK     1      17.357   1.144  37.000  1.00  0.00     0.099 C 
ENDROOT
BRANCH   2   9
HETATM    9  C11 UNK     1      20.151  -3.748  36.331  1.00  0.00     0.012 C 
HETATM   10  C7  UNK     1      19.629  -4.980  36.535  1.00  0.00     0.012 C 
BRANCH  10  11
HETATM   11  C2  UNK     1      20.349  -6.251  36.342  1.00  0.00    -0.036 A 
HETATM   12  C5  UNK     1      20.147  -6.975  35.179  1.00  0.00     0.013 A 
HETATM   13  C3  UNK     1      20.829  -8.179  34.996  1.00  0.00     0.030 A 
HETATM   14  C1  UNK     1      21.705  -8.640  35.978  1.00  0.00     0.029 A 
HETATM   15  C4  UNK     1      21.898  -7.898  37.144  1.00  0.00     0.030 A 
HETATM   16  C6  UNK     1      21.216  -6.696  37.327  1.00  0.00     0.013 A 
BRANCH  14  17
HETATM   17  N1  UNK     1      22.395  -9.856  35.794  1.00  0.00    -0.390 N 
HETATM   18  C8  UNK     1      21.829 -10.902  34.965  1.00  0.00     0.149 C 
HETATM   19  C9  UNK     1      23.685 -10.071  36.419  1.00  0.00     0.149 C 
ENDBRANCH  14  17
ENDBRANCH  10  11
ENDBRANCH   2   9
TORSDOF 3
ENDMDL
