MODEL 1
REMARK VINA RESULT:      -7.6      0.000      0.000
REMARK  3 active torsions:
REMARK  status: ('A' for Active; 'I' for Inactive)
REMARK    1  A    between atoms: C15_19  and  O3_3 
REMARK    2  A    between atoms: C3_7  and  C6_10 
REMARK    3  A    between atoms: C15_19  and  C6_10 
ROOT
HETATM    1  O1  UNK     1      18.219   3.418  31.208  1.00  0.00    -0.275 OA
HETATM    2  O2  UNK     1      17.464   4.850  32.818  1.00  0.00    -0.260 OA
HETATM    3  C1  UNK     1      18.895   1.107  31.793  1.00  0.00     0.016 A 
HETATM    4  C2  UNK     1      19.447  -0.136  31.299  1.00  0.00    -0.012 A 
HETATM    5  C3  UNK     1      18.475   1.433  33.187  1.00  0.00    -0.029 A 
HETATM    6  C4  UNK     1      18.719   2.145  30.857  1.00  0.00     0.091 A 
HETATM    7  C5  UNK     1      19.751  -0.245  29.904  1.00  0.00    -0.025 A 
HETATM    8  C7  UNK     1      19.025   2.021  29.505  1.00  0.00     0.039 A 
HETATM    9  C8  UNK     1      19.533   0.827  29.036  1.00  0.00     0.015 A 
HETATM   10  C9  UNK     1      19.742  -1.303  32.058  1.00  0.00     0.013 A 
HETATM   11  C10 UNK     1      18.011   2.660  33.480  1.00  0.00     0.091 A 
HETATM   12  C11 UNK     1      20.281  -1.426  29.355  1.00  0.00     0.012 A 
HETATM   13  C12 UNK     1      17.873   3.739  32.501  1.00  0.00     0.288 A 
HETATM   14  C13 UNK     1      20.271  -2.474  31.499  1.00  0.00     0.001 A 
HETATM   15  C14 UNK     1      20.539  -2.536  30.145  1.00  0.00     0.001 A 
ENDROOT
BRANCH   5  16
HETATM   16  C6  UNK     1      18.516   0.446  34.316  1.00  0.00     0.149 C 
BRANCH  16  17
HETATM   17  C15 UNK     1      17.129  -0.055  34.614  1.00  0.00     0.143 C 
HETATM   18  O4  UNK     1      16.350   0.381  35.447  1.00  0.00    -0.650 OA
BRANCH  17  19
HETATM   19  O3  UNK     1      16.849  -1.109  33.803  1.00  0.00    -0.776 OA
HETATM   20  H10 UNK     1      17.664  -1.548  33.479  1.00  0.00     0.167 HD
ENDBRANCH  17  19
ENDBRANCH  16  17
ENDBRANCH   5  16
TORSDOF 3
ENDMDL
MODEL 2
REMARK VINA RESULT:      -7.6     12.776     14.746
REMARK  3 active torsions:
REMARK  status: ('A' for Active; 'I' for Inactive)
REMARK    1  A    between atoms: C15_19  and  O3_3 
REMARK    2  A    between atoms: C3_7  and  C6_10 
REMARK    3  A    between atoms: C15_19  and  C6_10 
ROOT
HETATM    1  O1  UNK     1      27.068  -4.963  38.813  1.00  0.00    -0.275 OA
HETATM    2  O2  UNK     1      24.853  -5.491  38.977  1.00  0.00    -0.260 OA
HETATM    3  C1  UNK     1      28.757  -6.727  38.394  1.00  0.00     0.016 A 
HETATM    4  C2  UNK     1      30.167  -7.020  38.252  1.00  0.00    -0.012 A 
HETATM    5  C3  UNK     1      27.611  -7.679  38.317  1.00  0.00    -0.029 A 
HETATM    6  C4  UNK     1      28.403  -5.383  38.625  1.00  0.00     0.091 A 
HETATM    7  C5  UNK     1      31.103  -5.938  38.327  1.00  0.00    -0.025 A 
HETATM    8  C7  UNK     1      29.329  -4.346  38.700  1.00  0.00     0.039 A 
HETATM    9  C8  UNK     1      30.671  -4.629  38.545  1.00  0.00     0.015 A 
HETATM   10  C9  UNK     1      30.760  -8.297  38.047  1.00  0.00     0.013 A 
HETATM   11  C10 UNK     1      26.356  -7.238  38.509  1.00  0.00     0.091 A 
HETATM   12  C11 UNK     1      32.486  -6.149  38.189  1.00  0.00     0.012 A 
HETATM   13  C12 UNK     1      26.012  -5.844  38.788  1.00  0.00     0.288 A 
HETATM   14  C13 UNK     1      32.140  -8.495  37.912  1.00  0.00     0.001 A 
HETATM   15  C14 UNK     1      33.004  -7.419  37.981  1.00  0.00     0.001 A 
ENDROOT
BRANCH   5  16
HETATM   16  C6  UNK     1      27.768  -9.140  38.009  1.00  0.00     0.149 C 
BRANCH  16  17
HETATM   17  C15 UNK     1      27.466  -9.960  39.233  1.00  0.00     0.143 C 
HETATM   18  O4  UNK     1      27.948  -9.828  40.348  1.00  0.00    -0.650 OA
BRANCH  17  19
HETATM   19  O3  UNK     1      26.550 -10.914  38.919  1.00  0.00    -0.776 OA
HETATM   20  H10 UNK     1      26.674 -11.728  39.452  1.00  0.00     0.167 HD
ENDBRANCH  17  19
ENDBRANCH  16  17
ENDBRANCH   5  16
TORSDOF 3
ENDMDL
MODEL 3
REMARK VINA RESULT:      -7.6      2.408      5.767
REMARK  3 active torsions:
REMARK  status: ('A' for Active; 'I' for Inactive)
REMARK    1  A    between atoms: C15_19  and  O3_3 
REMARK    2  A    between atoms: C3_7  and  C6_10 
REMARK    3  A    between atoms: C15_19  and  C6_10 
ROOT
HETATM    1  O1  UNK     1      18.530   0.580  33.489  1.00  0.00    -0.275 OA
HETATM    2  O2  UNK     1      18.909  -1.637  33.098  1.00  0.00    -0.260 OA
HETATM    3  C1  UNK     1      18.754   2.238  31.662  1.00  0.00     0.016 A 
HETATM    4  C2  UNK     1      18.707   3.641  31.311  1.00  0.00    -0.012 A 
HETATM    5  C3  UNK     1      19.046   1.079  30.768  1.00  0.00    -0.029 A 
HETATM    6  C4  UNK     1      18.488   1.905  33.004  1.00  0.00     0.091 A 
HETATM    7  C5  UNK     1      18.370   4.591  32.328  1.00  0.00    -0.025 A 
HETATM    8  C7  UNK     1      18.167   2.845  33.980  1.00  0.00     0.039 A 
HETATM    9  C8  UNK     1      18.105   4.180  33.635  1.00  0.00     0.015 A 
HETATM   10  C9  UNK     1      18.970   4.214  30.035  1.00  0.00     0.013 A 
HETATM   11  C10 UNK     1      19.083  -0.166  31.272  1.00  0.00     0.091 A 
HETATM   12  C11 UNK     1      18.298   5.968  32.055  1.00  0.00     0.012 A 
HETATM   13  C12 UNK     1      18.843  -0.488  32.679  1.00  0.00     0.288 A 
HETATM   14  C13 UNK     1      18.895   5.589  29.776  1.00  0.00     0.001 A 
HETATM   15  C14 UNK     1      18.556   6.467  30.787  1.00  0.00     0.001 A 
ENDROOT
BRANCH   5  16
HETATM   16  C6  UNK     1      19.286   1.212  29.293  1.00  0.00     0.149 C 
BRANCH  16  17
HETATM   17  C15 UNK     1      19.816  -0.082  28.738  1.00  0.00     0.143 C 
HETATM   18  O4  UNK     1      20.906  -0.588  28.957  1.00  0.00    -0.650 OA
BRANCH  17  19
HETATM   19  O3  UNK     1      18.883  -0.634  27.918  1.00  0.00    -0.776 OA
HETATM   20  H10 UNK     1      19.202  -0.699  26.993  1.00  0.00     0.167 HD
ENDBRANCH  17  19
ENDBRANCH  16  17
ENDBRANCH   5  16
TORSDOF 3
ENDMDL
MODEL 4
REMARK VINA RESULT:      -7.5      2.374      5.051
REMARK  3 active torsions:
REMARK  status: ('A' for Active; 'I' for Inactive)
REMARK    1  A    between atoms: C15_19  and  O3_3 
REMARK    2  A    between atoms: C3_7  and  C6_10 
REMARK    3  A    between atoms: C15_19  and  C6_10 
ROOT
HETATM    1  O1  UNK     1      18.817   0.514  31.458  1.00  0.00    -0.275 OA
HETATM    2  O2  UNK     1      18.660  -1.491  32.537  1.00  0.00    -0.260 OA
HETATM    3  C1  UNK     1      18.358   2.631  32.661  1.00  0.00     0.016 A 
HETATM    4  C2  UNK     1      18.246   4.070  32.545  1.00  0.00    -0.012 A 
HETATM    5  C3  UNK     1      18.159   1.792  33.878  1.00  0.00    -0.029 A 
HETATM    6  C4  UNK     1      18.704   1.922  31.494  1.00  0.00     0.091 A 
HETATM    7  C5  UNK     1      18.516   4.679  31.278  1.00  0.00    -0.025 A 
HETATM    8  C7  UNK     1      18.958   2.532  30.270  1.00  0.00     0.039 A 
HETATM    9  C8  UNK     1      18.868   3.906  30.170  1.00  0.00     0.015 A 
HETATM   10  C9  UNK     1      17.881   4.985  33.571  1.00  0.00     0.013 A 
HETATM   11  C10 UNK     1      18.269   0.455  33.798  1.00  0.00     0.091 A 
HETATM   12  C11 UNK     1      18.435   6.070  31.096  1.00  0.00     0.012 A 
HETATM   13  C12 UNK     1      18.590  -0.268  32.567  1.00  0.00     0.288 A 
HETATM   14  C13 UNK     1      17.802   6.371  33.378  1.00  0.00     0.001 A 
HETATM   15  C14 UNK     1      18.082   6.914  32.139  1.00  0.00     0.001 A 
ENDROOT
BRANCH   5  16
HETATM   16  C6  UNK     1      17.855   2.358  35.234  1.00  0.00     0.149 C 
BRANCH  16  17
HETATM   17  C15 UNK     1      18.927   1.962  36.211  1.00  0.00     0.143 C 
HETATM   18  O4  UNK     1      20.124   2.193  36.127  1.00  0.00    -0.650 OA
BRANCH  17  19
HETATM   19  O3  UNK     1      18.364   1.278  37.242  1.00  0.00    -0.776 OA
HETATM   20  H10 UNK     1      17.464   0.959  37.020  1.00  0.00     0.167 HD
ENDBRANCH  17  19
ENDBRANCH  16  17
ENDBRANCH   5  16
TORSDOF 3
ENDMDL
MODEL 5
REMARK VINA RESULT:      -7.4      5.798      9.620
REMARK  3 active torsions:
REMARK  status: ('A' for Active; 'I' for Inactive)
REMARK    1  A    between atoms: C15_19  and  O3_3 
REMARK    2  A    between atoms: C3_7  and  C6_10 
REMARK    3  A    between atoms: C15_19  and  C6_10 
ROOT
HETATM    1  O1  UNK     1      19.314   6.550  33.735  1.00  0.00    -0.275 OA
HETATM    2  O2  UNK     1      18.625   4.424  33.267  1.00  0.00    -0.260 OA
HETATM    3  C1  UNK     1      17.687   8.417  33.791  1.00  0.00     0.016 A 
HETATM    4  C2  UNK     1      17.513   9.845  33.955  1.00  0.00    -0.012 A 
HETATM    5  C3  UNK     1      16.637   7.392  33.521  1.00  0.00    -0.029 A 
HETATM    6  C4  UNK     1      18.998   7.916  33.903  1.00  0.00     0.091 A 
HETATM    7  C5  UNK     1      18.664  10.646  34.246  1.00  0.00    -0.025 A 
HETATM    8  C7  UNK     1      20.105   8.713  34.181  1.00  0.00     0.039 A 
HETATM    9  C8  UNK     1      19.931  10.070  34.356  1.00  0.00     0.015 A 
HETATM   10  C9  UNK     1      16.298  10.577  33.854  1.00  0.00     0.013 A 
HETATM   11  C10 UNK     1      16.982   6.103  33.361  1.00  0.00     0.091 A 
HETATM   12  C11 UNK     1      18.567  12.037  34.426  1.00  0.00     0.012 A 
HETATM   13  C12 UNK     1      18.356   5.607  33.441  1.00  0.00     0.288 A 
HETATM   14  C13 UNK     1      16.214  11.964  34.035  1.00  0.00     0.001 A 
HETATM   15  C14 UNK     1      17.350  12.695  34.324  1.00  0.00     0.001 A 
ENDROOT
BRANCH   5  16
HETATM   16  C6  UNK     1      15.173   7.709  33.436  1.00  0.00     0.149 C 
BRANCH  16  17
HETATM   17  C15 UNK     1      14.680   7.496  32.031  1.00  0.00     0.143 C 
HETATM   18  O4  UNK     1      13.818   6.712  31.662  1.00  0.00    -0.650 OA
BRANCH  17  19
HETATM   19  O3  UNK     1      15.353   8.323  31.189  1.00  0.00    -0.776 OA
HETATM   20  H10 UNK     1      15.622   9.156  31.632  1.00  0.00     0.167 HD
ENDBRANCH  17  19
ENDBRANCH  16  17
ENDBRANCH   5  16
TORSDOF 3
ENDMDL
MODEL 6
REMARK VINA RESULT:      -7.4      2.019      2.934
REMARK  3 active torsions:
REMARK  status: ('A' for Active; 'I' for Inactive)
REMARK    1  A    between atoms: C15_19  and  O3_3 
REMARK    2  A    between atoms: C3_7  and  C6_10 
REMARK    3  A    between atoms: C15_19  and  C6_10 
ROOT
HETATM    1  O1  UNK     1      17.944   2.033  34.146  1.00  0.00    -0.275 OA
HETATM    2  O2  UNK     1      17.586   1.712  36.377  1.00  0.00    -0.260 OA
HETATM    3  C1  UNK     1      18.910   0.227  32.752  1.00  0.00     0.016 A 
HETATM    4  C2  UNK     1      19.379  -0.141  31.433  1.00  0.00    -0.012 A 
HETATM    5  C3  UNK     1      18.884  -0.614  33.983  1.00  0.00    -0.029 A 
HETATM    6  C4  UNK     1      18.406   1.533  32.908  1.00  0.00     0.091 A 
HETATM    7  C5  UNK     1      19.279   0.820  30.376  1.00  0.00    -0.025 A 
HETATM    8  C7  UNK     1      18.321   2.455  31.869  1.00  0.00     0.039 A 
HETATM    9  C8  UNK     1      18.752   2.092  30.610  1.00  0.00     0.015 A 
HETATM   10  C9  UNK     1      19.955  -1.383  31.045  1.00  0.00     0.013 A 
HETATM   11  C10 UNK     1      18.443  -0.096  35.142  1.00  0.00     0.091 A 
HETATM   12  C11 UNK     1      19.708   0.526  29.070  1.00  0.00     0.012 A 
HETATM   13  C12 UNK     1      17.960   1.276  35.295  1.00  0.00     0.288 A 
HETATM   14  C13 UNK     1      20.380  -1.664  29.740  1.00  0.00     0.001 A 
HETATM   15  C14 UNK     1      20.254  -0.708  28.750  1.00  0.00     0.001 A 
ENDROOT
BRANCH   5  16
HETATM   16  C6  UNK     1      19.311  -2.053  34.012  1.00  0.00     0.149 C 
BRANCH  16  17
HETATM   17  C15 UNK     1      20.170  -2.312  35.219  1.00  0.00     0.143 C 
HETATM   18  O4  UNK     1      21.309  -1.915  35.413  1.00  0.00    -0.650 OA
BRANCH  17  19
HETATM   19  O3  UNK     1      19.484  -3.086  36.101  1.00  0.00    -0.776 OA
HETATM   20  H10 UNK     1      19.999  -3.875  36.372  1.00  0.00     0.167 HD
ENDBRANCH  17  19
ENDBRANCH  16  17
ENDBRANCH   5  16
TORSDOF 3
ENDMDL
MODEL 7
REMARK VINA RESULT:      -7.4      7.879     10.277
REMARK  3 active torsions:
REMARK  status: ('A' for Active; 'I' for Inactive)
REMARK    1  A    between atoms: C15_19  and  O3_3 
REMARK    2  A    between atoms: C3_7  and  C6_10 
REMARK    3  A    between atoms: C15_19  and  C6_10 
ROOT
HETATM    1  O1  UNK     1      20.583  -4.537  37.954  1.00  0.00    -0.275 OA
HETATM    2  O2  UNK     1      20.522  -2.756  36.528  1.00  0.00    -0.260 OA
HETATM    3  C1  UNK     1      19.995  -6.809  37.157  1.00  0.00     0.016 A 
HETATM    4  C2  UNK     1      19.806  -8.194  37.533  1.00  0.00    -0.012 A 
HETATM    5  C3  UNK     1      19.827  -6.195  35.808  1.00  0.00    -0.029 A 
HETATM    6  C4  UNK     1      20.393  -5.919  38.174  1.00  0.00     0.091 A 
HETATM    7  C5  UNK     1      20.058  -8.577  38.889  1.00  0.00    -0.025 A 
HETATM    8  C7  UNK     1      20.628  -6.311  39.489  1.00  0.00     0.039 A 
HETATM    9  C8  UNK     1      20.465  -7.636  39.837  1.00  0.00     0.015 A 
HETATM   10  C9  UNK     1      19.379  -9.259  36.691  1.00  0.00     0.013 A 
HETATM   11  C10 UNK     1      20.011  -4.874  35.643  1.00  0.00     0.091 A 
HETATM   12  C11 UNK     1      19.903  -9.906  39.321  1.00  0.00     0.012 A 
HETATM   13  C12 UNK     1      20.386  -3.958  36.721  1.00  0.00     0.288 A 
HETATM   14  C13 UNK     1      19.228 -10.579  37.133  1.00  0.00     0.001 A 
HETATM   15  C14 UNK     1      19.492 -10.904  38.450  1.00  0.00     0.001 A 
ENDROOT
BRANCH   5  16
HETATM   16  C6  UNK     1      19.477  -6.980  34.578  1.00  0.00     0.149 C 
BRANCH  16  17
HETATM   17  C15 UNK     1      20.711  -7.233  33.758  1.00  0.00     0.143 C 
HETATM   18  O4  UNK     1      21.134  -6.555  32.833  1.00  0.00    -0.650 OA
BRANCH  17  19
HETATM   19  O3  UNK     1      21.318  -8.368  34.195  1.00  0.00    -0.776 OA
HETATM   20  H10 UNK     1      21.483  -8.999  33.463  1.00  0.00     0.167 HD
ENDBRANCH  17  19
ENDBRANCH  16  17
ENDBRANCH   5  16
TORSDOF 3
ENDMDL
MODEL 8
REMARK VINA RESULT:      -7.3      6.359      8.883
REMARK  3 active torsions:
REMARK  status: ('A' for Active; 'I' for Inactive)
REMARK    1  A    between atoms: C15_19  and  O3_3 
REMARK    2  A    between atoms: C3_7  and  C6_10 
REMARK    3  A    between atoms: C15_19  and  C6_10 
ROOT
HETATM    1  O1  UNK     1      16.040  11.412  34.299  1.00  0.00    -0.275 OA
HETATM    2  O2  UNK     1      13.897  12.175  34.496  1.00  0.00    -0.260 OA
HETATM    3  C1  UNK     1      16.493   8.994  34.004  1.00  0.00     0.016 A 
HETATM    4  C2  UNK     1      17.517   7.977  33.884  1.00  0.00    -0.012 A 
HETATM    5  C3  UNK     1      15.013   8.809  33.991  1.00  0.00    -0.029 A 
HETATM    6  C4  UNK     1      16.929  10.326  34.142  1.00  0.00     0.091 A 
HETATM    7  C5  UNK     1      18.890   8.383  33.885  1.00  0.00    -0.025 A 
HETATM    8  C7  UNK     1      18.270  10.700  34.146  1.00  0.00     0.039 A 
HETATM    9  C8  UNK     1      19.241   9.729  34.012  1.00  0.00     0.015 A 
HETATM   10  C9  UNK     1      17.319   6.573  33.768  1.00  0.00     0.013 A 
HETATM   11  C10 UNK     1      14.202   9.869  34.151  1.00  0.00     0.091 A 
HETATM   12  C11 UNK     1      19.935   7.451  33.764  1.00  0.00     0.012 A 
HETATM   13  C12 UNK     1      14.674  11.242  34.333  1.00  0.00     0.288 A 
HETATM   14  C13 UNK     1      18.369   5.653  33.649  1.00  0.00     0.001 A 
HETATM   15  C14 UNK     1      19.678   6.092  33.644  1.00  0.00     0.001 A 
ENDROOT
BRANCH   5  16
HETATM   16  C6  UNK     1      14.346   7.481  33.785  1.00  0.00     0.149 C 
BRANCH  16  17
HETATM   17  C15 UNK     1      13.979   7.307  32.337  1.00  0.00     0.143 C 
HETATM   18  O4  UNK     1      14.723   7.000  31.418  1.00  0.00    -0.650 OA
BRANCH  17  19
HETATM   19  O3  UNK     1      12.652   7.555  32.177  1.00  0.00    -0.776 OA
HETATM   20  H10 UNK     1      12.237   6.929  31.547  1.00  0.00     0.167 HD
ENDBRANCH  17  19
ENDBRANCH  16  17
ENDBRANCH   5  16
TORSDOF 3
ENDMDL
MODEL 9
REMARK VINA RESULT:      -7.2     13.307     15.600
REMARK  3 active torsions:
REMARK  status: ('A' for Active; 'I' for Inactive)
REMARK    1  A    between atoms: C15_19  and  O3_3 
REMARK    2  A    between atoms: C3_7  and  C6_10 
REMARK    3  A    between atoms: C15_19  and  C6_10 
ROOT
HETATM    1  O1  UNK     1      29.076 -10.133  38.712  1.00  0.00    -0.275 OA
HETATM    2  O2  UNK     1      27.022 -10.618  39.583  1.00  0.00    -0.260 OA
HETATM    3  C1  UNK     1      29.807  -7.781  38.443  1.00  0.00     0.016 A 
HETATM    4  C2  UNK     1      30.852  -6.904  37.960  1.00  0.00    -0.012 A 
HETATM    5  C3  UNK     1      28.513  -7.400  39.080  1.00  0.00    -0.029 A 
HETATM    6  C4  UNK     1      30.024  -9.167  38.311  1.00  0.00     0.091 A 
HETATM    7  C5  UNK     1      32.038  -7.488  37.410  1.00  0.00    -0.025 A 
HETATM    8  C7  UNK     1      31.183  -9.715  37.768  1.00  0.00     0.039 A 
HETATM    9  C8  UNK     1      32.184  -8.874  37.327  1.00  0.00     0.015 A 
HETATM   10  C9  UNK     1      30.843  -5.481  37.957  1.00  0.00     0.013 A 
HETATM   11  C10 UNK     1      27.635  -8.352  39.440  1.00  0.00     0.091 A 
HETATM   12  C11 UNK     1      33.096  -6.697  36.930  1.00  0.00     0.012 A 
HETATM   13  C12 UNK     1      27.861  -9.786  39.258  1.00  0.00     0.288 A 
HETATM   14  C13 UNK     1      31.903  -4.702  37.476  1.00  0.00     0.001 A 
HETATM   15  C14 UNK     1      33.032  -5.311  36.963  1.00  0.00     0.001 A 
ENDROOT
BRANCH   5  16
HETATM   16  C6  UNK     1      28.121  -5.982  39.375  1.00  0.00     0.149 C 
BRANCH  16  17
HETATM   17  C15 UNK     1      26.968  -5.573  38.501  1.00  0.00     0.143 C 
HETATM   18  O4  UNK     1      25.926  -5.041  38.855  1.00  0.00    -0.650 OA
BRANCH  17  19
HETATM   19  O3  UNK     1      27.246  -5.893  37.210  1.00  0.00    -0.776 OA
HETATM   20  H10 UNK     1      26.516  -5.641  36.606  1.00  0.00     0.167 HD
ENDBRANCH  17  19
ENDBRANCH  16  17
ENDBRANCH   5  16
TORSDOF 3
ENDMDL
MODEL 10
REMARK VINA RESULT:      -7.2      5.853      7.903
REMARK  3 active torsions:
REMARK  status: ('A' for Active; 'I' for Inactive)
REMARK    1  A    between atoms: C15_19  and  O3_3 
REMARK    2  A    between atoms: C3_7  and  C6_10 
REMARK    3  A    between atoms: C15_19  and  C6_10 
ROOT
HETATM    1  O1  UNK     1      17.380   9.697  34.998  1.00  0.00    -0.275 OA
HETATM    2  O2  UNK     1      15.467  10.837  35.499  1.00  0.00    -0.260 OA
HETATM    3  C1  UNK     1      17.483   8.221  33.011  1.00  0.00     0.016 A 
HETATM    4  C2  UNK     1      18.294   7.286  32.259  1.00  0.00    -0.012 A 
HETATM    5  C3  UNK     1      16.089   8.666  32.719  1.00  0.00    -0.029 A 
HETATM    6  C4  UNK     1      18.067   8.795  34.157  1.00  0.00     0.091 A 
HETATM    7  C5  UNK     1      19.630   7.027  32.702  1.00  0.00    -0.025 A 
HETATM    8  C7  UNK     1      19.368   8.525  34.574  1.00  0.00     0.039 A 
HETATM    9  C8  UNK     1      20.142   7.648  33.843  1.00  0.00     0.015 A 
HETATM   10  C9  UNK     1      17.909   6.563  31.095  1.00  0.00     0.013 A 
HETATM   11  C10 UNK     1      15.469   9.521  33.550  1.00  0.00     0.091 A 
HETATM   12  C11 UNK     1      20.475   6.138  32.015  1.00  0.00     0.012 A 
HETATM   13  C12 UNK     1      16.079  10.076  34.759  1.00  0.00     0.288 A 
HETATM   14  C13 UNK     1      18.760   5.679  30.420  1.00  0.00     0.001 A 
HETATM   15  C14 UNK     1      20.046   5.468  30.879  1.00  0.00     0.001 A 
ENDROOT
BRANCH   5  16
HETATM   16  C6  UNK     1      15.316   8.228  31.510  1.00  0.00     0.149 C 
BRANCH  16  17
HETATM   17  C15 UNK     1      14.248   7.247  31.909  1.00  0.00     0.143 C 
HETATM   18  O4  UNK     1      14.357   6.034  32.003  1.00  0.00    -0.650 OA
BRANCH  17  19
HETATM   19  O3  UNK     1      13.092   7.918  32.155  1.00  0.00    -0.776 OA
HETATM   20  H10 UNK     1      13.239   8.702  32.726  1.00  0.00     0.167 HD
ENDBRANCH  17  19
ENDBRANCH  16  17
ENDBRANCH   5  16
TORSDOF 3
ENDMDL
