MODEL 1
REMARK VINA RESULT:      -8.6      0.000      0.000
REMARK  2 active torsions:
REMARK  status: ('A' for Active; 'I' for Inactive)
REMARK    1  A    between atoms: C7_13  and  O2_3 
REMARK    2  A    between atoms: C9_15  and  O4_5 
ROOT
HETATM    1  S1  UNK     1       9.935   6.373   7.219  1.00  0.00    -0.079 SA
HETATM    2  O1  UNK     1      14.075   4.901   8.981  1.00  0.00    -0.318 OA
HETATM    3  O3  UNK     1      11.819   8.170   9.931  1.00  0.00    -0.286 OA
HETATM    4  N1  UNK     1       9.569   5.428   9.598  1.00  0.00    -0.245 NA
HETATM    5  C1  UNK     1      13.951   7.170   9.839  1.00  0.00     0.052 A 
HETATM    6  C2  UNK     1      14.668   6.022   9.504  1.00  0.00     0.125 A 
HETATM    7  C3  UNK     1      11.894   5.961   9.043  1.00  0.00     0.073 A 
HETATM    8  C4  UNK     1      12.491   7.192   9.628  1.00  0.00     0.200 A 
HETATM    9  C5  UNK     1      10.496   5.870   8.767  1.00  0.00     0.114 A 
HETATM   10  C6  UNK     1      14.610   8.282  10.370  1.00  0.00     0.021 A 
HETATM   11  C7  UNK     1      16.049   5.979   9.699  1.00  0.00     0.134 A 
HETATM   12  C8  UNK     1      12.716   4.938   8.773  1.00  0.00     0.161 A 
HETATM   13  C9  UNK     1      16.709   7.087  10.229  1.00  0.00     0.101 A 
HETATM   14  C10 UNK     1      15.991   8.236  10.562  1.00  0.00     0.040 A 
HETATM   15  C11 UNK     1       8.336   5.489   8.978  1.00  0.00     0.038 A 
HETATM   16  C12 UNK     1       8.333   5.973   7.687  1.00  0.00     0.078 A 
HETATM   17  C13 UNK     1       7.149   5.041   9.733  1.00  0.00     0.071 C 
ENDROOT
BRANCH  11  18
HETATM   18  O2  UNK     1      16.755   4.858   9.375  1.00  0.00    -0.356 OA
HETATM   19  H8  UNK     1      16.184   4.084   9.517  1.00  0.00     0.218 HD
ENDBRANCH  11  18
BRANCH  13  20
HETATM   20  O4  UNK     1      18.058   7.062  10.426  1.00  0.00    -0.358 OA
HETATM   21  H9  UNK     1      18.238   6.985  11.378  1.00  0.00     0.217 HD
ENDBRANCH  13  20
TORSDOF 2
ENDMDL
MODEL 2
REMARK VINA RESULT:      -7.9     24.411     25.491
REMARK  2 active torsions:
REMARK  status: ('A' for Active; 'I' for Inactive)
REMARK    1  A    between atoms: C7_13  and  O2_3 
REMARK    2  A    between atoms: C9_15  and  O4_5 
ROOT
HETATM    1  S1  UNK     1      15.904   0.051  35.401  1.00  0.00    -0.079 SA
HETATM    2  O1  UNK     1      19.345  -1.663  32.638  1.00  0.00    -0.318 OA
HETATM    3  O3  UNK     1      17.925   2.146  33.020  1.00  0.00    -0.286 OA
HETATM    4  N1  UNK     1      18.200   0.814  36.314  1.00  0.00    -0.245 NA
HETATM    5  C1  UNK     1      18.977   0.532  31.665  1.00  0.00     0.052 A 
HETATM    6  C2  UNK     1      19.452  -0.778  31.596  1.00  0.00     0.125 A 
HETATM    7  C3  UNK     1      18.224  -0.002  34.004  1.00  0.00     0.073 A 
HETATM    8  C4  UNK     1      18.333   0.998  32.907  1.00  0.00     0.200 A 
HETATM    9  C5  UNK     1      17.598   0.321  35.246  1.00  0.00     0.114 A 
HETATM   10  C6  UNK     1      19.115   1.389  30.570  1.00  0.00     0.021 A 
HETATM   11  C7  UNK     1      20.067  -1.237  30.430  1.00  0.00     0.134 A 
HETATM   12  C8  UNK     1      18.729  -1.224  33.786  1.00  0.00     0.161 A 
HETATM   13  C9  UNK     1      20.206  -0.383  29.336  1.00  0.00     0.101 A 
HETATM   14  C10 UNK     1      19.729   0.927  29.406  1.00  0.00     0.040 A 
HETATM   15  C11 UNK     1      17.269   0.994  37.319  1.00  0.00     0.038 A 
HETATM   16  C12 UNK     1      15.973   0.637  37.012  1.00  0.00     0.078 A 
HETATM   17  C13 UNK     1      17.729   1.543  38.610  1.00  0.00     0.071 C 
ENDROOT
BRANCH  11  18
HETATM   18  O2  UNK     1      20.534  -2.516  30.357  1.00  0.00    -0.356 OA
HETATM   19  H8  UNK     1      19.981  -3.009  29.728  1.00  0.00     0.218 HD
ENDBRANCH  11  18
BRANCH  13  20
HETATM   20  O4  UNK     1      20.805  -0.816  28.191  1.00  0.00    -0.358 OA
HETATM   21  H9  UNK     1      21.249  -0.064  27.763  1.00  0.00     0.217 HD
ENDBRANCH  13  20
TORSDOF 2
ENDMDL
MODEL 3
REMARK VINA RESULT:      -7.6     22.511     23.776
REMARK  2 active torsions:
REMARK  status: ('A' for Active; 'I' for Inactive)
REMARK    1  A    between atoms: C7_13  and  O2_3 
REMARK    2  A    between atoms: C9_15  and  O4_5 
ROOT
HETATM    1  S1  UNK     1      19.201   5.918  32.963  1.00  0.00    -0.079 SA
HETATM    2  O1  UNK     1      19.178   2.298  29.912  1.00  0.00    -0.318 OA
HETATM    3  O3  UNK     1      17.902   2.488  33.786  1.00  0.00    -0.286 OA
HETATM    4  N1  UNK     1      16.777   5.465  32.185  1.00  0.00    -0.245 NA
HETATM    5  C1  UNK     1      18.737   1.172  32.019  1.00  0.00     0.052 A 
HETATM    6  C2  UNK     1      19.154   1.168  30.688  1.00  0.00     0.125 A 
HETATM    7  C3  UNK     1      18.359   3.645  31.756  1.00  0.00     0.073 A 
HETATM    8  C4  UNK     1      18.299   2.442  32.629  1.00  0.00     0.200 A 
HETATM    9  C5  UNK     1      17.986   4.935  32.239  1.00  0.00     0.114 A 
HETATM   10  C6  UNK     1      18.733  -0.012  32.759  1.00  0.00     0.021 A 
HETATM   11  C7  UNK     1      19.569  -0.023  30.090  1.00  0.00     0.134 A 
HETATM   12  C8  UNK     1      18.784   3.479  30.495  1.00  0.00     0.161 A 
HETATM   13  C9  UNK     1      19.566  -1.207  30.827  1.00  0.00     0.101 A 
HETATM   14  C10 UNK     1      19.150  -1.201  32.160  1.00  0.00     0.040 A 
HETATM   15  C11 UNK     1      16.806   6.725  32.751  1.00  0.00     0.038 A 
HETATM   16  C12 UNK     1      18.031   7.144  33.227  1.00  0.00     0.078 A 
HETATM   17  C13 UNK     1      15.551   7.502  32.797  1.00  0.00     0.071 C 
ENDROOT
BRANCH  11  18
HETATM   18  O2  UNK     1      19.976  -0.035  28.789  1.00  0.00    -0.356 OA
HETATM   19  H8  UNK     1      19.924  -0.948  28.459  1.00  0.00     0.218 HD
ENDBRANCH  11  18
BRANCH  13  20
HETATM   20  O4  UNK     1      19.968  -2.379  30.259  1.00  0.00    -0.358 OA
HETATM   21  H9  UNK     1      19.197  -2.963  30.159  1.00  0.00     0.217 HD
ENDBRANCH  13  20
TORSDOF 2
ENDMDL
MODEL 4
REMARK VINA RESULT:      -7.5     22.566     24.022
REMARK  2 active torsions:
REMARK  status: ('A' for Active; 'I' for Inactive)
REMARK    1  A    between atoms: C7_13  and  O2_3 
REMARK    2  A    between atoms: C9_15  and  O4_5 
ROOT
HETATM    1  S1  UNK     1      16.302   8.078  33.022  1.00  0.00    -0.079 SA
HETATM    2  O1  UNK     1      18.061   3.704  33.453  1.00  0.00    -0.318 OA
HETATM    3  O3  UNK     1      18.501   6.437  30.451  1.00  0.00    -0.286 OA
HETATM    4  N1  UNK     1      18.835   8.216  33.520  1.00  0.00    -0.245 NA
HETATM    5  C1  UNK     1      18.474   4.174  31.106  1.00  0.00     0.052 A 
HETATM    6  C2  UNK     1      18.322   3.288  32.172  1.00  0.00     0.125 A 
HETATM    7  C3  UNK     1      18.049   6.027  32.753  1.00  0.00     0.073 A 
HETATM    8  C4  UNK     1      18.351   5.623  31.353  1.00  0.00     0.200 A 
HETATM    9  C5  UNK     1      17.881   7.398  33.113  1.00  0.00     0.114 A 
HETATM   10  C6  UNK     1      18.741   3.692  29.822  1.00  0.00     0.021 A 
HETATM   11  C7  UNK     1      18.438   1.914  31.960  1.00  0.00     0.134 A 
HETATM   12  C8  UNK     1      17.932   5.056  33.670  1.00  0.00     0.161 A 
HETATM   13  C9  UNK     1      18.705   1.429  30.680  1.00  0.00     0.101 A 
HETATM   14  C10 UNK     1      18.854   2.317  29.613  1.00  0.00     0.040 A 
HETATM   15  C11 UNK     1      18.291   9.460  33.776  1.00  0.00     0.038 A 
HETATM   16  C12 UNK     1      16.934   9.579  33.564  1.00  0.00     0.078 A 
HETATM   17  C13 UNK     1      19.188  10.535  34.244  1.00  0.00     0.071 C 
ENDROOT
BRANCH  11  18
HETATM   18  O2  UNK     1      18.293   1.043  32.999  1.00  0.00    -0.356 OA
HETATM   19  H8  UNK     1      17.682   0.338  32.725  1.00  0.00     0.218 HD
ENDBRANCH  11  18
BRANCH  13  20
HETATM   20  O4  UNK     1      18.821   0.090  30.455  1.00  0.00    -0.358 OA
HETATM   21  H9  UNK     1      19.684  -0.088  30.044  1.00  0.00     0.217 HD
ENDBRANCH  13  20
TORSDOF 2
ENDMDL
MODEL 5
REMARK VINA RESULT:      -7.4     27.791     28.984
REMARK  2 active torsions:
REMARK  status: ('A' for Active; 'I' for Inactive)
REMARK    1  A    between atoms: C7_13  and  O2_3 
REMARK    2  A    between atoms: C9_15  and  O4_5 
ROOT
HETATM    1  S1  UNK     1      19.197  -5.634  36.749  1.00  0.00    -0.079 SA
HETATM    2  O1  UNK     1      19.765  -1.907  33.885  1.00  0.00    -0.318 OA
HETATM    3  O3  UNK     1      18.713  -2.065  37.827  1.00  0.00    -0.286 OA
HETATM    4  N1  UNK     1      21.374  -4.391  37.378  1.00  0.00    -0.245 NA
HETATM    5  C1  UNK     1      18.619  -0.906  35.778  1.00  0.00     0.052 A 
HETATM    6  C2  UNK     1      19.015  -0.902  34.441  1.00  0.00     0.125 A 
HETATM    7  C3  UNK     1      19.814  -3.108  35.992  1.00  0.00     0.073 A 
HETATM    8  C4  UNK     1      19.018  -2.033  36.642  1.00  0.00     0.200 A 
HETATM    9  C5  UNK     1      20.238  -4.263  36.716  1.00  0.00     0.114 A 
HETATM   10  C6  UNK     1      17.856   0.147  36.289  1.00  0.00     0.021 A 
HETATM   11  C7  UNK     1      18.651   0.156  33.607  1.00  0.00     0.134 A 
HETATM   12  C8  UNK     1      20.117  -2.961  34.694  1.00  0.00     0.161 A 
HETATM   13  C9  UNK     1      17.890   1.209  34.115  1.00  0.00     0.101 A 
HETATM   14  C10 UNK     1      17.493   1.204  35.453  1.00  0.00     0.040 A 
HETATM   15  C11 UNK     1      21.430  -5.647  37.950  1.00  0.00     0.038 A 
HETATM   16  C12 UNK     1      20.343  -6.463  37.719  1.00  0.00     0.078 A 
HETATM   17  C13 UNK     1      22.623  -6.004  38.743  1.00  0.00     0.071 C 
ENDROOT
BRANCH  11  18
HETATM   18  O2  UNK     1      19.037   0.166  32.299  1.00  0.00    -0.356 OA
HETATM   19  H8  UNK     1      18.243   0.083  31.745  1.00  0.00     0.218 HD
ENDBRANCH  11  18
BRANCH  13  20
HETATM   20  O4  UNK     1      17.526   2.251  33.314  1.00  0.00    -0.358 OA
HETATM   21  H9  UNK     1      16.948   2.850  33.817  1.00  0.00     0.217 HD
ENDBRANCH  13  20
TORSDOF 2
ENDMDL
MODEL 6
REMARK VINA RESULT:      -7.2      3.176      6.909
REMARK  2 active torsions:
REMARK  status: ('A' for Active; 'I' for Inactive)
REMARK    1  A    between atoms: C7_13  and  O2_3 
REMARK    2  A    between atoms: C9_15  and  O4_5 
ROOT
HETATM    1  S1  UNK     1      15.238   9.801   8.816  1.00  0.00    -0.079 SA
HETATM    2  O1  UNK     1      10.927   8.048   9.682  1.00  0.00    -0.318 OA
HETATM    3  O3  UNK     1      13.652   7.045   6.811  1.00  0.00    -0.286 OA
HETATM    4  N1  UNK     1      15.462   7.444   9.854  1.00  0.00    -0.245 NA
HETATM    5  C1  UNK     1      11.394   7.146   7.476  1.00  0.00     0.052 A 
HETATM    6  C2  UNK     1      10.511   7.500   8.496  1.00  0.00     0.125 A 
HETATM    7  C3  UNK     1      13.243   7.977   8.964  1.00  0.00     0.073 A 
HETATM    8  C4  UNK     1      12.840   7.363   7.670  1.00  0.00     0.200 A 
HETATM    9  C5  UNK     1      14.610   8.261   9.260  1.00  0.00     0.114 A 
HETATM   10  C6  UNK     1      10.911   6.590   6.289  1.00  0.00     0.021 A 
HETATM   11  C7  UNK     1       9.140   7.299   8.334  1.00  0.00     0.134 A 
HETATM   12  C8  UNK     1      12.275   8.262   9.847  1.00  0.00     0.161 A 
HETATM   13  C9  UNK     1       8.655   6.744   7.149  1.00  0.00     0.101 A 
HETATM   14  C10 UNK     1       9.539   6.391   6.129  1.00  0.00     0.040 A 
HETATM   15  C11 UNK     1      16.689   8.069   9.967  1.00  0.00     0.038 A 
HETATM   16  C12 UNK     1      16.762   9.350   9.462  1.00  0.00     0.078 A 
HETATM   17  C13 UNK     1      17.796   7.329  10.605  1.00  0.00     0.071 C 
ENDROOT
BRANCH  11  18
HETATM   18  O2  UNK     1       8.271   7.642   9.328  1.00  0.00    -0.356 OA
HETATM   19  H8  UNK     1       8.412   7.039  10.078  1.00  0.00     0.218 HD
ENDBRANCH  11  18
BRANCH  13  20
HETATM   20  O4  UNK     1       7.318   6.540   6.975  1.00  0.00    -0.358 OA
HETATM   21  H9  UNK     1       6.991   5.960   7.683  1.00  0.00     0.217 HD
ENDBRANCH  13  20
TORSDOF 2
ENDMDL
MODEL 7
REMARK VINA RESULT:      -7.1     32.041     33.877
REMARK  2 active torsions:
REMARK  status: ('A' for Active; 'I' for Inactive)
REMARK    1  A    between atoms: C7_13  and  O2_3 
REMARK    2  A    between atoms: C9_15  and  O4_5 
ROOT
HETATM    1  S1  UNK     1      29.781  -9.683  33.834  1.00  0.00    -0.079 SA
HETATM    2  O1  UNK     1      27.828  -6.918  37.143  1.00  0.00    -0.318 OA
HETATM    3  O3  UNK     1      30.832  -6.133  34.491  1.00  0.00    -0.286 OA
HETATM    4  N1  UNK     1      28.306  -7.891  32.695  1.00  0.00    -0.245 NA
HETATM    5  C1  UNK     1      29.830  -5.666  36.571  1.00  0.00     0.052 A 
HETATM    6  C2  UNK     1      28.777  -5.971  37.434  1.00  0.00     0.125 A 
HETATM    7  C3  UNK     1      28.898  -7.417  35.024  1.00  0.00     0.073 A 
HETATM    8  C4  UNK     1      29.938  -6.386  35.288  1.00  0.00     0.200 A 
HETATM    9  C5  UNK     1      28.910  -8.197  33.830  1.00  0.00     0.114 A 
HETATM   10  C6  UNK     1      30.766  -4.690  36.921  1.00  0.00     0.021 A 
HETATM   11  C7  UNK     1      28.654  -5.300  38.651  1.00  0.00     0.134 A 
HETATM   12  C8  UNK     1      27.948  -7.595  35.953  1.00  0.00     0.161 A 
HETATM   13  C9  UNK     1      29.587  -4.324  39.002  1.00  0.00     0.101 A 
HETATM   14  C10 UNK     1      30.641  -4.021  38.139  1.00  0.00     0.040 A 
HETATM   15  C11 UNK     1      28.544  -8.887  31.768  1.00  0.00     0.038 A 
HETATM   16  C12 UNK     1      29.322  -9.940  32.201  1.00  0.00     0.078 A 
HETATM   17  C13 UNK     1      27.958  -8.745  30.420  1.00  0.00     0.071 C 
ENDROOT
BRANCH  11  18
HETATM   18  O2  UNK     1      27.626  -5.592  39.498  1.00  0.00    -0.356 OA
HETATM   19  H8  UNK     1      26.793  -5.536  38.999  1.00  0.00     0.218 HD
ENDBRANCH  11  18
BRANCH  13  20
HETATM   20  O4  UNK     1      29.482  -3.658  40.187  1.00  0.00    -0.358 OA
HETATM   21  H9  UNK     1      28.639  -3.896  40.610  1.00  0.00     0.217 HD
ENDBRANCH  13  20
TORSDOF 2
ENDMDL
MODEL 8
REMARK VINA RESULT:      -7.0      3.266      6.720
REMARK  2 active torsions:
REMARK  status: ('A' for Active; 'I' for Inactive)
REMARK    1  A    between atoms: C7_13  and  O2_3 
REMARK    2  A    between atoms: C9_15  and  O4_5 
ROOT
HETATM    1  S1  UNK     1      15.426   6.406   9.996  1.00  0.00    -0.079 SA
HETATM    2  O1  UNK     1      12.149   6.803   6.603  1.00  0.00    -0.318 OA
HETATM    3  O3  UNK     1      12.123   8.141  10.461  1.00  0.00    -0.286 OA
HETATM    4  N1  UNK     1      15.358   8.848   9.148  1.00  0.00    -0.245 NA
HETATM    5  C1  UNK     1      10.889   7.432   8.583  1.00  0.00     0.052 A 
HETATM    6  C2  UNK     1      10.960   6.987   7.263  1.00  0.00     0.125 A 
HETATM    7  C3  UNK     1      13.404   7.494   8.560  1.00  0.00     0.073 A 
HETATM    8  C4  UNK     1      12.139   7.724   9.310  1.00  0.00     0.200 A 
HETATM    9  C5  UNK     1      14.678   7.716   9.164  1.00  0.00     0.114 A 
HETATM   10  C6  UNK     1       9.649   7.601   9.203  1.00  0.00     0.021 A 
HETATM   11  C7  UNK     1       9.790   6.708   6.556  1.00  0.00     0.134 A 
HETATM   12  C8  UNK     1      13.308   7.062   7.295  1.00  0.00     0.161 A 
HETATM   13  C9  UNK     1       8.550   6.876   7.173  1.00  0.00     0.101 A 
HETATM   14  C10 UNK     1       8.481   7.321   8.494  1.00  0.00     0.040 A 
HETATM   15  C11 UNK     1      16.544   8.677   9.835  1.00  0.00     0.038 A 
HETATM   16  C12 UNK     1      16.758   7.422  10.366  1.00  0.00     0.078 A 
HETATM   17  C13 UNK     1      17.465   9.827   9.943  1.00  0.00     0.071 C 
ENDROOT
BRANCH  11  18
HETATM   18  O2  UNK     1       9.852   6.273   5.265  1.00  0.00    -0.356 OA
HETATM   19  H8  UNK     1      10.785   6.117   5.039  1.00  0.00     0.218 HD
ENDBRANCH  11  18
BRANCH  13  20
HETATM   20  O4  UNK     1       7.397   6.609   6.496  1.00  0.00    -0.358 OA
HETATM   21  H9  UNK     1       7.219   7.335   5.874  1.00  0.00     0.217 HD
ENDBRANCH  13  20
TORSDOF 2
ENDMDL
MODEL 9
REMARK VINA RESULT:      -7.0     23.898     25.085
REMARK  2 active torsions:
REMARK  status: ('A' for Active; 'I' for Inactive)
REMARK    1  A    between atoms: C7_13  and  O2_3 
REMARK    2  A    between atoms: C9_15  and  O4_5 
ROOT
HETATM    1  S1  UNK     1      16.505  -0.175  34.937  1.00  0.00    -0.079 SA
HETATM    2  O1  UNK     1      18.504   1.901  31.181  1.00  0.00    -0.318 OA
HETATM    3  O3  UNK     1      18.248   3.154  35.059  1.00  0.00    -0.286 OA
HETATM    4  N1  UNK     1      19.078  -0.310  35.149  1.00  0.00    -0.245 NA
HETATM    5  C1  UNK     1      18.445   3.727  32.782  1.00  0.00     0.052 A 
HETATM    6  C2  UNK     1      18.537   3.240  31.479  1.00  0.00     0.125 A 
HETATM    7  C3  UNK     1      18.258   1.332  33.526  1.00  0.00     0.073 A 
HETATM    8  C4  UNK     1      18.308   2.772  33.898  1.00  0.00     0.200 A 
HETATM    9  C5  UNK     1      18.102   0.313  34.514  1.00  0.00     0.114 A 
HETATM   10  C6  UNK     1      18.486   5.102  33.024  1.00  0.00     0.021 A 
HETATM   11  C7  UNK     1      18.671   4.126  30.410  1.00  0.00     0.134 A 
HETATM   12  C8  UNK     1      18.359   1.020  32.227  1.00  0.00     0.161 A 
HETATM   13  C9  UNK     1      18.712   5.500  30.648  1.00  0.00     0.101 A 
HETATM   14  C10 UNK     1      18.618   5.986  31.953  1.00  0.00     0.040 A 
HETATM   15  C11 UNK     1      18.538  -1.229  36.027  1.00  0.00     0.038 A 
HETATM   16  C12 UNK     1      17.161  -1.301  36.054  1.00  0.00     0.078 A 
HETATM   17  C13 UNK     1      19.459  -2.040  36.848  1.00  0.00     0.071 C 
ENDROOT
BRANCH  11  18
HETATM   18  O2  UNK     1      18.763   3.656  29.133  1.00  0.00    -0.356 OA
HETATM   19  H8  UNK     1      17.922   3.223  28.905  1.00  0.00     0.218 HD
ENDBRANCH  11  18
BRANCH  13  20
HETATM   20  O4  UNK     1      18.843   6.380  29.615  1.00  0.00    -0.358 OA
HETATM   21  H9  UNK     1      19.509   7.047  29.851  1.00  0.00     0.217 HD
ENDBRANCH  13  20
TORSDOF 2
ENDMDL
MODEL 10
REMARK VINA RESULT:      -6.9      3.934      6.983
REMARK  2 active torsions:
REMARK  status: ('A' for Active; 'I' for Inactive)
REMARK    1  A    between atoms: C7_13  and  O2_3 
REMARK    2  A    between atoms: C9_15  and  O4_5 
ROOT
HETATM    1  S1  UNK     1      16.528  11.235  10.992  1.00  0.00    -0.079 SA
HETATM    2  O1  UNK     1      15.866   6.600  10.288  1.00  0.00    -0.318 OA
HETATM    3  O3  UNK     1      14.692   9.801   8.040  1.00  0.00    -0.286 OA
HETATM    4  N1  UNK     1      18.047  10.433   9.059  1.00  0.00    -0.245 NA
HETATM    5  C1  UNK     1      14.311   7.570   8.694  1.00  0.00     0.052 A 
HETATM    6  C2  UNK     1      14.764   6.509   9.476  1.00  0.00     0.125 A 
HETATM    7  C3  UNK     1      16.218   8.910   9.637  1.00  0.00     0.073 A 
HETATM    8  C4  UNK     1      15.040   8.851   8.730  1.00  0.00     0.200 A 
HETATM    9  C5  UNK     1      16.990  10.103   9.779  1.00  0.00     0.114 A 
HETATM   10  C6  UNK     1      13.182   7.416   7.885  1.00  0.00     0.021 A 
HETATM   11  C7  UNK     1      14.090   5.287   9.454  1.00  0.00     0.134 A 
HETATM   12  C8  UNK     1      16.529   7.804  10.327  1.00  0.00     0.161 A 
HETATM   13  C9  UNK     1      12.963   5.131   8.648  1.00  0.00     0.101 A 
HETATM   14  C10 UNK     1      12.509   6.194   7.866  1.00  0.00     0.040 A 
HETATM   15  C11 UNK     1      18.526  11.657   9.487  1.00  0.00     0.038 A 
HETATM   16  C12 UNK     1      17.834  12.245  10.525  1.00  0.00     0.078 A 
HETATM   17  C13 UNK     1      19.712  12.220   8.813  1.00  0.00     0.071 C 
ENDROOT
BRANCH  11  18
HETATM   18  O2  UNK     1      14.529   4.245  10.216  1.00  0.00    -0.356 OA
HETATM   19  H8  UNK     1      14.462   3.430   9.689  1.00  0.00     0.218 HD
ENDBRANCH  11  18
BRANCH  13  20
HETATM   20  O4  UNK     1      12.293   3.944   8.614  1.00  0.00    -0.358 OA
HETATM   21  H9  UNK     1      12.929   3.218   8.728  1.00  0.00     0.217 HD
ENDBRANCH  13  20
TORSDOF 2
ENDMDL
