MODEL 1
REMARK VINA RESULT:      -9.6      0.000      0.000
REMARK  5 active torsions:
REMARK  status: ('A' for Active; 'I' for Inactive)
REMARK    1  A    between atoms: C13_17  and  O2_2 
REMARK    2  A    between atoms: C7_11  and  O2_2 
REMARK    3  A    between atoms: C2_6  and  C4_8 
REMARK    4  A    between atoms: C13_17  and  C16_20 
REMARK    5  A    between atoms: C16_20  and  C17_21 
ROOT
HETATM    1  O1  UNK     1      20.521   7.805  33.495  1.00  0.00    -0.275 OA
HETATM    2  O3  UNK     1      21.195   9.600  34.739  1.00  0.00    -0.260 OA
HETATM    3  C1  UNK     1      18.150   7.535  32.989  1.00  0.00     0.009 A 
HETATM    4  C2  UNK     1      17.861   8.766  33.738  1.00  0.00    -0.007 A 
HETATM    5  C3  UNK     1      19.469   7.091  32.891  1.00  0.00     0.093 A 
HETATM    6  C5  UNK     1      17.155   6.776  32.362  1.00  0.00     0.018 A 
HETATM    7  C6  UNK     1      19.812   5.932  32.196  1.00  0.00     0.075 A 
HETATM    8  C7  UNK     1      18.810   5.188  31.579  1.00  0.00     0.072 A 
HETATM    9  C8  UNK     1      18.888   9.423  34.303  1.00  0.00     0.095 A 
HETATM   10  C9  UNK     1      17.483   5.610  31.661  1.00  0.00     0.038 A 
HETATM   11  C10 UNK     1      20.288   8.971  34.208  1.00  0.00     0.289 A 
ENDROOT
BRANCH   8  12
HETATM   12  O2  UNK     1      19.123   4.053  30.898  1.00  0.00    -0.344 OA
BRANCH  12  13
HETATM   13  C13 UNK     1      18.117   3.045  30.818  1.00  0.00     0.259 C 
BRANCH  13  14
HETATM   14  C16 UNK     1      18.346   2.176  29.596  1.00  0.00     0.183 C 
HETATM   15  O4  UNK     1      17.924   2.498  28.488  1.00  0.00    -0.290 OA
BRANCH  14  16
HETATM   16  C17 UNK     1      19.105   0.902  29.754  1.00  0.00     0.012 A 
HETATM   17  C19 UNK     1      19.415   0.472  31.025  1.00  0.00     0.015 A 
HETATM   18  C21 UNK     1      20.124  -0.720  31.173  1.00  0.00     0.001 A 
HETATM   19  C23 UNK     1      20.504  -1.449  30.047  1.00  0.00     0.000 A 
HETATM   20  C22 UNK     1      20.176  -0.987  28.773  1.00  0.00     0.001 A 
HETATM   21  C20 UNK     1      19.466   0.204  28.625  1.00  0.00     0.015 A 
ENDBRANCH  14  16
ENDBRANCH  13  14
ENDBRANCH  12  13
ENDBRANCH   8  12
BRANCH   4  22
HETATM   22  C4  UNK     1      16.544   9.364  33.937  1.00  0.00    -0.025 A 
HETATM   23  C11 UNK     1      16.410  10.749  33.967  1.00  0.00     0.012 A 
HETATM   24  C14 UNK     1      15.151  11.320  34.158  1.00  0.00     0.001 A 
HETATM   25  C18 UNK     1      14.031  10.503  34.318  1.00  0.00     0.000 A 
HETATM   26  C15 UNK     1      14.171   9.115  34.286  1.00  0.00     0.001 A 
HETATM   27  C12 UNK     1      15.429   8.545  34.095  1.00  0.00     0.012 A 
ENDBRANCH   4  22
TORSDOF 5
ENDMDL
MODEL 2
REMARK VINA RESULT:      -9.5      2.101      8.179
REMARK  5 active torsions:
REMARK  status: ('A' for Active; 'I' for Inactive)
REMARK    1  A    between atoms: C13_17  and  O2_2 
REMARK    2  A    between atoms: C7_11  and  O2_2 
REMARK    3  A    between atoms: C2_6  and  C4_8 
REMARK    4  A    between atoms: C13_17  and  C16_20 
REMARK    5  A    between atoms: C16_20  and  C17_21 
ROOT
HETATM    1  O1  UNK     1      18.280   3.563  34.635  1.00  0.00    -0.275 OA
HETATM    2  O3  UNK     1      17.719   1.471  35.366  1.00  0.00    -0.260 OA
HETATM    3  C1  UNK     1      18.805   3.894  32.277  1.00  0.00     0.009 A 
HETATM    4  C2  UNK     1      18.567   2.464  32.034  1.00  0.00    -0.007 A 
HETATM    5  C3  UNK     1      18.656   4.400  33.568  1.00  0.00     0.093 A 
HETATM    6  C5  UNK     1      19.180   4.785  31.263  1.00  0.00     0.018 A 
HETATM    7  C6  UNK     1      18.868   5.745  33.867  1.00  0.00     0.075 A 
HETATM    8  C7  UNK     1      19.240   6.617  32.848  1.00  0.00     0.072 A 
HETATM    9  C8  UNK     1      18.210   1.693  33.074  1.00  0.00     0.095 A 
HETATM   10  C9  UNK     1      19.395   6.138  31.548  1.00  0.00     0.038 A 
HETATM   11  C10 UNK     1      18.046   2.210  34.445  1.00  0.00     0.289 A 
ENDROOT
BRANCH   8  12
HETATM   12  O2  UNK     1      19.452   7.933  33.119  1.00  0.00    -0.344 OA
BRANCH  12  13
HETATM   13  C13 UNK     1      18.716   8.500  34.202  1.00  0.00     0.259 C 
BRANCH  13  14
HETATM   14  C16 UNK     1      17.533   9.286  33.670  1.00  0.00     0.183 C 
HETATM   15  O4  UNK     1      17.572  10.509  33.550  1.00  0.00    -0.290 OA
BRANCH  14  16
HETATM   16  C17 UNK     1      16.295   8.548  33.286  1.00  0.00     0.012 A 
HETATM   17  C19 UNK     1      15.343   8.309  34.252  1.00  0.00     0.015 A 
HETATM   18  C21 UNK     1      14.186   7.618  33.894  1.00  0.00     0.001 A 
HETATM   19  C23 UNK     1      14.011   7.186  32.580  1.00  0.00     0.000 A 
HETATM   20  C22 UNK     1      14.993   7.444  31.624  1.00  0.00     0.001 A 
HETATM   21  C20 UNK     1      16.150   8.134  31.982  1.00  0.00     0.015 A 
ENDBRANCH  14  16
ENDBRANCH  13  14
ENDBRANCH  12  13
ENDBRANCH   8  12
BRANCH   4  22
HETATM   22  C4  UNK     1      18.680   1.779  30.749  1.00  0.00    -0.025 A 
HETATM   23  C11 UNK     1      17.822   2.118  29.706  1.00  0.00     0.012 A 
HETATM   24  C14 UNK     1      17.929   1.462  28.479  1.00  0.00     0.001 A 
HETATM   25  C18 UNK     1      18.893   0.469  28.301  1.00  0.00     0.000 A 
HETATM   26  C15 UNK     1      19.750   0.133  29.349  1.00  0.00     0.001 A 
HETATM   27  C12 UNK     1      19.644   0.789  30.575  1.00  0.00     0.012 A 
ENDBRANCH   4  22
TORSDOF 5
ENDMDL
MODEL 3
REMARK VINA RESULT:      -9.5      4.802      9.889
REMARK  5 active torsions:
REMARK  status: ('A' for Active; 'I' for Inactive)
REMARK    1  A    between atoms: C13_17  and  O2_2 
REMARK    2  A    between atoms: C7_11  and  O2_2 
REMARK    3  A    between atoms: C2_6  and  C4_8 
REMARK    4  A    between atoms: C13_17  and  C16_20 
REMARK    5  A    between atoms: C16_20  and  C17_21 
ROOT
HETATM    1  O1  UNK     1      17.866   0.340  35.898  1.00  0.00    -0.275 OA
HETATM    2  O3  UNK     1      17.411   0.448  38.136  1.00  0.00    -0.260 OA
HETATM    3  C1  UNK     1      19.040  -1.608  35.018  1.00  0.00     0.009 A 
HETATM    4  C2  UNK     1      19.094  -2.175  36.374  1.00  0.00    -0.007 A 
HETATM    5  C3  UNK     1      18.430  -0.370  34.821  1.00  0.00     0.093 A 
HETATM    6  C5  UNK     1      19.578  -2.259  33.901  1.00  0.00     0.018 A 
HETATM    7  C6  UNK     1      18.345   0.224  33.562  1.00  0.00     0.075 A 
HETATM    8  C7  UNK     1      18.886  -0.436  32.463  1.00  0.00     0.072 A 
HETATM    9  C8  UNK     1      18.548  -1.471  37.379  1.00  0.00     0.095 A 
HETATM   10  C9  UNK     1      19.500  -1.677  32.631  1.00  0.00     0.038 A 
HETATM   11  C10 UNK     1      17.897  -0.162  37.190  1.00  0.00     0.289 A 
ENDROOT
BRANCH   8  12
HETATM   12  O2  UNK     1      18.814   0.126  31.226  1.00  0.00    -0.344 OA
BRANCH  12  13
HETATM   13  C13 UNK     1      19.456   1.388  31.048  1.00  0.00     0.259 C 
BRANCH  13  14
HETATM   14  C16 UNK     1      18.464   2.405  30.517  1.00  0.00     0.183 C 
HETATM   15  O4  UNK     1      17.554   2.082  29.757  1.00  0.00    -0.290 OA
BRANCH  14  16
HETATM   16  C17 UNK     1      18.606   3.831  30.933  1.00  0.00     0.012 A 
HETATM   17  C19 UNK     1      18.178   4.197  32.189  1.00  0.00     0.015 A 
HETATM   18  C21 UNK     1      18.310   5.530  32.578  1.00  0.00     0.001 A 
HETATM   19  C23 UNK     1      18.867   6.460  31.702  1.00  0.00     0.000 A 
HETATM   20  C22 UNK     1      19.291   6.058  30.435  1.00  0.00     0.001 A 
HETATM   21  C20 UNK     1      19.159   4.725  30.046  1.00  0.00     0.015 A 
ENDBRANCH  14  16
ENDBRANCH  13  14
ENDBRANCH  12  13
ENDBRANCH   8  12
BRANCH   4  22
HETATM   22  C4  UNK     1      19.694  -3.452  36.750  1.00  0.00    -0.025 A 
HETATM   23  C11 UNK     1      20.920  -3.473  37.409  1.00  0.00     0.012 A 
HETATM   24  C14 UNK     1      21.493  -4.694  37.767  1.00  0.00     0.001 A 
HETATM   25  C18 UNK     1      20.838  -5.888  37.464  1.00  0.00     0.000 A 
HETATM   26  C15 UNK     1      19.609  -5.861  36.803  1.00  0.00     0.001 A 
HETATM   27  C12 UNK     1      19.036  -4.641  36.446  1.00  0.00     0.012 A 
ENDBRANCH   4  22
TORSDOF 5
ENDMDL
MODEL 4
REMARK VINA RESULT:      -9.4      3.442      7.915
REMARK  5 active torsions:
REMARK  status: ('A' for Active; 'I' for Inactive)
REMARK    1  A    between atoms: C13_17  and  O2_2 
REMARK    2  A    between atoms: C7_11  and  O2_2 
REMARK    3  A    between atoms: C2_6  and  C4_8 
REMARK    4  A    between atoms: C13_17  and  C16_20 
REMARK    5  A    between atoms: C16_20  and  C17_21 
ROOT
HETATM    1  O1  UNK     1      19.546  -0.339  31.275  1.00  0.00    -0.275 OA
HETATM    2  O3  UNK     1      19.862  -2.431  32.140  1.00  0.00    -0.260 OA
HETATM    3  C1  UNK     1      18.445   1.355  32.642  1.00  0.00     0.009 A 
HETATM    4  C2  UNK     1      18.313   0.376  33.730  1.00  0.00    -0.007 A 
HETATM    5  C3  UNK     1      19.056   0.969  31.449  1.00  0.00     0.093 A 
HETATM    6  C5  UNK     1      17.982   2.673  32.745  1.00  0.00     0.018 A 
HETATM    7  C6  UNK     1      19.213   1.847  30.377  1.00  0.00     0.075 A 
HETATM    8  C7  UNK     1      18.746   3.154  30.496  1.00  0.00     0.072 A 
HETATM    9  C8  UNK     1      18.790  -0.864  33.532  1.00  0.00     0.095 A 
HETATM   10  C9  UNK     1      18.133   3.566  31.678  1.00  0.00     0.038 A 
HETATM   11  C10 UNK     1      19.440  -1.289  32.279  1.00  0.00     0.289 A 
ENDROOT
BRANCH   8  12
HETATM   12  O2  UNK     1      18.888   4.026  29.461  1.00  0.00    -0.344 OA
BRANCH  12  13
HETATM   13  C13 UNK     1      18.636   5.404  29.734  1.00  0.00     0.259 C 
BRANCH  13  14
HETATM   14  C16 UNK     1      19.721   5.963  30.634  1.00  0.00     0.183 C 
HETATM   15  O4  UNK     1      20.911   5.871  30.343  1.00  0.00    -0.290 OA
BRANCH  14  16
HETATM   16  C17 UNK     1      19.323   6.639  31.903  1.00  0.00     0.012 A 
HETATM   17  C19 UNK     1      18.066   7.193  31.988  1.00  0.00     0.015 A 
HETATM   18  C21 UNK     1      17.693   7.826  33.174  1.00  0.00     0.001 A 
HETATM   19  C23 UNK     1      18.587   7.887  34.242  1.00  0.00     0.000 A 
HETATM   20  C22 UNK     1      19.854   7.316  34.125  1.00  0.00     0.001 A 
HETATM   21  C20 UNK     1      20.227   6.683  32.939  1.00  0.00     0.015 A 
ENDBRANCH  14  16
ENDBRANCH  13  14
ENDBRANCH  12  13
ENDBRANCH   8  12
BRANCH   4  22
HETATM   22  C4  UNK     1      17.702   0.617  35.035  1.00  0.00    -0.025 A 
HETATM   23  C11 UNK     1      16.351   0.340  35.228  1.00  0.00     0.012 A 
HETATM   24  C14 UNK     1      15.768   0.572  36.474  1.00  0.00     0.001 A 
HETATM   25  C18 UNK     1      16.538   1.079  37.522  1.00  0.00     0.000 A 
HETATM   26  C15 UNK     1      17.891   1.354  37.322  1.00  0.00     0.001 A 
HETATM   27  C12 UNK     1      18.474   1.122  36.077  1.00  0.00     0.012 A 
ENDBRANCH   4  22
TORSDOF 5
ENDMDL
MODEL 5
REMARK VINA RESULT:      -9.4      2.878      8.744
REMARK  5 active torsions:
REMARK  status: ('A' for Active; 'I' for Inactive)
REMARK    1  A    between atoms: C13_17  and  O2_2 
REMARK    2  A    between atoms: C7_11  and  O2_2 
REMARK    3  A    between atoms: C2_6  and  C4_8 
REMARK    4  A    between atoms: C13_17  and  C16_20 
REMARK    5  A    between atoms: C16_20  and  C17_21 
ROOT
HETATM    1  O1  UNK     1      19.974  -0.359  29.958  1.00  0.00    -0.275 OA
HETATM    2  O3  UNK     1      20.618  -2.551  30.048  1.00  0.00    -0.260 OA
HETATM    3  C1  UNK     1      18.886   0.639  31.899  1.00  0.00     0.009 A 
HETATM    4  C2  UNK     1      18.998  -0.644  32.608  1.00  0.00    -0.007 A 
HETATM    5  C3  UNK     1      19.375   0.742  30.597  1.00  0.00     0.093 A 
HETATM    6  C5  UNK     1      18.304   1.776  32.473  1.00  0.00     0.018 A 
HETATM    7  C6  UNK     1      19.300   1.929  29.868  1.00  0.00     0.075 A 
HETATM    8  C7  UNK     1      18.717   3.050  30.454  1.00  0.00     0.072 A 
HETATM    9  C8  UNK     1      19.574  -1.676  31.970  1.00  0.00     0.095 A 
HETATM   10  C9  UNK     1      18.221   2.974  31.755  1.00  0.00     0.038 A 
HETATM   11  C10 UNK     1      20.099  -1.584  30.595  1.00  0.00     0.289 A 
ENDROOT
BRANCH   8  12
HETATM   12  O2  UNK     1      18.633   4.216  29.759  1.00  0.00    -0.344 OA
BRANCH  12  13
HETATM   13  C13 UNK     1      19.393   5.320  30.249  1.00  0.00     0.259 C 
BRANCH  13  14
HETATM   14  C16 UNK     1      18.465   6.389  30.793  1.00  0.00     0.183 C 
HETATM   15  O4  UNK     1      17.570   6.877  30.107  1.00  0.00    -0.290 OA
BRANCH  14  16
HETATM   16  C17 UNK     1      18.652   6.854  32.198  1.00  0.00     0.012 A 
HETATM   17  C19 UNK     1      19.611   6.242  32.974  1.00  0.00     0.015 A 
HETATM   18  C21 UNK     1      19.786   6.676  34.287  1.00  0.00     0.001 A 
HETATM   19  C23 UNK     1      18.998   7.711  34.790  1.00  0.00     0.000 A 
HETATM   20  C22 UNK     1      18.035   8.311  33.980  1.00  0.00     0.001 A 
HETATM   21  C20 UNK     1      17.860   7.877  32.666  1.00  0.00     0.015 A 
ENDBRANCH  14  16
ENDBRANCH  13  14
ENDBRANCH  12  13
ENDBRANCH   8  12
BRANCH   4  22
HETATM   22  C4  UNK     1      18.538  -0.920  33.967  1.00  0.00    -0.025 A 
HETATM   23  C11 UNK     1      17.221  -0.644  34.320  1.00  0.00     0.012 A 
HETATM   24  C14 UNK     1      16.782  -0.906  35.619  1.00  0.00     0.001 A 
HETATM   25  C18 UNK     1      17.663  -1.443  36.558  1.00  0.00     0.000 A 
HETATM   26  C15 UNK     1      18.983  -1.717  36.198  1.00  0.00     0.001 A 
HETATM   27  C12 UNK     1      19.421  -1.456  34.901  1.00  0.00     0.012 A 
ENDBRANCH   4  22
TORSDOF 5
ENDMDL
MODEL 6
REMARK VINA RESULT:      -9.3      7.218     10.764
REMARK  5 active torsions:
REMARK  status: ('A' for Active; 'I' for Inactive)
REMARK    1  A    between atoms: C13_17  and  O2_2 
REMARK    2  A    between atoms: C7_11  and  O2_2 
REMARK    3  A    between atoms: C2_6  and  C4_8 
REMARK    4  A    between atoms: C13_17  and  C16_20 
REMARK    5  A    between atoms: C16_20  and  C17_21 
ROOT
HETATM    1  O1  UNK     1      17.226  -0.708  35.728  1.00  0.00    -0.275 OA
HETATM    2  O3  UNK     1      15.744   0.671  34.665  1.00  0.00    -0.260 OA
HETATM    3  C1  UNK     1      19.129  -1.590  34.484  1.00  0.00     0.009 A 
HETATM    4  C2  UNK     1      18.668  -0.869  33.288  1.00  0.00    -0.007 A 
HETATM    5  C3  UNK     1      18.395  -1.489  35.665  1.00  0.00     0.093 A 
HETATM    6  C5  UNK     1      20.282  -2.385  34.494  1.00  0.00     0.018 A 
HETATM    7  C6  UNK     1      18.775  -2.148  36.834  1.00  0.00     0.075 A 
HETATM    8  C7  UNK     1      19.924  -2.934  36.827  1.00  0.00     0.072 A 
HETATM    9  C8  UNK     1      17.548  -0.133  33.382  1.00  0.00     0.095 A 
HETATM   10  C9  UNK     1      20.677  -3.051  35.659  1.00  0.00     0.038 A 
HETATM   11  C10 UNK     1      16.761  -0.012  34.622  1.00  0.00     0.289 A 
ENDROOT
BRANCH   8  12
HETATM   12  O2  UNK     1      20.312  -3.585  37.956  1.00  0.00    -0.344 OA
BRANCH  12  13
HETATM   13  C13 UNK     1      21.355  -4.551  37.823  1.00  0.00     0.259 C 
BRANCH  13  14
HETATM   14  C16 UNK     1      20.803  -5.946  38.043  1.00  0.00     0.183 C 
HETATM   15  O4  UNK     1      20.199  -6.246  39.071  1.00  0.00    -0.290 OA
BRANCH  14  16
HETATM   16  C17 UNK     1      21.003  -6.972  36.980  1.00  0.00     0.012 A 
HETATM   17  C19 UNK     1      21.807  -8.057  37.253  1.00  0.00     0.015 A 
HETATM   18  C21 UNK     1      21.994  -9.017  36.258  1.00  0.00     0.001 A 
HETATM   19  C23 UNK     1      21.374  -8.867  35.019  1.00  0.00     0.000 A 
HETATM   20  C22 UNK     1      20.565  -7.757  34.773  1.00  0.00     0.001 A 
HETATM   21  C20 UNK     1      20.378  -6.797  35.767  1.00  0.00     0.015 A 
ENDBRANCH  14  16
ENDBRANCH  13  14
ENDBRANCH  12  13
ENDBRANCH   8  12
BRANCH   4  22
HETATM   22  C4  UNK     1      19.316  -0.870  31.980  1.00  0.00    -0.025 A 
HETATM   23  C11 UNK     1      19.775  -2.066  31.435  1.00  0.00     0.012 A 
HETATM   24  C14 UNK     1      20.395  -2.066  30.185  1.00  0.00     0.001 A 
HETATM   25  C18 UNK     1      20.554  -0.869  29.485  1.00  0.00     0.000 A 
HETATM   26  C15 UNK     1      20.091   0.327  30.036  1.00  0.00     0.001 A 
HETATM   27  C12 UNK     1      19.471   0.327  31.284  1.00  0.00     0.012 A 
ENDBRANCH   4  22
TORSDOF 5
ENDMDL
MODEL 7
REMARK VINA RESULT:      -9.2     21.955     24.728
REMARK  5 active torsions:
REMARK  status: ('A' for Active; 'I' for Inactive)
REMARK    1  A    between atoms: C13_17  and  O2_2 
REMARK    2  A    between atoms: C7_11  and  O2_2 
REMARK    3  A    between atoms: C2_6  and  C4_8 
REMARK    4  A    between atoms: C13_17  and  C16_20 
REMARK    5  A    between atoms: C16_20  and  C17_21 
ROOT
HETATM    1  O1  UNK     1      11.284   6.192   6.020  1.00  0.00    -0.275 OA
HETATM    2  O3  UNK     1       9.421   6.543   4.741  1.00  0.00    -0.260 OA
HETATM    3  C1  UNK     1      11.031   5.884   8.426  1.00  0.00     0.009 A 
HETATM    4  C2  UNK     1       9.576   6.041   8.282  1.00  0.00    -0.007 A 
HETATM    5  C3  UNK     1      11.839   5.965   7.293  1.00  0.00     0.093 A 
HETATM    6  C5  UNK     1      11.652   5.655   9.660  1.00  0.00     0.018 A 
HETATM    7  C6  UNK     1      13.226   5.827   7.359  1.00  0.00     0.075 A 
HETATM    8  C7  UNK     1      13.827   5.600   8.594  1.00  0.00     0.072 A 
HETATM    9  C8  UNK     1       9.078   6.257   7.054  1.00  0.00     0.095 A 
HETATM   10  C9  UNK     1      13.041   5.513   9.742  1.00  0.00     0.038 A 
HETATM   11  C10 UNK     1       9.917   6.344   5.845  1.00  0.00     0.289 A 
ENDROOT
BRANCH   8  12
HETATM   12  O2  UNK     1      15.178   5.463   8.680  1.00  0.00    -0.344 OA
BRANCH  12  13
HETATM   13  C13 UNK     1      15.775   5.706   9.953  1.00  0.00     0.259 C 
BRANCH  13  14
HETATM   14  C16 UNK     1      16.760   6.855   9.854  1.00  0.00     0.183 C 
HETATM   15  O4  UNK     1      17.894   6.695   9.409  1.00  0.00    -0.290 OA
BRANCH  14  16
HETATM   16  C17 UNK     1      16.332   8.208  10.311  1.00  0.00     0.012 A 
HETATM   17  C19 UNK     1      15.205   8.314  11.095  1.00  0.00     0.015 A 
HETATM   18  C21 UNK     1      14.804   9.580  11.522  1.00  0.00     0.001 A 
HETATM   19  C23 UNK     1      15.541  10.705  11.155  1.00  0.00     0.000 A 
HETATM   20  C22 UNK     1      16.679  10.566  10.360  1.00  0.00     0.001 A 
HETATM   21  C20 UNK     1      17.079   9.300   9.932  1.00  0.00     0.015 A 
ENDBRANCH  14  16
ENDBRANCH  13  14
ENDBRANCH  12  13
ENDBRANCH   8  12
BRANCH   4  22
HETATM   22  C4  UNK     1       8.593   5.985   9.361  1.00  0.00    -0.025 A 
HETATM   23  C11 UNK     1       8.249   4.757   9.919  1.00  0.00     0.012 A 
HETATM   24  C14 UNK     1       7.309   4.703  10.949  1.00  0.00     0.001 A 
HETATM   25  C18 UNK     1       6.717   5.877  11.416  1.00  0.00     0.000 A 
HETATM   26  C15 UNK     1       7.066   7.105  10.852  1.00  0.00     0.001 A 
HETATM   27  C12 UNK     1       8.006   7.159   9.824  1.00  0.00     0.012 A 
ENDBRANCH   4  22
TORSDOF 5
ENDMDL
MODEL 8
REMARK VINA RESULT:      -9.2     17.070     19.134
REMARK  5 active torsions:
REMARK  status: ('A' for Active; 'I' for Inactive)
REMARK    1  A    between atoms: C13_17  and  O2_2 
REMARK    2  A    between atoms: C7_11  and  O2_2 
REMARK    3  A    between atoms: C2_6  and  C4_8 
REMARK    4  A    between atoms: C13_17  and  C16_20 
REMARK    5  A    between atoms: C16_20  and  C17_21 
ROOT
HETATM    1  O1  UNK     1      30.839  -4.492  38.969  1.00  0.00    -0.275 OA
HETATM    2  O3  UNK     1      28.934  -3.543  39.804  1.00  0.00    -0.260 OA
HETATM    3  C1  UNK     1      30.757  -6.784  38.140  1.00  0.00     0.009 A 
HETATM    4  C2  UNK     1      29.328  -6.845  38.481  1.00  0.00    -0.007 A 
HETATM    5  C3  UNK     1      31.468  -5.612  38.394  1.00  0.00     0.093 A 
HETATM    6  C5  UNK     1      31.448  -7.859  37.565  1.00  0.00     0.018 A 
HETATM    7  C6  UNK     1      32.825  -5.487  38.096  1.00  0.00     0.075 A 
HETATM    8  C7  UNK     1      33.496  -6.565  37.525  1.00  0.00     0.072 A 
HETATM    9  C8  UNK     1      28.758  -5.759  39.029  1.00  0.00     0.095 A 
HETATM   10  C9  UNK     1      32.808  -7.748  37.259  1.00  0.00     0.038 A 
HETATM   11  C10 UNK     1      29.493  -4.511  39.303  1.00  0.00     0.289 A 
ENDROOT
BRANCH   8  12
HETATM   12  O2  UNK     1      34.820  -6.465  37.228  1.00  0.00    -0.344 OA
BRANCH  12  13
HETATM   13  C13 UNK     1      35.185  -6.557  35.851  1.00  0.00     0.259 C 
BRANCH  13  14
HETATM   14  C16 UNK     1      34.472  -5.483  35.051  1.00  0.00     0.183 C 
HETATM   15  O4  UNK     1      34.827  -4.308  35.090  1.00  0.00    -0.290 OA
BRANCH  14  16
HETATM   16  C17 UNK     1      33.312  -5.875  34.199  1.00  0.00     0.012 A 
HETATM   17  C19 UNK     1      32.115  -5.216  34.370  1.00  0.00     0.015 A 
HETATM   18  C21 UNK     1      31.031  -5.581  33.573  1.00  0.00     0.001 A 
HETATM   19  C23 UNK     1      31.171  -6.596  32.628  1.00  0.00     0.000 A 
HETATM   20  C22 UNK     1      32.396  -7.245  32.478  1.00  0.00     0.001 A 
HETATM   21  C20 UNK     1      33.481  -6.880  33.275  1.00  0.00     0.015 A 
ENDBRANCH  14  16
ENDBRANCH  13  14
ENDBRANCH  12  13
ENDBRANCH   8  12
BRANCH   4  22
HETATM   22  C4  UNK     1      28.444  -7.990  38.282  1.00  0.00    -0.025 A 
HETATM   23  C11 UNK     1      27.945  -8.266  37.012  1.00  0.00     0.012 A 
HETATM   24  C14 UNK     1      27.098  -9.359  36.822  1.00  0.00     0.001 A 
HETATM   25  C18 UNK     1      26.755 -10.172  37.904  1.00  0.00     0.000 A 
HETATM   26  C15 UNK     1      27.259  -9.891  39.174  1.00  0.00     0.001 A 
HETATM   27  C12 UNK     1      28.105  -8.799  39.364  1.00  0.00     0.012 A 
ENDBRANCH   4  22
TORSDOF 5
ENDMDL
MODEL 9
REMARK VINA RESULT:      -9.2      8.780     14.090
REMARK  5 active torsions:
REMARK  status: ('A' for Active; 'I' for Inactive)
REMARK    1  A    between atoms: C13_17  and  O2_2 
REMARK    2  A    between atoms: C7_11  and  O2_2 
REMARK    3  A    between atoms: C2_6  and  C4_8 
REMARK    4  A    between atoms: C13_17  and  C16_20 
REMARK    5  A    between atoms: C16_20  and  C17_21 
ROOT
HETATM    1  O1  UNK     1      22.585  -4.759  38.226  1.00  0.00    -0.275 OA
HETATM    2  O3  UNK     1      24.347  -5.822  39.220  1.00  0.00    -0.260 OA
HETATM    3  C1  UNK     1      20.647  -6.068  37.533  1.00  0.00     0.009 A 
HETATM    4  C2  UNK     1      21.303  -7.285  38.035  1.00  0.00    -0.007 A 
HETATM    5  C3  UNK     1      21.307  -4.845  37.642  1.00  0.00     0.093 A 
HETATM    6  C5  UNK     1      19.377  -6.078  36.943  1.00  0.00     0.018 A 
HETATM    7  C6  UNK     1      20.742  -3.654  37.186  1.00  0.00     0.075 A 
HETATM    8  C7  UNK     1      19.479  -3.681  36.601  1.00  0.00     0.072 A 
HETATM    9  C8  UNK     1      22.523  -7.169  38.586  1.00  0.00     0.095 A 
HETATM   10  C9  UNK     1      18.797  -4.892  36.481  1.00  0.00     0.038 A 
HETATM   11  C10 UNK     1      23.234  -5.884  38.711  1.00  0.00     0.289 A 
ENDROOT
BRANCH   8  12
HETATM   12  O2  UNK     1      18.911  -2.531  36.148  1.00  0.00    -0.344 OA
BRANCH  12  13
HETATM   13  C13 UNK     1      19.419  -1.992  34.929  1.00  0.00     0.259 C 
BRANCH  13  14
HETATM   14  C16 UNK     1      18.502  -0.895  34.423  1.00  0.00     0.183 C 
HETATM   15  O4  UNK     1      18.311  -0.716  33.223  1.00  0.00    -0.290 OA
BRANCH  14  16
HETATM   16  C17 UNK     1      17.819  -0.017  35.417  1.00  0.00     0.012 A 
HETATM   17  C19 UNK     1      16.456  -0.131  35.571  1.00  0.00     0.015 A 
HETATM   18  C21 UNK     1      15.817   0.690  36.499  1.00  0.00     0.001 A 
HETATM   19  C23 UNK     1      16.557   1.603  37.249  1.00  0.00     0.000 A 
HETATM   20  C22 UNK     1      17.938   1.695  37.070  1.00  0.00     0.001 A 
HETATM   21  C20 UNK     1      18.577   0.874  36.141  1.00  0.00     0.015 A 
ENDBRANCH  14  16
ENDBRANCH  13  14
ENDBRANCH  12  13
ENDBRANCH   8  12
BRANCH   4  22
HETATM   22  C4  UNK     1      20.753  -8.637  37.998  1.00  0.00    -0.025 A 
HETATM   23  C11 UNK     1      19.923  -9.075  39.026  1.00  0.00     0.012 A 
HETATM   24  C14 UNK     1      19.400 -10.369  38.991  1.00  0.00     0.001 A 
HETATM   25  C18 UNK     1      19.708 -11.217  37.926  1.00  0.00     0.000 A 
HETATM   26  C15 UNK     1      20.540 -10.772  36.898  1.00  0.00     0.001 A 
HETATM   27  C12 UNK     1      21.063  -9.480  36.934  1.00  0.00     0.012 A 
ENDBRANCH   4  22
TORSDOF 5
ENDMDL
MODEL 10
REMARK VINA RESULT:      -9.2      4.632      7.766
REMARK  5 active torsions:
REMARK  status: ('A' for Active; 'I' for Inactive)
REMARK    1  A    between atoms: C13_17  and  O2_2 
REMARK    2  A    between atoms: C7_11  and  O2_2 
REMARK    3  A    between atoms: C2_6  and  C4_8 
REMARK    4  A    between atoms: C13_17  and  C16_20 
REMARK    5  A    between atoms: C16_20  and  C17_21 
ROOT
HETATM    1  O1  UNK     1      19.292  -0.415  30.626  1.00  0.00    -0.275 OA
HETATM    2  O3  UNK     1      19.760   0.080  28.444  1.00  0.00    -0.260 OA
HETATM    3  C1  UNK     1      18.661   1.387  32.143  1.00  0.00     0.009 A 
HETATM    4  C2  UNK     1      18.798   2.349  31.040  1.00  0.00    -0.007 A 
HETATM    5  C3  UNK     1      18.913   0.037  31.904  1.00  0.00     0.093 A 
HETATM    6  C5  UNK     1      18.287   1.765  33.439  1.00  0.00     0.018 A 
HETATM    7  C6  UNK     1      18.803  -0.928  32.906  1.00  0.00     0.075 A 
HETATM    8  C7  UNK     1      18.431  -0.535  34.188  1.00  0.00     0.072 A 
HETATM    9  C8  UNK     1      19.162   1.885  29.833  1.00  0.00     0.095 A 
HETATM   10  C9  UNK     1      18.172   0.810  34.454  1.00  0.00     0.038 A 
HETATM   11  C10 UNK     1      19.430   0.461  29.561  1.00  0.00     0.289 A 
ENDROOT
BRANCH   8  12
HETATM   12  O2  UNK     1      18.319  -1.459  35.180  1.00  0.00    -0.344 OA
BRANCH  12  13
HETATM   13  C13 UNK     1      19.272  -1.393  36.240  1.00  0.00     0.259 C 
BRANCH  13  14
HETATM   14  C16 UNK     1      20.384  -2.396  36.004  1.00  0.00     0.183 C 
HETATM   15  O4  UNK     1      21.376  -2.113  35.336  1.00  0.00    -0.290 OA
BRANCH  14  16
HETATM   16  C17 UNK     1      20.261  -3.758  36.600  1.00  0.00     0.012 A 
HETATM   17  C19 UNK     1      21.169  -4.141  37.561  1.00  0.00     0.015 A 
HETATM   18  C21 UNK     1      21.055  -5.414  38.120  1.00  0.00     0.001 A 
HETATM   19  C23 UNK     1      20.036  -6.269  37.702  1.00  0.00     0.000 A 
HETATM   20  C22 UNK     1      19.131  -5.852  36.726  1.00  0.00     0.001 A 
HETATM   21  C20 UNK     1      19.246  -4.579  36.168  1.00  0.00     0.015 A 
ENDBRANCH  14  16
ENDBRANCH  13  14
ENDBRANCH  12  13
ENDBRANCH   8  12
BRANCH   4  22
HETATM   22  C4  UNK     1      18.573   3.790  31.121  1.00  0.00    -0.025 A 
HETATM   23  C11 UNK     1      19.146   4.634  30.174  1.00  0.00     0.012 A 
HETATM   24  C14 UNK     1      18.932   6.011  30.252  1.00  0.00     0.001 A 
HETATM   25  C18 UNK     1      18.146   6.537  31.278  1.00  0.00     0.000 A 
HETATM   26  C15 UNK     1      17.574   5.686  32.225  1.00  0.00     0.001 A 
HETATM   27  C12 UNK     1      17.787   4.311  32.146  1.00  0.00     0.012 A 
ENDBRANCH   4  22
TORSDOF 5
ENDMDL
