MODEL 1
REMARK VINA RESULT:     -10.1      0.000      0.000
REMARK  3 active torsions:
REMARK  status: ('A' for Active; 'I' for Inactive)
REMARK    1  A    between atoms: C5_10  and  N1_4 
REMARK    2  A    between atoms: C6_11  and  N2_5 
REMARK    3  A    between atoms: C5_10  and  C7_12 
ROOT
HETATM    1  N1  UNK     1      18.063   5.062  32.133  1.00  0.00     0.095 N 
HETATM    2  N2  UNK     1      18.852   2.569  30.980  1.00  0.00    -0.377 N 
HETATM    3  C1  UNK     1      18.164   3.856  32.965  1.00  0.00     0.292 C 
HETATM    4  C2  UNK     1      19.078   5.022  31.073  1.00  0.00     0.292 C 
HETATM    5  C3  UNK     1      17.943   2.592  32.132  1.00  0.00     0.153 C 
HETATM    6  C4  UNK     1      18.887   3.798  30.176  1.00  0.00     0.153 C 
ENDROOT
BRANCH   1   7
HETATM    7  C5  UNK     1      18.221   6.264  32.951  1.00  0.00     0.312 C 
BRANCH   7   8
HETATM    8  C7  UNK     1      17.004   7.142  32.890  1.00  0.00    -0.011 A 
HETATM    9  C11 UNK     1      15.870   6.612  32.407  1.00  0.00     0.092 A 
HETATM   10  C19 UNK     1      14.612   7.369  32.301  1.00  0.00     0.288 A 
HETATM   11  O1  UNK     1      14.639   8.687  32.730  1.00  0.00    -0.275 OA
HETATM   12  O2  UNK     1      13.595   6.851  31.853  1.00  0.00    -0.260 OA
HETATM   13  C12 UNK     1      15.815   9.271  33.242  1.00  0.00     0.091 A 
HETATM   14  C8  UNK     1      17.001   8.541  33.336  1.00  0.00     0.012 A 
HETATM   15  C16 UNK     1      15.726  10.605  33.644  1.00  0.00     0.045 A 
HETATM   16  C13 UNK     1      18.127   9.195  33.856  1.00  0.00    -0.048 A 
HETATM   17  C17 UNK     1      18.053  10.532  34.263  1.00  0.00     0.014 A 
HETATM   18  C22 UNK     1      19.473   8.567  34.025  1.00  0.00     0.049 C 
HETATM   19  C20 UNK     1      16.855  11.236  34.157  1.00  0.00    -0.059 A 
HETATM   20  C23 UNK     1      16.783  12.660  34.591  1.00  0.00     0.048 C 
ENDBRANCH   7   8
ENDBRANCH   1   7
BRANCH   2  21
HETATM   21  C6  UNK     1      19.134   1.356  30.343  1.00  0.00     0.037 A 
HETATM   22  C10 UNK     1      19.858   0.379  31.026  1.00  0.00     0.053 A 
HETATM   23  C18 UNK     1      20.148  -0.835  30.406  1.00  0.00     0.036 A 
HETATM   24 Cl1  UNK     1      21.041  -2.041  31.248  1.00  0.00    -0.084 Cl
HETATM   25  C21 UNK     1      19.715  -1.073  29.102  1.00  0.00     0.024 A 
HETATM   26  C14 UNK     1      18.990  -0.096  28.418  1.00  0.00     0.011 A 
HETATM   27  C9  UNK     1      18.700   1.118  29.038  1.00  0.00    -0.035 A 
HETATM   28  C15 UNK     1      17.923   2.147  28.283  1.00  0.00     0.050 C 
ENDBRANCH   2  21
TORSDOF 3
ENDMDL
MODEL 2
REMARK VINA RESULT:      -9.6     20.714     23.435
REMARK  3 active torsions:
REMARK  status: ('A' for Active; 'I' for Inactive)
REMARK    1  A    between atoms: C5_10  and  N1_4 
REMARK    2  A    between atoms: C6_11  and  N2_5 
REMARK    3  A    between atoms: C5_10  and  C7_12 
ROOT
HETATM    1  N1  UNK     1       6.910   5.467  11.303  1.00  0.00     0.095 N 
HETATM    2  N2  UNK     1       8.787   5.781   9.171  1.00  0.00    -0.377 N 
HETATM    3  C1  UNK     1       6.827   6.625  10.403  1.00  0.00     0.292 C 
HETATM    4  C2  UNK     1       7.398   4.296  10.565  1.00  0.00     0.292 C 
HETATM    5  C3  UNK     1       8.198   6.962   9.812  1.00  0.00     0.153 C 
HETATM    6  C4  UNK     1       8.788   4.555   9.980  1.00  0.00     0.153 C 
ENDROOT
BRANCH   1   7
HETATM    7  C5  UNK     1       5.605   5.190  11.903  1.00  0.00     0.312 C 
BRANCH   7   8
HETATM    8  C7  UNK     1       5.608   5.447  13.383  1.00  0.00    -0.011 A 
HETATM    9  C11 UNK     1       5.720   6.717  13.799  1.00  0.00     0.092 A 
HETATM   10  C19 UNK     1       5.730   7.097  15.222  1.00  0.00     0.288 A 
HETATM   11  O1  UNK     1       5.617   6.067  16.143  1.00  0.00    -0.275 OA
HETATM   12  O2  UNK     1       5.834   8.270  15.565  1.00  0.00    -0.260 OA
HETATM   13  C12 UNK     1       5.499   4.724  15.735  1.00  0.00     0.091 A 
HETATM   14  C8  UNK     1       5.490   4.378  14.383  1.00  0.00     0.012 A 
HETATM   15  C16 UNK     1       5.391   3.770  16.749  1.00  0.00     0.045 A 
HETATM   16  C13 UNK     1       5.370   3.020  14.060  1.00  0.00    -0.048 A 
HETATM   17  C17 UNK     1       5.261   2.052  15.066  1.00  0.00     0.014 A 
HETATM   18  C22 UNK     1       5.345   2.474  12.668  1.00  0.00     0.049 C 
HETATM   19  C20 UNK     1       5.272   2.426  16.408  1.00  0.00    -0.059 A 
HETATM   20  C23 UNK     1       5.157   1.391  17.474  1.00  0.00     0.048 C 
ENDBRANCH   7   8
ENDBRANCH   1   7
BRANCH   2  21
HETATM   21  C6  UNK     1       9.797   5.941   8.217  1.00  0.00     0.037 A 
HETATM   22  C10 UNK     1      11.118   5.661   8.568  1.00  0.00     0.053 A 
HETATM   23  C18 UNK     1      12.137   5.815   7.629  1.00  0.00     0.036 A 
HETATM   24 Cl1  UNK     1      13.766   5.470   8.061  1.00  0.00    -0.084 Cl
HETATM   25  C21 UNK     1      11.836   6.249   6.338  1.00  0.00     0.024 A 
HETATM   26  C14 UNK     1      10.515   6.529   5.986  1.00  0.00     0.011 A 
HETATM   27  C9  UNK     1       9.496   6.375   6.925  1.00  0.00    -0.035 A 
HETATM   28  C15 UNK     1       8.090   6.682   6.522  1.00  0.00     0.050 C 
ENDBRANCH   2  21
TORSDOF 3
ENDMDL
MODEL 3
REMARK VINA RESULT:      -9.6     16.397     18.590
REMARK  3 active torsions:
REMARK  status: ('A' for Active; 'I' for Inactive)
REMARK    1  A    between atoms: C5_10  and  N1_4 
REMARK    2  A    between atoms: C6_11  and  N2_5 
REMARK    3  A    between atoms: C5_10  and  C7_12 
ROOT
HETATM    1  N1  UNK     1      27.622  -8.304  38.129  1.00  0.00     0.095 N 
HETATM    2  N2  UNK     1      25.154  -9.365  37.157  1.00  0.00    -0.377 N 
HETATM    3  C1  UNK     1      26.511  -8.566  39.052  1.00  0.00     0.292 C 
HETATM    4  C2  UNK     1      27.615  -9.294  37.046  1.00  0.00     0.292 C 
HETATM    5  C3  UNK     1      25.164  -8.484  38.330  1.00  0.00     0.153 C 
HETATM    6  C4  UNK     1      26.306  -9.235  36.256  1.00  0.00     0.153 C 
ENDROOT
BRANCH   1   7
HETATM    7  C5  UNK     1      28.899  -8.332  38.842  1.00  0.00     0.312 C 
BRANCH   7   8
HETATM    8  C7  UNK     1      29.605  -7.008  38.769  1.00  0.00    -0.011 A 
HETATM    9  C11 UNK     1      28.947  -5.920  39.195  1.00  0.00     0.092 A 
HETATM   10  C19 UNK     1      29.533  -4.570  39.179  1.00  0.00     0.288 A 
HETATM   11  O1  UNK     1      30.827  -4.458  38.693  1.00  0.00    -0.275 OA
HETATM   12  O2  UNK     1      28.900  -3.598  39.576  1.00  0.00    -0.260 OA
HETATM   13  C12 UNK     1      31.543  -5.583  38.239  1.00  0.00     0.091 A 
HETATM   14  C8  UNK     1      30.975  -6.857  38.260  1.00  0.00     0.012 A 
HETATM   15  C16 UNK     1      32.839  -5.352  37.772  1.00  0.00     0.045 A 
HETATM   16  C13 UNK     1      31.753  -7.924  37.790  1.00  0.00    -0.048 A 
HETATM   17  C17 UNK     1      33.053  -7.708  37.319  1.00  0.00     0.014 A 
HETATM   18  C22 UNK     1      31.302  -9.349  37.740  1.00  0.00     0.049 C 
HETATM   19  C20 UNK     1      33.595  -6.424  37.309  1.00  0.00    -0.059 A 
HETATM   20  C23 UNK     1      34.980  -6.201  36.805  1.00  0.00     0.048 C 
ENDBRANCH   7   8
ENDBRANCH   1   7
BRANCH   2  21
HETATM   21  C6  UNK     1      23.934  -9.779  36.611  1.00  0.00     0.037 A 
HETATM   22  C10 UNK     1      22.855  -8.894  36.603  1.00  0.00     0.053 A 
HETATM   23  C18 UNK     1      21.632  -9.290  36.063  1.00  0.00     0.036 A 
HETATM   24 Cl1  UNK     1      20.302  -8.199  36.052  1.00  0.00    -0.084 Cl
HETATM   25  C21 UNK     1      21.487 -10.571  35.531  1.00  0.00     0.024 A 
HETATM   26  C14 UNK     1      22.566 -11.456  35.539  1.00  0.00     0.011 A 
HETATM   27  C9  UNK     1      23.789 -11.060  36.078  1.00  0.00    -0.035 A 
HETATM   28  C15 UNK     1      24.927 -12.028  36.074  1.00  0.00     0.050 C 
ENDBRANCH   2  21
TORSDOF 3
ENDMDL
MODEL 4
REMARK VINA RESULT:      -9.4      8.214     11.043
REMARK  3 active torsions:
REMARK  status: ('A' for Active; 'I' for Inactive)
REMARK    1  A    between atoms: C5_10  and  N1_4 
REMARK    2  A    between atoms: C6_11  and  N2_5 
REMARK    3  A    between atoms: C5_10  and  C7_12 
ROOT
HETATM    1  N1  UNK     1      20.151  -3.952  36.544  1.00  0.00     0.095 N 
HETATM    2  N2  UNK     1      20.560  -6.777  36.678  1.00  0.00    -0.377 N 
HETATM    3  C1  UNK     1      21.031  -4.528  37.568  1.00  0.00     0.292 C 
HETATM    4  C2  UNK     1      20.227  -4.750  35.315  1.00  0.00     0.292 C 
HETATM    5  C3  UNK     1      20.624  -5.966  37.899  1.00  0.00     0.153 C 
HETATM    6  C4  UNK     1      19.792  -6.195  35.570  1.00  0.00     0.153 C 
ENDROOT
BRANCH   1   7
HETATM    7  C5  UNK     1      20.516  -2.561  36.277  1.00  0.00     0.312 C 
BRANCH   7   8
HETATM    8  C7  UNK     1      19.594  -1.927  35.275  1.00  0.00    -0.011 A 
HETATM    9  C11 UNK     1      19.888  -2.066  33.974  1.00  0.00     0.092 A 
HETATM   10  C19 UNK     1      19.060  -1.495  32.899  1.00  0.00     0.288 A 
HETATM   11  O1  UNK     1      17.933  -0.789  33.288  1.00  0.00    -0.275 OA
HETATM   12  O2  UNK     1      19.362  -1.642  31.719  1.00  0.00    -0.260 OA
HETATM   13  C12 UNK     1      17.598  -0.627  34.647  1.00  0.00     0.091 A 
HETATM   14  C8  UNK     1      18.392  -1.173  35.656  1.00  0.00     0.012 A 
HETATM   15  C16 UNK     1      16.440   0.104  34.923  1.00  0.00     0.045 A 
HETATM   16  C13 UNK     1      17.991  -0.966  36.983  1.00  0.00    -0.048 A 
HETATM   17  C17 UNK     1      16.833  -0.236  37.275  1.00  0.00     0.014 A 
HETATM   18  C22 UNK     1      18.722  -1.478  38.183  1.00  0.00     0.049 C 
HETATM   19  C20 UNK     1      16.059   0.298  36.246  1.00  0.00    -0.059 A 
HETATM   20  C23 UNK     1      14.827   1.075  36.564  1.00  0.00     0.048 C 
ENDBRANCH   7   8
ENDBRANCH   1   7
BRANCH   2  21
HETATM   21  C6  UNK     1      20.636  -8.171  36.766  1.00  0.00     0.037 A 
HETATM   22  C10 UNK     1      21.747  -8.828  36.235  1.00  0.00     0.053 A 
HETATM   23  C18 UNK     1      21.838 -10.218  36.315  1.00  0.00     0.036 A 
HETATM   24 Cl1  UNK     1      23.207 -11.029  35.660  1.00  0.00    -0.084 Cl
HETATM   25  C21 UNK     1      20.820 -10.950  36.925  1.00  0.00     0.024 A 
HETATM   26  C14 UNK     1      19.710 -10.293  37.456  1.00  0.00     0.011 A 
HETATM   27  C9  UNK     1      19.618  -8.904  37.377  1.00  0.00    -0.035 A 
HETATM   28  C15 UNK     1      18.418  -8.226  37.954  1.00  0.00     0.050 C 
ENDBRANCH   2  21
TORSDOF 3
ENDMDL
MODEL 5
REMARK VINA RESULT:      -9.3      1.188      1.884
REMARK  3 active torsions:
REMARK  status: ('A' for Active; 'I' for Inactive)
REMARK    1  A    between atoms: C5_10  and  N1_4 
REMARK    2  A    between atoms: C6_11  and  N2_5 
REMARK    3  A    between atoms: C5_10  and  C7_12 
ROOT
HETATM    1  N1  UNK     1      17.953   5.126  32.636  1.00  0.00     0.095 N 
HETATM    2  N2  UNK     1      18.712   2.396  32.270  1.00  0.00    -0.377 N 
HETATM    3  C1  UNK     1      18.437   4.330  33.771  1.00  0.00     0.292 C 
HETATM    4  C2  UNK     1      18.631   4.703  31.405  1.00  0.00     0.292 C 
HETATM    5  C3  UNK     1      18.162   2.840  33.556  1.00  0.00     0.153 C 
HETATM    6  C4  UNK     1      18.362   3.226  31.110  1.00  0.00     0.153 C 
ENDROOT
BRANCH   1   7
HETATM    7  C5  UNK     1      18.172   6.552  32.879  1.00  0.00     0.312 C 
BRANCH   7   8
HETATM    8  C7  UNK     1      16.886   7.327  32.831  1.00  0.00    -0.011 A 
HETATM    9  C11 UNK     1      15.801   6.715  32.333  1.00  0.00     0.092 A 
HETATM   10  C19 UNK     1      14.485   7.368  32.238  1.00  0.00     0.288 A 
HETATM   11  O1  UNK     1      14.402   8.675  32.693  1.00  0.00    -0.275 OA
HETATM   12  O2  UNK     1      13.515   6.777  31.777  1.00  0.00    -0.260 OA
HETATM   13  C12 UNK     1      15.525   9.343  33.221  1.00  0.00     0.091 A 
HETATM   14  C8  UNK     1      16.767   8.713  33.305  1.00  0.00     0.012 A 
HETATM   15  C16 UNK     1      15.325  10.657  33.649  1.00  0.00     0.045 A 
HETATM   16  C13 UNK     1      17.834   9.446  33.841  1.00  0.00    -0.048 A 
HETATM   17  C17 UNK     1      17.649  10.764  34.275  1.00  0.00     0.014 A 
HETATM   18  C22 UNK     1      19.227   8.928  34.003  1.00  0.00     0.049 C 
HETATM   19  C20 UNK     1      16.397  11.369  34.178  1.00  0.00    -0.059 A 
HETATM   20  C23 UNK     1      16.207  12.773  34.641  1.00  0.00     0.048 C 
ENDBRANCH   7   8
ENDBRANCH   1   7
BRANCH   2  21
HETATM   21  C6  UNK     1      18.964   1.037  32.056  1.00  0.00     0.037 A 
HETATM   22  C10 UNK     1      19.606   0.639  30.882  1.00  0.00     0.053 A 
HETATM   23  C18 UNK     1      19.864  -0.712  30.653  1.00  0.00     0.036 A 
HETATM   24 Cl1  UNK     1      20.655  -1.203  29.206  1.00  0.00    -0.084 Cl
HETATM   25  C21 UNK     1      19.482  -1.665  31.596  1.00  0.00     0.024 A 
HETATM   26  C14 UNK     1      18.840  -1.268  32.769  1.00  0.00     0.011 A 
HETATM   27  C9  UNK     1      18.582   0.083  33.000  1.00  0.00    -0.035 A 
HETATM   28  C15 UNK     1      17.893   0.481  34.264  1.00  0.00     0.050 C 
ENDBRANCH   2  21
TORSDOF 3
ENDMDL
MODEL 6
REMARK VINA RESULT:      -9.2      8.918     13.852
REMARK  3 active torsions:
REMARK  status: ('A' for Active; 'I' for Inactive)
REMARK    1  A    between atoms: C5_10  and  N1_4 
REMARK    2  A    between atoms: C6_11  and  N2_5 
REMARK    3  A    between atoms: C5_10  and  C7_12 
ROOT
HETATM    1  N1  UNK     1      19.755  -3.912  36.520  1.00  0.00     0.095 N 
HETATM    2  N2  UNK     1      18.960  -1.213  36.020  1.00  0.00    -0.377 N 
HETATM    3  C1  UNK     1      20.759  -2.844  36.432  1.00  0.00     0.292 C 
HETATM    4  C2  UNK     1      18.515  -3.384  37.102  1.00  0.00     0.292 C 
HETATM    5  C3  UNK     1      20.265  -1.693  35.553  1.00  0.00     0.153 C 
HETATM    6  C4  UNK     1      17.945  -2.251  36.244  1.00  0.00     0.153 C 
ENDROOT
BRANCH   1   7
HETATM    7  C5  UNK     1      20.261  -5.029  37.317  1.00  0.00     0.312 C 
BRANCH   7   8
HETATM    8  C7  UNK     1      20.279  -6.309  36.532  1.00  0.00    -0.011 A 
HETATM    9  C11 UNK     1      20.481  -6.232  35.208  1.00  0.00     0.092 A 
HETATM   10  C19 UNK     1      20.524  -7.415  34.332  1.00  0.00     0.288 A 
HETATM   11  O1  UNK     1      20.342  -8.648  34.941  1.00  0.00    -0.275 OA
HETATM   12  O2  UNK     1      20.711  -7.306  33.126  1.00  0.00    -0.260 OA
HETATM   13  C12 UNK     1      20.127  -8.760  36.329  1.00  0.00     0.091 A 
HETATM   14  C8  UNK     1      20.089  -7.630  37.147  1.00  0.00     0.012 A 
HETATM   15  C16 UNK     1      19.957 -10.051  36.833  1.00  0.00     0.045 A 
HETATM   16  C13 UNK     1      19.870  -7.826  38.517  1.00  0.00    -0.048 A 
HETATM   17  C17 UNK     1      19.698  -9.114  39.037  1.00  0.00     0.014 A 
HETATM   18  C22 UNK     1      19.798  -6.731  39.533  1.00  0.00     0.049 C 
HETATM   19  C20 UNK     1      19.741 -10.225  38.196  1.00  0.00    -0.059 A 
HETATM   20  C23 UNK     1      19.555 -11.594  38.755  1.00  0.00     0.048 C 
ENDBRANCH   7   8
ENDBRANCH   1   7
BRANCH   2  21
HETATM   21  C6  UNK     1      18.524   0.068  35.664  1.00  0.00     0.037 A 
HETATM   22  C10 UNK     1      18.625   0.477  34.334  1.00  0.00     0.053 A 
HETATM   23  C18 UNK     1      18.195   1.750  33.963  1.00  0.00     0.036 A 
HETATM   24 Cl1  UNK     1      18.320   2.256  32.323  1.00  0.00    -0.084 Cl
HETATM   25  C21 UNK     1      17.664   2.615  34.919  1.00  0.00     0.024 A 
HETATM   26  C14 UNK     1      17.562   2.205  36.249  1.00  0.00     0.011 A 
HETATM   27  C9  UNK     1      17.991   0.932  36.622  1.00  0.00    -0.035 A 
HETATM   28  C15 UNK     1      17.871   0.519  38.052  1.00  0.00     0.050 C 
ENDBRANCH   2  21
TORSDOF 3
ENDMDL
MODEL 7
REMARK VINA RESULT:      -9.1     21.404     24.114
REMARK  3 active torsions:
REMARK  status: ('A' for Active; 'I' for Inactive)
REMARK    1  A    between atoms: C5_10  and  N1_4 
REMARK    2  A    between atoms: C6_11  and  N2_5 
REMARK    3  A    between atoms: C5_10  and  C7_12 
ROOT
HETATM    1  N1  UNK     1       7.116   6.183  10.560  1.00  0.00     0.095 N 
HETATM    2  N2  UNK     1       9.447   6.392   8.921  1.00  0.00    -0.377 N 
HETATM    3  C1  UNK     1       7.232   7.257   9.566  1.00  0.00     0.292 C 
HETATM    4  C2  UNK     1       7.789   4.975  10.069  1.00  0.00     0.292 C 
HETATM    5  C3  UNK     1       8.699   7.598   9.292  1.00  0.00     0.153 C 
HETATM    6  C4  UNK     1       9.274   5.239   9.813  1.00  0.00     0.153 C 
ENDROOT
BRANCH   1   7
HETATM    7  C5  UNK     1       5.710   5.905  10.852  1.00  0.00     0.312 C 
BRANCH   7   8
HETATM    8  C7  UNK     1       5.525   4.536  11.443  1.00  0.00    -0.011 A 
HETATM    9  C11 UNK     1       5.412   3.498  10.601  1.00  0.00     0.092 A 
HETATM   10  C19 UNK     1       5.232   2.110  11.057  1.00  0.00     0.288 A 
HETATM   11  O1  UNK     1       5.183   1.906  12.428  1.00  0.00    -0.275 OA
HETATM   12  O2  UNK     1       5.132   1.186  10.257  1.00  0.00    -0.260 OA
HETATM   13  C12 UNK     1       5.299   2.977  13.336  1.00  0.00     0.091 A 
HETATM   14  C8  UNK     1       5.469   4.288  12.889  1.00  0.00     0.012 A 
HETATM   15  C16 UNK     1       5.235   2.654  14.693  1.00  0.00     0.045 A 
HETATM   16  C13 UNK     1       5.576   5.296  13.857  1.00  0.00    -0.048 A 
HETATM   17  C17 UNK     1       5.513   4.988  15.221  1.00  0.00     0.014 A 
HETATM   18  C22 UNK     1       5.758   6.750  13.556  1.00  0.00     0.049 C 
HETATM   19  C20 UNK     1       5.343   3.669  15.638  1.00  0.00    -0.059 A 
HETATM   20  C23 UNK     1       5.277   3.348  17.092  1.00  0.00     0.048 C 
ENDBRANCH   7   8
ENDBRANCH   1   7
BRANCH   2  21
HETATM   21  C6  UNK     1      10.655   6.512   8.225  1.00  0.00     0.037 A 
HETATM   22  C10 UNK     1      11.824   6.792   8.934  1.00  0.00     0.053 A 
HETATM   23  C18 UNK     1      13.037   6.914   8.256  1.00  0.00     0.036 A 
HETATM   24 Cl1  UNK     1      14.479   7.259   9.129  1.00  0.00    -0.084 Cl
HETATM   25  C21 UNK     1      13.081   6.757   6.871  1.00  0.00     0.024 A 
HETATM   26  C14 UNK     1      11.912   6.477   6.163  1.00  0.00     0.011 A 
HETATM   27  C9  UNK     1      10.699   6.354   6.840  1.00  0.00    -0.035 A 
HETATM   28  C15 UNK     1       9.463   6.054   6.057  1.00  0.00     0.050 C 
ENDBRANCH   2  21
TORSDOF 3
ENDMDL
MODEL 8
REMARK VINA RESULT:      -9.1      4.035      9.321
REMARK  3 active torsions:
REMARK  status: ('A' for Active; 'I' for Inactive)
REMARK    1  A    between atoms: C5_10  and  N1_4 
REMARK    2  A    between atoms: C6_11  and  N2_5 
REMARK    3  A    between atoms: C5_10  and  C7_12 
ROOT
HETATM    1  N1  UNK     1      17.716   7.087  33.063  1.00  0.00     0.095 N 
HETATM    2  N2  UNK     1      16.167   9.477  33.287  1.00  0.00    -0.377 N 
HETATM    3  C1  UNK     1      17.184   7.744  31.862  1.00  0.00     0.292 C 
HETATM    4  C2  UNK     1      18.050   8.096  34.076  1.00  0.00     0.292 C 
HETATM    5  C3  UNK     1      15.918   8.540  32.186  1.00  0.00     0.153 C 
HETATM    6  C4  UNK     1      16.813   8.903  34.475  1.00  0.00     0.153 C 
ENDROOT
BRANCH   1   7
HETATM    7  C5  UNK     1      18.893   6.286  32.729  1.00  0.00     0.312 C 
BRANCH   7   8
HETATM    8  C7  UNK     1      18.611   4.814  32.832  1.00  0.00    -0.011 A 
HETATM    9  C11 UNK     1      18.391   4.300  34.052  1.00  0.00     0.092 A 
HETATM   10  C19 UNK     1      18.100   2.875  34.282  1.00  0.00     0.288 A 
HETATM   11  O1  UNK     1      18.058   2.059  33.162  1.00  0.00    -0.275 OA
HETATM   12  O2  UNK     1      17.905   2.441  35.412  1.00  0.00    -0.260 OA
HETATM   13  C12 UNK     1      18.285   2.570  31.868  1.00  0.00     0.091 A 
HETATM   14  C8  UNK     1      18.560   3.923  31.665  1.00  0.00     0.012 A 
HETATM   15  C16 UNK     1      18.218   1.656  30.815  1.00  0.00     0.045 A 
HETATM   16  C13 UNK     1      18.774   4.352  30.349  1.00  0.00    -0.048 A 
HETATM   17  C17 UNK     1      18.711   3.448  29.282  1.00  0.00     0.014 A 
HETATM   18  C22 UNK     1      19.081   5.761  29.952  1.00  0.00     0.049 C 
HETATM   19  C20 UNK     1      18.433   2.102  29.515  1.00  0.00    -0.059 A 
HETATM   20  C23 UNK     1      18.368   1.144  28.375  1.00  0.00     0.048 C 
ENDBRANCH   7   8
ENDBRANCH   1   7
BRANCH   2  21
HETATM   21  C6  UNK     1      15.324  10.580  33.464  1.00  0.00     0.037 A 
HETATM   22  C10 UNK     1      13.991  10.490  33.063  1.00  0.00     0.053 A 
HETATM   23  C18 UNK     1      13.137  11.580  33.232  1.00  0.00     0.036 A 
HETATM   24 Cl1  UNK     1      11.493  11.470  32.737  1.00  0.00    -0.084 Cl
HETATM   25  C21 UNK     1      13.616  12.759  33.802  1.00  0.00     0.024 A 
HETATM   26  C14 UNK     1      14.949  12.849  34.204  1.00  0.00     0.011 A 
HETATM   27  C9  UNK     1      15.803  11.760  34.035  1.00  0.00    -0.035 A 
HETATM   28  C15 UNK     1      17.226  11.883  34.474  1.00  0.00     0.050 C 
ENDBRANCH   2  21
TORSDOF 3
ENDMDL
MODEL 9
REMARK VINA RESULT:      -9.1     22.975     25.225
REMARK  3 active torsions:
REMARK  status: ('A' for Active; 'I' for Inactive)
REMARK    1  A    between atoms: C5_10  and  N1_4 
REMARK    2  A    between atoms: C6_11  and  N2_5 
REMARK    3  A    between atoms: C5_10  and  C7_12 
ROOT
HETATM    1  N1  UNK     1      15.690   9.632   9.234  1.00  0.00     0.095 N 
HETATM    2  N2  UNK     1      17.200  11.762   8.073  1.00  0.00    -0.377 N 
HETATM    3  C1  UNK     1      16.974  10.037   9.818  1.00  0.00     0.292 C 
HETATM    4  C2  UNK     1      15.008  10.802   8.668  1.00  0.00     0.292 C 
HETATM    5  C3  UNK     1      17.887  10.663   8.761  1.00  0.00     0.153 C 
HETATM    6  C4  UNK     1      15.855  11.453   7.571  1.00  0.00     0.153 C 
ENDROOT
BRANCH   1   7
HETATM    7  C5  UNK     1      14.849   8.987  10.242  1.00  0.00     0.312 C 
BRANCH   7   8
HETATM    8  C7  UNK     1      14.481   7.585   9.844  1.00  0.00    -0.011 A 
HETATM    9  C11 UNK     1      15.446   6.653   9.863  1.00  0.00     0.092 A 
HETATM   10  C19 UNK     1      15.209   5.246   9.499  1.00  0.00     0.288 A 
HETATM   11  O1  UNK     1      13.917   4.908   9.125  1.00  0.00    -0.275 OA
HETATM   12  O2  UNK     1      16.116   4.422   9.528  1.00  0.00    -0.260 OA
HETATM   13  C12 UNK     1      12.884   5.865   9.096  1.00  0.00     0.091 A 
HETATM   14  C8  UNK     1      13.123   7.196   9.443  1.00  0.00     0.012 A 
HETATM   15  C16 UNK     1      11.623   5.412   8.704  1.00  0.00     0.045 A 
HETATM   16  C13 UNK     1      12.042   8.086   9.387  1.00  0.00    -0.048 A 
HETATM   17  C17 UNK     1      10.772   7.646   8.996  1.00  0.00     0.014 A 
HETATM   18  C22 UNK     1      12.120   9.541   9.723  1.00  0.00     0.049 C 
HETATM   19  C20 UNK     1      10.563   6.311   8.655  1.00  0.00    -0.059 A 
HETATM   20  C23 UNK     1       9.208   5.849   8.239  1.00  0.00     0.048 C 
ENDBRANCH   7   8
ENDBRANCH   1   7
BRANCH   2  21
HETATM   21  C6  UNK     1      17.947  12.734   7.399  1.00  0.00     0.037 A 
HETATM   22  C10 UNK     1      18.475  12.438   6.142  1.00  0.00     0.053 A 
HETATM   23  C18 UNK     1      19.222  13.395   5.457  1.00  0.00     0.036 A 
HETATM   24 Cl1  UNK     1      19.873  13.031   3.906  1.00  0.00    -0.084 Cl
HETATM   25  C21 UNK     1      19.442  14.648   6.028  1.00  0.00     0.024 A 
HETATM   26  C14 UNK     1      18.915  14.944   7.285  1.00  0.00     0.011 A 
HETATM   27  C9  UNK     1      18.167  13.988   7.970  1.00  0.00    -0.035 A 
HETATM   28  C15 UNK     1      17.615  14.331   9.315  1.00  0.00     0.050 C 
ENDBRANCH   2  21
TORSDOF 3
ENDMDL
MODEL 10
REMARK VINA RESULT:      -9.0     17.857     19.701
REMARK  3 active torsions:
REMARK  status: ('A' for Active; 'I' for Inactive)
REMARK    1  A    between atoms: C5_10  and  N1_4 
REMARK    2  A    between atoms: C6_11  and  N2_5 
REMARK    3  A    between atoms: C5_10  and  C7_12 
ROOT
HETATM    1  N1  UNK     1      32.173  -7.355  36.007  1.00  0.00     0.095 N 
HETATM    2  N2  UNK     1      33.080  -7.354  33.298  1.00  0.00    -0.377 N 
HETATM    3  C1  UNK     1      32.969  -8.475  35.488  1.00  0.00     0.292 C 
HETATM    4  C2  UNK     1      32.596  -6.104  35.367  1.00  0.00     0.292 C 
HETATM    5  C3  UNK     1      32.792  -8.623  33.976  1.00  0.00     0.153 C 
HETATM    6  C4  UNK     1      32.405  -6.172  33.850  1.00  0.00     0.153 C 
ENDROOT
BRANCH   1   7
HETATM    7  C5  UNK     1      32.308  -7.260  37.460  1.00  0.00     0.312 C 
BRANCH   7   8
HETATM    8  C7  UNK     1      31.054  -6.738  38.102  1.00  0.00    -0.011 A 
HETATM    9  C11 UNK     1      30.939  -5.412  38.270  1.00  0.00     0.092 A 
HETATM   10  C19 UNK     1      29.758  -4.780  38.881  1.00  0.00     0.288 A 
HETATM   11  O1  UNK     1      28.738  -5.627  39.288  1.00  0.00    -0.275 OA
HETATM   12  O2  UNK     1      29.688  -3.563  39.019  1.00  0.00    -0.260 OA
HETATM   13  C12 UNK     1      28.831  -7.023  39.124  1.00  0.00     0.091 A 
HETATM   14  C8  UNK     1      29.957  -7.609  38.543  1.00  0.00     0.012 A 
HETATM   15  C16 UNK     1      27.744  -7.778  39.571  1.00  0.00     0.045 A 
HETATM   16  C13 UNK     1      29.971  -9.004  38.417  1.00  0.00    -0.048 A 
HETATM   17  C17 UNK     1      28.890  -9.774  38.860  1.00  0.00     0.014 A 
HETATM   18  C22 UNK     1      31.094  -9.793  37.822  1.00  0.00     0.049 C 
HETATM   19  C20 UNK     1      27.778  -9.162  39.436  1.00  0.00    -0.059 A 
HETATM   20  C23 UNK     1      26.630  -9.988  39.907  1.00  0.00     0.048 C 
ENDBRANCH   7   8
ENDBRANCH   1   7
BRANCH   2  21
HETATM   21  C6  UNK     1      33.402  -7.353  31.936  1.00  0.00     0.037 A 
HETATM   22  C10 UNK     1      32.384  -7.513  30.995  1.00  0.00     0.053 A 
HETATM   23  C18 UNK     1      32.688  -7.514  29.634  1.00  0.00     0.036 A 
HETATM   24 Cl1  UNK     1      31.434  -7.712  28.472  1.00  0.00    -0.084 Cl
HETATM   25  C21 UNK     1      34.008  -7.355  29.213  1.00  0.00     0.024 A 
HETATM   26  C14 UNK     1      35.026  -7.194  30.154  1.00  0.00     0.011 A 
HETATM   27  C9  UNK     1      34.723  -7.193  31.515  1.00  0.00    -0.035 A 
HETATM   28  C15 UNK     1      35.831  -7.019  32.501  1.00  0.00     0.050 C 
ENDBRANCH   2  21
TORSDOF 3
ENDMDL
