MODEL 1
REMARK VINA RESULT:     -10.2      0.000      0.000
REMARK  2 active torsions:
REMARK  status: ('A' for Active; 'I' for Inactive)
REMARK    1  A    between atoms: C1_9  and  N4_8 
REMARK    2  A    between atoms: C8_16  and  C9_17 
ROOT
HETATM    1  O1  UNK     1      18.790  -1.308  35.006  1.00  0.00    -0.332 OA
HETATM    2  O2  UNK     1      16.831   1.612  35.823  1.00  0.00    -0.289 OA
HETATM    3  O3  UNK     1      18.751   1.495  31.028  1.00  0.00    -0.274 OA
HETATM    4  O4  UNK     1      18.696   2.737  29.105  1.00  0.00    -0.260 OA
HETATM    5  C9  UNK     1      18.247   1.248  33.935  1.00  0.00     0.044 C 
HETATM    6  C10 UNK     1      18.814   0.190  33.083  1.00  0.00     0.048 A 
HETATM    7  C11 UNK     1      17.513   0.828  35.168  1.00  0.00     0.196 C 
HETATM    8  C12 UNK     1      17.636  -0.654  35.538  1.00  0.00     0.125 C 
HETATM    9  C13 UNK     1      19.078  -1.046  33.692  1.00  0.00     0.084 A 
HETATM   10  C14 UNK     1      19.099   0.303  31.712  1.00  0.00     0.103 A 
HETATM   11  C15 UNK     1      17.772  -0.765  37.062  1.00  0.00     0.055 C 
HETATM   12  C16 UNK     1      16.371  -1.395  35.088  1.00  0.00     0.055 C 
HETATM   13  C17 UNK     1      19.689  -2.086  32.986  1.00  0.00     0.039 A 
HETATM   14  C18 UNK     1      19.688  -0.737  30.986  1.00  0.00    -0.001 A 
HETATM   15  C19 UNK     1      19.997  -1.931  31.635  1.00  0.00     0.017 A 
HETATM   16  C20 UNK     1      19.966  -0.555  29.571  1.00  0.00     0.020 A 
HETATM   17  C21 UNK     1      18.997   1.694  29.675  1.00  0.00     0.288 A 
HETATM   18  C22 UNK     1      19.644   0.585  28.956  1.00  0.00     0.083 A 
ENDROOT
BRANCH   5  19
HETATM   19  C8  UNK     1      18.432   2.566  33.763  1.00  0.00     0.100 C 
HETATM   20  N4  UNK     1      17.833   3.375  32.862  1.00  0.00    -0.384 N 
HETATM   21  H13 UNK     1      17.160   2.965  32.224  1.00  0.00     0.159 HD
BRANCH  20  22
HETATM   22  C1  UNK     1      18.122   4.786  32.730  1.00  0.00     0.109 C 
HETATM   23  C2  UNK     1      16.820   5.582  32.515  1.00  0.00     0.311 C 
HETATM   24  N1  UNK     1      17.141   7.019  32.380  1.00  0.00     0.147 N 
HETATM   25  C5  UNK     1      18.061   7.200  31.231  1.00  0.00     0.547 C 
HETATM   26  C6  UNK     1      17.835   7.473  33.608  1.00  0.00     0.547 C 
HETATM   27  N2  UNK     1      19.340   6.470  31.405  1.00  0.00     0.147 N 
HETATM   28  C3  UNK     1      19.055   5.024  31.524  1.00  0.00     0.311 C 
HETATM   29  C7  UNK     1      19.978   6.939  32.658  1.00  0.00     0.547 C 
HETATM   30  N3  UNK     1      19.109   6.752  33.845  1.00  0.00     0.147 N 
HETATM   31  C4  UNK     1      18.819   5.311  34.003  1.00  0.00     0.311 C 
ENDBRANCH  20  22
ENDBRANCH   5  19
TORSDOF 2
ENDMDL
MODEL 2
REMARK VINA RESULT:     -10.2      0.029      1.357
REMARK  2 active torsions:
REMARK  status: ('A' for Active; 'I' for Inactive)
REMARK    1  A    between atoms: C1_9  and  N4_8 
REMARK    2  A    between atoms: C8_16  and  C9_17 
ROOT
HETATM    1  O1  UNK     1      18.791  -1.313  35.026  1.00  0.00    -0.332 OA
HETATM    2  O2  UNK     1      16.823   1.606  35.825  1.00  0.00    -0.289 OA
HETATM    3  O3  UNK     1      18.766   1.479  31.040  1.00  0.00    -0.274 OA
HETATM    4  O4  UNK     1      18.717   2.716  29.113  1.00  0.00    -0.260 OA
HETATM    5  C9  UNK     1      18.248   1.239  33.944  1.00  0.00     0.044 C 
HETATM    6  C10 UNK     1      18.822   0.180  33.099  1.00  0.00     0.048 A 
HETATM    7  C11 UNK     1      17.509   0.821  35.175  1.00  0.00     0.196 C 
HETATM    8  C12 UNK     1      17.634  -0.659  35.550  1.00  0.00     0.125 C 
HETATM    9  C13 UNK     1      19.085  -1.053  33.712  1.00  0.00     0.084 A 
HETATM   10  C14 UNK     1      19.112   0.290  31.728  1.00  0.00     0.103 A 
HETATM   11  C15 UNK     1      17.762  -0.766  37.075  1.00  0.00     0.055 C 
HETATM   12  C16 UNK     1      16.372  -1.404  35.096  1.00  0.00     0.055 C 
HETATM   13  C17 UNK     1      19.702  -2.095  33.011  1.00  0.00     0.039 A 
HETATM   14  C18 UNK     1      19.707  -0.751  31.008  1.00  0.00    -0.001 A 
HETATM   15  C19 UNK     1      20.015  -1.943  31.662  1.00  0.00     0.017 A 
HETATM   16  C20 UNK     1      19.992  -0.572  29.593  1.00  0.00     0.020 A 
HETATM   17  C21 UNK     1      19.017   1.676  29.687  1.00  0.00     0.288 A 
HETATM   18  C22 UNK     1      19.670   0.566  28.974  1.00  0.00     0.083 A 
ENDROOT
BRANCH   5  19
HETATM   19  C8  UNK     1      18.432   2.557  33.770  1.00  0.00     0.100 C 
HETATM   20  N4  UNK     1      17.843   3.360  32.857  1.00  0.00    -0.384 N 
HETATM   21  H13 UNK     1      17.182   2.946  32.210  1.00  0.00     0.159 HD
BRANCH  20  22
HETATM   22  C1  UNK     1      18.130   4.772  32.723  1.00  0.00     0.109 C 
HETATM   23  C2  UNK     1      19.088   5.014  31.540  1.00  0.00     0.311 C 
HETATM   24  N1  UNK     1      19.368   6.462  31.426  1.00  0.00     0.147 N 
HETATM   25  C5  UNK     1      19.972   6.936  32.694  1.00  0.00     0.547 C 
HETATM   26  C6  UNK     1      18.090   7.184  31.221  1.00  0.00     0.547 C 
HETATM   27  N2  UNK     1      19.075   6.744  33.860  1.00  0.00     0.147 N 
HETATM   28  C3  UNK     1      18.790   5.302  34.013  1.00  0.00     0.311 C 
HETATM   29  C7  UNK     1      17.805   7.460  33.592  1.00  0.00     0.547 C 
HETATM   30  N3  UNK     1      17.143   7.000  32.347  1.00  0.00     0.147 N 
HETATM   31  C4  UNK     1      16.827   5.561  32.476  1.00  0.00     0.311 C 
ENDBRANCH  20  22
ENDBRANCH   5  19
TORSDOF 2
ENDMDL
MODEL 3
REMARK VINA RESULT:      -9.6     13.703     15.211
REMARK  2 active torsions:
REMARK  status: ('A' for Active; 'I' for Inactive)
REMARK    1  A    between atoms: C1_9  and  N4_8 
REMARK    2  A    between atoms: C8_16  and  C9_17 
ROOT
HETATM    1  O1  UNK     1      27.322  -6.447  38.746  1.00  0.00    -0.332 OA
HETATM    2  O2  UNK     1      26.985  -9.162  36.391  1.00  0.00    -0.289 OA
HETATM    3  O3  UNK     1      30.815  -5.836  35.414  1.00  0.00    -0.274 OA
HETATM    4  O4  UNK     1      32.526  -5.548  33.919  1.00  0.00    -0.260 OA
HETATM    5  C9  UNK     1      28.293  -7.174  36.196  1.00  0.00     0.044 C 
HETATM    6  C10 UNK     1      28.983  -6.144  36.988  1.00  0.00     0.048 A 
HETATM    7  C11 UNK     1      27.429  -8.150  36.928  1.00  0.00     0.196 C 
HETATM    8  C12 UNK     1      27.167  -7.825  38.402  1.00  0.00     0.125 C 
HETATM    9  C13 UNK     1      28.429  -5.821  38.235  1.00  0.00     0.084 A 
HETATM   10  C14 UNK     1      30.158  -5.469  36.614  1.00  0.00     0.103 A 
HETATM   11  C15 UNK     1      25.705  -8.163  38.722  1.00  0.00     0.055 C 
HETATM   12  C16 UNK     1      28.087  -8.683  39.281  1.00  0.00     0.055 C 
HETATM   13  C17 UNK     1      28.967  -4.800  39.026  1.00  0.00     0.039 A 
HETATM   14  C18 UNK     1      30.722  -4.462  37.405  1.00  0.00    -0.001 A 
HETATM   15  C19 UNK     1      30.110  -4.120  38.610  1.00  0.00     0.017 A 
HETATM   16  C20 UNK     1      31.934  -3.795  36.958  1.00  0.00     0.020 A 
HETATM   17  C21 UNK     1      31.979  -5.222  34.965  1.00  0.00     0.288 A 
HETATM   18  C22 UNK     1      32.522  -4.149  35.814  1.00  0.00     0.083 A 
ENDROOT
BRANCH   5  19
HETATM   19  C8  UNK     1      28.277  -7.242  34.856  1.00  0.00     0.100 C 
HETATM   20  N4  UNK     1      29.038  -8.023  34.058  1.00  0.00    -0.384 N 
HETATM   21  H13 UNK     1      29.713  -8.640  34.495  1.00  0.00     0.159 HD
BRANCH  20  22
HETATM   22  C1  UNK     1      28.972  -8.004  32.613  1.00  0.00     0.109 C 
HETATM   23  C2  UNK     1      28.836  -9.438  32.065  1.00  0.00     0.311 C 
HETATM   24  N1  UNK     1      28.773  -9.393  30.587  1.00  0.00     0.147 N 
HETATM   25  C5  UNK     1      30.007  -8.751  30.074  1.00  0.00     0.547 C 
HETATM   26  C6  UNK     1      27.613  -8.565  30.181  1.00  0.00     0.547 C 
HETATM   27  N2  UNK     1      30.169  -7.358  30.557  1.00  0.00     0.147 N 
HETATM   28  C3  UNK     1      30.253  -7.370  32.033  1.00  0.00     0.311 C 
HETATM   29  C7  UNK     1      28.973  -6.582  30.151  1.00  0.00     0.547 C 
HETATM   30  N3  UNK     1      27.711  -7.167  30.666  1.00  0.00     0.147 N 
HETATM   31  C4  UNK     1      27.757  -7.176  32.144  1.00  0.00     0.311 C 
ENDBRANCH  20  22
ENDBRANCH   5  19
TORSDOF 2
ENDMDL
MODEL 4
REMARK VINA RESULT:      -9.0      2.535      6.272
REMARK  2 active torsions:
REMARK  status: ('A' for Active; 'I' for Inactive)
REMARK    1  A    between atoms: C1_9  and  N4_8 
REMARK    2  A    between atoms: C8_16  and  C9_17 
ROOT
HETATM    1  O1  UNK     1      17.840   4.359  30.529  1.00  0.00    -0.332 OA
HETATM    2  O2  UNK     1      18.267   4.544  34.109  1.00  0.00    -0.289 OA
HETATM    3  O3  UNK     1      19.585   0.042  31.944  1.00  0.00    -0.274 OA
HETATM    4  O4  UNK     1      20.481  -1.978  32.546  1.00  0.00    -0.260 OA
HETATM    5  C9  UNK     1      18.338   2.619  32.697  1.00  0.00     0.044 C 
HETATM    6  C10 UNK     1      18.618   2.188  31.318  1.00  0.00     0.048 A 
HETATM    7  C11 UNK     1      18.284   4.089  32.968  1.00  0.00     0.196 C 
HETATM    8  C12 UNK     1      18.292   4.990  31.729  1.00  0.00     0.125 C 
HETATM    9  C13 UNK     1      18.324   3.099  30.293  1.00  0.00     0.084 A 
HETATM   10  C14 UNK     1      19.171   0.953  30.940  1.00  0.00     0.103 A 
HETATM   11  C15 UNK     1      17.320   6.154  31.968  1.00  0.00     0.055 C 
HETATM   12  C16 UNK     1      19.705   5.547  31.517  1.00  0.00     0.055 C 
HETATM   13  C17 UNK     1      18.482   2.752  28.947  1.00  0.00     0.039 A 
HETATM   14  C18 UNK     1      19.358   0.601  29.599  1.00  0.00    -0.001 A 
HETATM   15  C19 UNK     1      18.995   1.504  28.601  1.00  0.00     0.017 A 
HETATM   16  C20 UNK     1      19.926  -0.697  29.272  1.00  0.00     0.020 A 
HETATM   17  C21 UNK     1      20.139  -1.201  31.662  1.00  0.00     0.288 A 
HETATM   18  C22 UNK     1      20.291  -1.542  30.238  1.00  0.00     0.083 A 
ENDROOT
BRANCH   5  19
HETATM   19  C8  UNK     1      18.008   1.807  33.713  1.00  0.00     0.100 C 
HETATM   20  N4  UNK     1      18.833   1.041  34.461  1.00  0.00    -0.384 N 
HETATM   21  H13 UNK     1      19.824   1.059  34.251  1.00  0.00     0.159 HD
BRANCH  20  22
HETATM   22  C1  UNK     1      18.379   0.167  35.520  1.00  0.00     0.109 C 
HETATM   23  C2  UNK     1      19.437  -0.915  35.812  1.00  0.00     0.311 C 
HETATM   24  N1  UNK     1      18.950  -1.797  36.896  1.00  0.00     0.147 N 
HETATM   25  C5  UNK     1      17.671  -2.415  36.472  1.00  0.00     0.547 C 
HETATM   26  C6  UNK     1      18.693  -0.976  38.103  1.00  0.00     0.547 C 
HETATM   27  N2  UNK     1      16.613  -1.411  36.203  1.00  0.00     0.147 N 
HETATM   28  C3  UNK     1      17.062  -0.524  35.109  1.00  0.00     0.311 C 
HETATM   29  C7  UNK     1      16.416  -0.602  37.429  1.00  0.00     0.547 C 
HETATM   30  N3  UNK     1      17.662   0.065  37.878  1.00  0.00     0.147 N 
HETATM   31  C4  UNK     1      18.129   0.976  36.811  1.00  0.00     0.311 C 
ENDBRANCH  20  22
ENDBRANCH   5  19
TORSDOF 2
ENDMDL
MODEL 5
REMARK VINA RESULT:      -8.9      2.534      6.334
REMARK  2 active torsions:
REMARK  status: ('A' for Active; 'I' for Inactive)
REMARK    1  A    between atoms: C1_9  and  N4_8 
REMARK    2  A    between atoms: C8_16  and  C9_17 
ROOT
HETATM    1  O1  UNK     1      18.999   6.791  31.925  1.00  0.00    -0.332 OA
HETATM    2  O2  UNK     1      19.734   5.512  35.220  1.00  0.00    -0.289 OA
HETATM    3  O3  UNK     1      18.762   1.939  31.617  1.00  0.00    -0.274 OA
HETATM    4  O4  UNK     1      18.719  -0.340  31.399  1.00  0.00    -0.260 OA
HETATM    5  C9  UNK     1      18.842   4.349  33.335  1.00  0.00     0.044 C 
HETATM    6  C10 UNK     1      18.797   4.362  31.864  1.00  0.00     0.048 A 
HETATM    7  C11 UNK     1      19.462   5.523  34.022  1.00  0.00     0.196 C 
HETATM    8  C12 UNK     1      19.772   6.725  33.125  1.00  0.00     0.125 C 
HETATM    9  C13 UNK     1      18.858   5.614  31.236  1.00  0.00     0.084 A 
HETATM   10  C14 UNK     1      18.718   3.230  31.034  1.00  0.00     0.103 A 
HETATM   11  C15 UNK     1      19.435   8.008  33.896  1.00  0.00     0.055 C 
HETATM   12  C16 UNK     1      21.266   6.724  32.775  1.00  0.00     0.055 C 
HETATM   13  C17 UNK     1      18.744   5.735  29.847  1.00  0.00     0.039 A 
HETATM   14  C18 UNK     1      18.627   3.334  29.642  1.00  0.00    -0.001 A 
HETATM   15  C19 UNK     1      18.625   4.596  29.052  1.00  0.00     0.017 A 
HETATM   16  C20 UNK     1      18.539   2.125  28.839  1.00  0.00     0.020 A 
HETATM   17  C21 UNK     1      18.688   0.767  30.874  1.00  0.00     0.288 A 
HETATM   18  C22 UNK     1      18.565   0.922  29.416  1.00  0.00     0.083 A 
ENDROOT
BRANCH   5  19
HETATM   19  C8  UNK     1      18.265   3.426  34.121  1.00  0.00     0.100 C 
HETATM   20  N4  UNK     1      18.817   2.292  34.608  1.00  0.00    -0.384 N 
HETATM   21  H13 UNK     1      19.779   2.085  34.364  1.00  0.00     0.159 HD
BRANCH  20  22
HETATM   22  C1  UNK     1      18.103   1.337  35.426  1.00  0.00     0.109 C 
HETATM   23  C2  UNK     1      16.876   0.794  34.668  1.00  0.00     0.311 C 
HETATM   24  N1  UNK     1      16.161  -0.178  35.525  1.00  0.00     0.147 N 
HETATM   25  C5  UNK     1      15.746   0.501  36.776  1.00  0.00     0.547 C 
HETATM   26  C6  UNK     1      17.089  -1.279  35.878  1.00  0.00     0.547 C 
HETATM   27  N2  UNK     1      16.898   1.021  37.553  1.00  0.00     0.147 N 
HETATM   28  C3  UNK     1      17.624   2.010  36.729  1.00  0.00     0.311 C 
HETATM   29  C7  UNK     1      17.805  -0.112  37.854  1.00  0.00     0.547 C 
HETATM   30  N3  UNK     1      18.276  -0.807  36.632  1.00  0.00     0.147 N 
HETATM   31  C4  UNK     1      19.023   0.154  35.793  1.00  0.00     0.311 C 
ENDBRANCH  20  22
ENDBRANCH   5  19
TORSDOF 2
ENDMDL
MODEL 6
REMARK VINA RESULT:      -8.9      4.854      8.489
REMARK  2 active torsions:
REMARK  status: ('A' for Active; 'I' for Inactive)
REMARK    1  A    between atoms: C1_9  and  N4_8 
REMARK    2  A    between atoms: C8_16  and  C9_17 
ROOT
HETATM    1  O1  UNK     1      17.331   1.154  35.136  1.00  0.00    -0.332 OA
HETATM    2  O2  UNK     1      18.342  -0.884  37.939  1.00  0.00    -0.289 OA
HETATM    3  O3  UNK     1      20.120  -2.404  33.333  1.00  0.00    -0.274 OA
HETATM    4  O4  UNK     1      21.492  -4.009  32.445  1.00  0.00    -0.260 OA
HETATM    5  C9  UNK     1      18.542  -1.355  35.607  1.00  0.00     0.044 C 
HETATM    6  C10 UNK     1      18.652  -0.712  34.287  1.00  0.00     0.048 A 
HETATM    7  C11 UNK     1      18.246  -0.480  36.783  1.00  0.00     0.196 C 
HETATM    8  C12 UNK     1      17.855   0.963  36.451  1.00  0.00     0.125 C 
HETATM    9  C13 UNK     1      18.006   0.522  34.123  1.00  0.00     0.084 A 
HETATM   10  C14 UNK     1      19.363  -1.216  33.185  1.00  0.00     0.103 A 
HETATM   11  C15 UNK     1      16.730   1.394  37.403  1.00  0.00     0.055 C 
HETATM   12  C16 UNK     1      19.069   1.878  36.659  1.00  0.00     0.055 C 
HETATM   13  C17 UNK     1      17.988   1.172  32.885  1.00  0.00     0.039 A 
HETATM   14  C18 UNK     1      19.375  -0.565  31.947  1.00  0.00    -0.001 A 
HETATM   15  C19 UNK     1      18.669   0.628  31.797  1.00  0.00     0.017 A 
HETATM   16  C20 UNK     1      20.122  -1.143  30.841  1.00  0.00     0.020 A 
HETATM   17  C21 UNK     1      20.851  -2.975  32.298  1.00  0.00     0.288 A 
HETATM   18  C22 UNK     1      20.812  -2.273  31.005  1.00  0.00     0.083 A 
ENDROOT
BRANCH   5  19
HETATM   19  C8  UNK     1      18.565  -2.678  35.830  1.00  0.00     0.100 C 
HETATM   20  N4  UNK     1      19.610  -3.429  36.241  1.00  0.00    -0.384 N 
HETATM   21  H13 UNK     1      20.497  -2.966  36.405  1.00  0.00     0.159 HD
BRANCH  20  22
HETATM   22  C1  UNK     1      19.548  -4.862  36.425  1.00  0.00     0.109 C 
HETATM   23  C2  UNK     1      18.101  -5.301  36.724  1.00  0.00     0.311 C 
HETATM   24  N1  UNK     1      18.063  -6.768  36.911  1.00  0.00     0.147 N 
HETATM   25  C5  UNK     1      18.964  -7.132  38.032  1.00  0.00     0.547 C 
HETATM   26  C6  UNK     1      18.565  -7.422  35.679  1.00  0.00     0.547 C 
HETATM   27  N2  UNK     1      20.374  -6.750  37.779  1.00  0.00     0.147 N 
HETATM   28  C3  UNK     1      20.449  -5.284  37.605  1.00  0.00     0.311 C 
HETATM   29  C7  UNK     1      20.816  -7.405  36.525  1.00  0.00     0.547 C 
HETATM   30  N3  UNK     1      19.965  -7.048  35.364  1.00  0.00     0.147 N 
HETATM   31  C4  UNK     1      20.033  -5.587  35.152  1.00  0.00     0.311 C 
ENDBRANCH  20  22
ENDBRANCH   5  19
TORSDOF 2
ENDMDL
MODEL 7
REMARK VINA RESULT:      -8.8     13.349     15.930
REMARK  2 active torsions:
REMARK  status: ('A' for Active; 'I' for Inactive)
REMARK    1  A    between atoms: C1_9  and  N4_8 
REMARK    2  A    between atoms: C8_16  and  C9_17 
ROOT
HETATM    1  O1  UNK     1      28.959  -5.313  38.576  1.00  0.00    -0.332 OA
HETATM    2  O2  UNK     1      26.963  -7.400  36.409  1.00  0.00    -0.289 OA
HETATM    3  O3  UNK     1      32.008  -7.239  35.308  1.00  0.00    -0.274 OA
HETATM    4  O4  UNK     1      33.497  -8.182  33.846  1.00  0.00    -0.260 OA
HETATM    5  C9  UNK     1      29.216  -6.668  36.112  1.00  0.00     0.044 C 
HETATM    6  C10 UNK     1      30.413  -6.232  36.849  1.00  0.00     0.048 A 
HETATM    7  C11 UNK     1      27.950  -6.844  36.886  1.00  0.00     0.196 C 
HETATM    8  C12 UNK     1      27.977  -6.320  38.325  1.00  0.00     0.125 C 
HETATM    9  C13 UNK     1      30.204  -5.545  38.053  1.00  0.00     0.084 A 
HETATM   10  C14 UNK     1      31.745  -6.458  36.461  1.00  0.00     0.103 A 
HETATM   11  C15 UNK     1      26.627  -5.656  38.627  1.00  0.00     0.055 C 
HETATM   12  C16 UNK     1      28.187  -7.496  39.288  1.00  0.00     0.055 C 
HETATM   13  C17 UNK     1      31.276  -5.022  38.785  1.00  0.00     0.039 A 
HETATM   14  C18 UNK     1      32.828  -5.962  37.195  1.00  0.00    -0.001 A 
HETATM   15  C19 UNK     1      32.585  -5.228  38.355  1.00  0.00     0.017 A 
HETATM   16  C20 UNK     1      34.182  -6.223  36.736  1.00  0.00     0.020 A 
HETATM   17  C21 UNK     1      33.292  -7.511  34.851  1.00  0.00     0.288 A 
HETATM   18  C22 UNK     1      34.401  -6.947  35.637  1.00  0.00     0.083 A 
ENDROOT
BRANCH   5  19
HETATM   19  C8  UNK     1      29.133  -6.809  34.780  1.00  0.00     0.100 C 
HETATM   20  N4  UNK     1      29.193  -7.953  34.063  1.00  0.00    -0.384 N 
HETATM   21  H13 UNK     1      29.319  -8.825  34.564  1.00  0.00     0.159 HD
BRANCH  20  22
HETATM   22  C1  UNK     1      29.125  -8.003  32.619  1.00  0.00     0.109 C 
HETATM   23  C2  UNK     1      30.411  -7.417  32.003  1.00  0.00     0.311 C 
HETATM   24  N1  UNK     1      30.317  -7.476  30.527  1.00  0.00     0.147 N 
HETATM   25  C5  UNK     1      29.128  -6.705  30.091  1.00  0.00     0.547 C 
HETATM   26  C6  UNK     1      30.134  -8.888  30.114  1.00  0.00     0.547 C 
HETATM   27  N2  UNK     1      27.862  -7.247  30.642  1.00  0.00     0.147 N 
HETATM   28  C3  UNK     1      27.917  -7.185  32.118  1.00  0.00     0.311 C 
HETATM   29  C7  UNK     1      27.743  -8.665  30.225  1.00  0.00     0.547 C 
HETATM   30  N3  UNK     1      28.895  -9.488  30.664  1.00  0.00     0.147 N 
HETATM   31  C4  UNK     1      28.966  -9.461  32.141  1.00  0.00     0.311 C 
ENDBRANCH  20  22
ENDBRANCH   5  19
TORSDOF 2
ENDMDL
MODEL 8
REMARK VINA RESULT:      -8.7     14.126     17.004
REMARK  2 active torsions:
REMARK  status: ('A' for Active; 'I' for Inactive)
REMARK    1  A    between atoms: C1_9  and  N4_8 
REMARK    2  A    between atoms: C8_16  and  C9_17 
ROOT
HETATM    1  O1  UNK     1      30.990 -11.502  29.627  1.00  0.00    -0.332 OA
HETATM    2  O2  UNK     1      32.726 -11.343  32.789  1.00  0.00    -0.289 OA
HETATM    3  O3  UNK     1      28.993  -7.834  32.126  1.00  0.00    -0.274 OA
HETATM    4  O4  UNK     1      27.965  -6.151  33.291  1.00  0.00    -0.260 OA
HETATM    5  C9  UNK     1      31.231  -9.748  31.828  1.00  0.00     0.044 C 
HETATM    6  C10 UNK     1      30.104  -9.615  30.891  1.00  0.00     0.048 A 
HETATM    7  C11 UNK     1      31.922 -11.072  31.900  1.00  0.00     0.196 C 
HETATM    8  C12 UNK     1      31.530 -12.081  30.816  1.00  0.00     0.125 C 
HETATM    9  C13 UNK     1      30.064 -10.508  29.811  1.00  0.00     0.084 A 
HETATM   10  C14 UNK     1      29.055  -8.685  30.995  1.00  0.00     0.103 A 
HETATM   11  C15 UNK     1      32.794 -12.827  30.367  1.00  0.00     0.055 C 
HETATM   12  C16 UNK     1      30.530 -13.088  31.399  1.00  0.00     0.055 C 
HETATM   13  C17 UNK     1      29.076 -10.410  28.825  1.00  0.00     0.039 A 
HETATM   14  C18 UNK     1      28.046  -8.591  30.030  1.00  0.00    -0.001 A 
HETATM   15  C19 UNK     1      28.071  -9.451  28.933  1.00  0.00     0.017 A 
HETATM   16  C20 UNK     1      26.994  -7.601  30.190  1.00  0.00     0.020 A 
HETATM   17  C21 UNK     1      27.994  -6.885  32.310  1.00  0.00     0.288 A 
HETATM   18  C22 UNK     1      26.969  -6.800  31.257  1.00  0.00     0.083 A 
ENDROOT
BRANCH   5  19
HETATM   19  C8  UNK     1      31.772  -8.747  32.539  1.00  0.00     0.100 C 
HETATM   20  N4  UNK     1      31.592  -8.471  33.849  1.00  0.00    -0.384 N 
HETATM   21  H13 UNK     1      30.977  -9.074  34.385  1.00  0.00     0.159 HD
BRANCH  20  22
HETATM   22  C1  UNK     1      32.196  -7.344  34.526  1.00  0.00     0.109 C 
HETATM   23  C2  UNK     1      33.204  -6.640  33.596  1.00  0.00     0.311 C 
HETATM   24  N1  UNK     1      33.810  -5.494  34.310  1.00  0.00     0.147 N 
HETATM   25  C5  UNK     1      34.484  -5.993  35.533  1.00  0.00     0.547 C 
HETATM   26  C6  UNK     1      32.734  -4.561  34.719  1.00  0.00     0.547 C 
HETATM   27  N2  UNK     1      33.548  -6.659  36.470  1.00  0.00     0.147 N 
HETATM   28  C3  UNK     1      32.938  -7.822  35.792  1.00  0.00     0.311 C 
HETATM   29  C7  UNK     1      32.479  -5.695  36.824  1.00  0.00     0.547 C 
HETATM   30  N3  UNK     1      31.751  -5.188  35.636  1.00  0.00     0.147 N 
HETATM   31  C4  UNK     1      31.113  -6.328  34.944  1.00  0.00     0.311 C 
ENDBRANCH  20  22
ENDBRANCH   5  19
TORSDOF 2
ENDMDL
MODEL 9
REMARK VINA RESULT:      -8.6     13.967     16.688
REMARK  2 active torsions:
REMARK  status: ('A' for Active; 'I' for Inactive)
REMARK    1  A    between atoms: C1_9  and  N4_8 
REMARK    2  A    between atoms: C8_16  and  C9_17 
ROOT
HETATM    1  O1  UNK     1      32.536  -4.833  37.178  1.00  0.00    -0.332 OA
HETATM    2  O2  UNK     1      29.264  -6.058  36.269  1.00  0.00    -0.289 OA
HETATM    3  O3  UNK     1      33.180  -7.862  33.424  1.00  0.00    -0.274 OA
HETATM    4  O4  UNK     1      33.547  -9.341  31.713  1.00  0.00    -0.260 OA
HETATM    5  C9  UNK     1      31.315  -6.249  35.061  1.00  0.00     0.044 C 
HETATM    6  C10 UNK     1      32.776  -6.282  35.232  1.00  0.00     0.048 A 
HETATM    7  C11 UNK     1      30.484  -5.908  36.256  1.00  0.00     0.196 C 
HETATM    8  C12 UNK     1      31.257  -5.396  37.475  1.00  0.00     0.125 C 
HETATM    9  C13 UNK     1      33.311  -5.536  36.292  1.00  0.00     0.084 A 
HETATM   10  C14 UNK     1      33.680  -7.010  34.439  1.00  0.00     0.103 A 
HETATM   11  C15 UNK     1      30.452  -4.259  38.120  1.00  0.00     0.055 C 
HETATM   12  C16 UNK     1      31.419  -6.537  38.488  1.00  0.00     0.055 C 
HETATM   13  C17 UNK     1      34.693  -5.442  36.488  1.00  0.00     0.039 A 
HETATM   14  C18 UNK     1      35.064  -6.945  34.638  1.00  0.00    -0.001 A 
HETATM   15  C19 UNK     1      35.568  -6.143  35.660  1.00  0.00     0.017 A 
HETATM   16  C20 UNK     1      35.947  -7.714  33.777  1.00  0.00     0.020 A 
HETATM   17  C21 UNK     1      34.000  -8.616  32.592  1.00  0.00     0.288 A 
HETATM   18  C22 UNK     1      35.449  -8.496  32.817  1.00  0.00     0.083 A 
ENDROOT
BRANCH   5  19
HETATM   19  C8  UNK     1      30.667  -6.383  33.894  1.00  0.00     0.100 C 
HETATM   20  N4  UNK     1      30.118  -7.504  33.376  1.00  0.00    -0.384 N 
HETATM   21  H13 UNK     1      30.193  -8.363  33.909  1.00  0.00     0.159 HD
BRANCH  20  22
HETATM   22  C1  UNK     1      29.463  -7.559  32.088  1.00  0.00     0.109 C 
HETATM   23  C2  UNK     1      30.041  -6.482  31.148  1.00  0.00     0.311 C 
HETATM   24  N1  UNK     1      29.354  -6.555  29.839  1.00  0.00     0.147 N 
HETATM   25  C5  UNK     1      27.901  -6.344  30.048  1.00  0.00     0.547 C 
HETATM   26  C6  UNK     1      29.551  -7.909  29.269  1.00  0.00     0.547 C 
HETATM   27  N2  UNK     1      27.295  -7.372  30.929  1.00  0.00     0.147 N 
HETATM   28  C3  UNK     1      27.949  -7.313  32.254  1.00  0.00     0.311 C 
HETATM   29  C7  UNK     1      27.545  -8.705  30.330  1.00  0.00     0.547 C 
HETATM   30  N3  UNK     1      28.988  -8.979  30.129  1.00  0.00     0.147 N 
HETATM   31  C4  UNK     1      29.669  -8.944  31.441  1.00  0.00     0.311 C 
ENDBRANCH  20  22
ENDBRANCH   5  19
TORSDOF 2
ENDMDL
MODEL 10
REMARK VINA RESULT:      -8.6     13.856     16.527
REMARK  2 active torsions:
REMARK  status: ('A' for Active; 'I' for Inactive)
REMARK    1  A    between atoms: C1_9  and  N4_8 
REMARK    2  A    between atoms: C8_16  and  C9_17 
ROOT
HETATM    1  O1  UNK     1      32.428  -4.708  37.184  1.00  0.00    -0.332 OA
HETATM    2  O2  UNK     1      29.231  -6.149  36.325  1.00  0.00    -0.289 OA
HETATM    3  O3  UNK     1      33.177  -7.531  33.291  1.00  0.00    -0.274 OA
HETATM    4  O4  UNK     1      33.598  -8.909  31.511  1.00  0.00    -0.260 OA
HETATM    5  C9  UNK     1      31.249  -6.133  35.049  1.00  0.00     0.044 C 
HETATM    6  C10 UNK     1      32.713  -6.058  35.174  1.00  0.00     0.048 A 
HETATM    7  C11 UNK     1      30.434  -5.903  36.281  1.00  0.00     0.196 C 
HETATM    8  C12 UNK     1      31.206  -5.380  37.496  1.00  0.00     0.125 C 
HETATM    9  C13 UNK     1      33.224  -5.314  36.247  1.00  0.00     0.084 A 
HETATM   10  C14 UNK     1      33.643  -6.682  34.325  1.00  0.00     0.103 A 
HETATM   11  C15 UNK     1      30.338  -4.335  38.211  1.00  0.00     0.055 C 
HETATM   12  C16 UNK     1      31.489  -6.543  38.456  1.00  0.00     0.055 C 
HETATM   13  C17 UNK     1      34.600  -5.120  36.405  1.00  0.00     0.039 A 
HETATM   14  C18 UNK     1      35.023  -6.517  34.484  1.00  0.00    -0.001 A 
HETATM   15  C19 UNK     1      35.498  -5.718  35.523  1.00  0.00     0.017 A 
HETATM   16  C20 UNK     1      35.934  -7.181  33.566  1.00  0.00     0.020 A 
HETATM   17  C21 UNK     1      34.023  -8.185  32.404  1.00  0.00     0.288 A 
HETATM   18  C22 UNK     1      35.466  -7.962  32.590  1.00  0.00     0.083 A 
ENDROOT
BRANCH   5  19
HETATM   19  C8  UNK     1      30.574  -6.271  33.897  1.00  0.00     0.100 C 
HETATM   20  N4  UNK     1      30.140  -7.416  33.326  1.00  0.00    -0.384 N 
HETATM   21  H13 UNK     1      30.336  -8.291  33.798  1.00  0.00     0.159 HD
BRANCH  20  22
HETATM   22  C1  UNK     1      29.444  -7.470  32.059  1.00  0.00     0.109 C 
HETATM   23  C2  UNK     1      27.929  -7.282  32.272  1.00  0.00     0.311 C 
HETATM   24  N1  UNK     1      27.240  -7.344  30.964  1.00  0.00     0.147 N 
HETATM   25  C5  UNK     1      27.522  -8.656  30.334  1.00  0.00     0.547 C 
HETATM   26  C6  UNK     1      27.781  -6.279  30.086  1.00  0.00     0.547 C 
HETATM   27  N2  UNK     1      28.968  -8.871  30.088  1.00  0.00     0.147 N 
HETATM   28  C3  UNK     1      29.686  -8.834  31.380  1.00  0.00     0.311 C 
HETATM   29  C7  UNK     1      29.464  -7.768  29.231  1.00  0.00     0.547 C 
HETATM   30  N3  UNK     1      29.234  -6.432  29.832  1.00  0.00     0.147 N 
HETATM   31  C4  UNK     1      29.955  -6.356  31.120  1.00  0.00     0.311 C 
ENDBRANCH  20  22
ENDBRANCH   5  19
TORSDOF 2
ENDMDL
