MODEL 1
REMARK VINA RESULT:      -7.2      0.000      0.000
REMARK  6 active torsions:
REMARK  status: ('A' for Active; 'I' for Inactive)
REMARK    1  A    between atoms: C11_15  and  O1_1 
REMARK    2  A    between atoms: C6_10  and  O1_1 
REMARK       I    between atoms: C7_11  and  N1_4 
REMARK    3  A    between atoms: C1_5  and  C6_10 
REMARK    4  A    between atoms: C7_11  and  C8_12 
REMARK    5  A    between atoms: C8_12  and  C9_13 
REMARK    6  A    between atoms: C10_14  and  C12_16 
ROOT
HETATM    1  C8  UNK     1      28.759  -7.550  35.274  1.00  0.00     0.043 C 
HETATM    2  C10 UNK     1      28.031  -6.826  34.406  1.00  0.00     0.029 C 
ENDROOT
BRANCH   1   3
HETATM    3  C7  UNK     1      29.990  -8.143  34.715  1.00  0.00     0.254 C 
HETATM    4  O3  UNK     1      29.882  -9.208  34.105  1.00  0.00    -0.267 OA
HETATM    5  N1  UNK     1      31.188  -7.461  34.912  1.00  0.00    -0.347 N 
HETATM    6  C3  UNK     1      31.351  -6.169  35.600  1.00  0.00     0.140 C 
HETATM    7  C5  UNK     1      32.425  -8.023  34.365  1.00  0.00     0.126 C 
HETATM    8  C1  UNK     1      32.447  -6.216  36.670  1.00  0.00     0.103 C 
HETATM    9  C2  UNK     1      33.740  -6.860  36.165  1.00  0.00     0.018 C 
HETATM   10  C4  UNK     1      33.482  -8.186  35.449  1.00  0.00     0.021 C 
BRANCH   8  11
HETATM   11  C6  UNK     1      31.958  -6.938  37.892  1.00  0.00     0.264 C 
HETATM   12  O2  UNK     1      32.455  -7.969  38.324  1.00  0.00    -0.265 OA
BRANCH  11  13
HETATM   13  O1  UNK     1      30.894  -6.269  38.422  1.00  0.00    -0.322 OA
BRANCH  13  14
HETATM   14  C11 UNK     1      31.095  -4.869  38.638  1.00  0.00     0.174 C 
HETATM   15  C15 UNK     1      29.778  -4.238  39.039  1.00  0.00     0.034 C 
ENDBRANCH  13  14
ENDBRANCH  11  13
ENDBRANCH   8  11
ENDBRANCH   1   3
BRANCH   1  16
HETATM   16  C9  UNK     1      28.423  -7.778  36.686  1.00  0.00    -0.021 A 
HETATM   17  C13 UNK     1      28.870  -8.931  37.316  1.00  0.00     0.012 A 
HETATM   18  C16 UNK     1      28.552  -9.147  38.657  1.00  0.00     0.001 A 
HETATM   19  C20 UNK     1      27.791  -8.208  39.353  1.00  0.00     0.000 A 
HETATM   20  C17 UNK     1      27.348  -7.053  38.710  1.00  0.00     0.001 A 
HETATM   21  C14 UNK     1      27.666  -6.836  37.369  1.00  0.00     0.012 A 
ENDBRANCH   1  16
BRANCH   2  22
HETATM   22  C12 UNK     1      28.361  -6.594  32.991  1.00  0.00    -0.035 A 
HETATM   23  C18 UNK     1      29.198  -5.541  32.651  1.00  0.00     0.011 A 
HETATM   24  C21 UNK     1      29.510  -5.319  31.310  1.00  0.00     0.001 A 
HETATM   25  C23 UNK     1      28.981  -6.153  30.324  1.00  0.00     0.000 A 
HETATM   26  C22 UNK     1      28.141  -7.208  30.680  1.00  0.00     0.001 A 
HETATM   27  C19 UNK     1      27.828  -7.430  32.021  1.00  0.00     0.011 A 
ENDBRANCH   2  22
TORSDOF 6
ENDMDL
MODEL 2
REMARK VINA RESULT:      -7.0      1.444      1.950
REMARK  6 active torsions:
REMARK  status: ('A' for Active; 'I' for Inactive)
REMARK    1  A    between atoms: C11_15  and  O1_1 
REMARK    2  A    between atoms: C6_10  and  O1_1 
REMARK       I    between atoms: C7_11  and  N1_4 
REMARK    3  A    between atoms: C1_5  and  C6_10 
REMARK    4  A    between atoms: C7_11  and  C8_12 
REMARK    5  A    between atoms: C8_12  and  C9_13 
REMARK    6  A    between atoms: C10_14  and  C12_16 
ROOT
HETATM    1  C8  UNK     1      29.578  -8.533  35.132  1.00  0.00     0.043 C 
HETATM    2  C10 UNK     1      28.496  -8.612  34.338  1.00  0.00     0.029 C 
ENDROOT
BRANCH   1   3
HETATM    3  C7  UNK     1      30.747  -7.862  34.529  1.00  0.00     0.254 C 
HETATM    4  O3  UNK     1      31.454  -8.525  33.768  1.00  0.00    -0.267 OA
HETATM    5  N1  UNK     1      30.972  -6.527  34.858  1.00  0.00    -0.347 N 
HETATM    6  C3  UNK     1      30.129  -5.692  35.731  1.00  0.00     0.140 C 
HETATM    7  C5  UNK     1      32.121  -5.834  34.272  1.00  0.00     0.126 C 
HETATM    8  C1  UNK     1      30.945  -4.978  36.814  1.00  0.00     0.103 C 
HETATM    9  C2  UNK     1      32.197  -4.296  36.260  1.00  0.00     0.018 C 
HETATM   10  C4  UNK     1      33.004  -5.223  35.352  1.00  0.00     0.021 C 
BRANCH   8  11
HETATM   11  C6  UNK     1      31.325  -5.940  37.904  1.00  0.00     0.264 C 
HETATM   12  O2  UNK     1      32.476  -6.272  38.154  1.00  0.00    -0.265 OA
BRANCH  11  13
HETATM   13  O1  UNK     1      30.202  -6.367  38.548  1.00  0.00    -0.322 OA
BRANCH  13  14
HETATM   14  C11 UNK     1      29.333  -5.333  39.021  1.00  0.00     0.174 C 
HETATM   15  C15 UNK     1      27.896  -5.763  38.816  1.00  0.00     0.034 C 
ENDBRANCH  13  14
ENDBRANCH  11  13
ENDBRANCH   8  11
ENDBRANCH   1   3
BRANCH   1  16
HETATM   16  C9  UNK     1      29.669  -9.049  36.505  1.00  0.00    -0.021 A 
HETATM   17  C13 UNK     1      30.894  -9.484  36.990  1.00  0.00     0.012 A 
HETATM   18  C16 UNK     1      30.981  -9.973  38.294  1.00  0.00     0.001 A 
HETATM   19  C20 UNK     1      29.842 -10.021  39.098  1.00  0.00     0.000 A 
HETATM   20  C17 UNK     1      28.616  -9.579  38.599  1.00  0.00     0.001 A 
HETATM   21  C14 UNK     1      28.530  -9.090  37.296  1.00  0.00     0.012 A 
ENDBRANCH   1  16
BRANCH   2  22
HETATM   22  C12 UNK     1      28.398  -8.099  32.964  1.00  0.00    -0.035 A 
HETATM   23  C18 UNK     1      28.083  -6.763  32.756  1.00  0.00     0.011 A 
HETATM   24  C21 UNK     1      27.989  -6.276  31.452  1.00  0.00     0.001 A 
HETATM   25  C23 UNK     1      28.210  -7.130  30.371  1.00  0.00     0.000 A 
HETATM   26  C22 UNK     1      28.525  -8.470  30.594  1.00  0.00     0.001 A 
HETATM   27  C19 UNK     1      28.619  -8.958  31.897  1.00  0.00     0.011 A 
ENDBRANCH   2  22
TORSDOF 6
ENDMDL
MODEL 3
REMARK VINA RESULT:      -6.9      2.497      6.530
REMARK  6 active torsions:
REMARK  status: ('A' for Active; 'I' for Inactive)
REMARK    1  A    between atoms: C11_15  and  O1_1 
REMARK    2  A    between atoms: C6_10  and  O1_1 
REMARK       I    between atoms: C7_11  and  N1_4 
REMARK    3  A    between atoms: C1_5  and  C6_10 
REMARK    4  A    between atoms: C7_11  and  C8_12 
REMARK    5  A    between atoms: C8_12  and  C9_13 
REMARK    6  A    between atoms: C10_14  and  C12_16 
ROOT
HETATM    1  C8  UNK     1      29.886  -6.193  33.787  1.00  0.00     0.043 C 
HETATM    2  C10 UNK     1      29.382  -6.332  35.026  1.00  0.00     0.029 C 
ENDROOT
BRANCH   1   3
HETATM    3  C7  UNK     1      31.351  -6.024  33.724  1.00  0.00     0.254 C 
HETATM    4  O3  UNK     1      31.811  -4.923  34.032  1.00  0.00    -0.267 OA
HETATM    5  N1  UNK     1      32.116  -7.118  33.324  1.00  0.00    -0.347 N 
HETATM    6  C3  UNK     1      31.607  -8.458  32.987  1.00  0.00     0.140 C 
HETATM    7  C5  UNK     1      33.572  -6.982  33.256  1.00  0.00     0.126 C 
HETATM    8  C1  UNK     1      32.138  -8.959  31.639  1.00  0.00     0.103 C 
HETATM    9  C2  UNK     1      33.650  -8.772  31.493  1.00  0.00     0.018 C 
HETATM   10  C4  UNK     1      34.097  -7.362  31.878  1.00  0.00     0.021 C 
BRANCH   8  11
HETATM   11  C6  UNK     1      31.426  -8.275  30.507  1.00  0.00     0.264 C 
HETATM   12  O2  UNK     1      31.874  -7.316  29.895  1.00  0.00    -0.265 OA
BRANCH  11  13
HETATM   13  O1  UNK     1      30.228  -8.888  30.286  1.00  0.00    -0.322 OA
BRANCH  13  14
HETATM   14  C11 UNK     1      29.799  -8.924  28.921  1.00  0.00     0.174 C 
HETATM   15  C15 UNK     1      28.464  -9.634  28.842  1.00  0.00     0.034 C 
ENDBRANCH  13  14
ENDBRANCH  11  13
ENDBRANCH   8  11
ENDBRANCH   1   3
BRANCH   1  16
HETATM   16  C9  UNK     1      29.105  -6.201  32.542  1.00  0.00    -0.021 A 
HETATM   17  C13 UNK     1      29.475  -5.363  31.500  1.00  0.00     0.012 A 
HETATM   18  C16 UNK     1      28.734  -5.371  30.318  1.00  0.00     0.001 A 
HETATM   19  C20 UNK     1      27.632  -6.216  30.191  1.00  0.00     0.000 A 
HETATM   20  C17 UNK     1      27.270  -7.054  31.246  1.00  0.00     0.001 A 
HETATM   21  C14 UNK     1      28.011  -7.047  32.428  1.00  0.00     0.012 A 
ENDBRANCH   1  16
BRANCH   2  22
HETATM   22  C12 UNK     1      30.157  -6.325  36.275  1.00  0.00    -0.035 A 
HETATM   23  C18 UNK     1      30.236  -5.158  37.022  1.00  0.00     0.011 A 
HETATM   24  C21 UNK     1      30.971  -5.150  38.207  1.00  0.00     0.001 A 
HETATM   25  C23 UNK     1      31.620  -6.309  38.632  1.00  0.00     0.000 A 
HETATM   26  C22 UNK     1      31.532  -7.476  37.873  1.00  0.00     0.001 A 
HETATM   27  C19 UNK     1      30.798  -7.484  36.687  1.00  0.00     0.011 A 
ENDBRANCH   2  22
TORSDOF 6
ENDMDL
MODEL 4
REMARK VINA RESULT:      -6.9      2.162      6.571
REMARK  6 active torsions:
REMARK  status: ('A' for Active; 'I' for Inactive)
REMARK    1  A    between atoms: C11_15  and  O1_1 
REMARK    2  A    between atoms: C6_10  and  O1_1 
REMARK       I    between atoms: C7_11  and  N1_4 
REMARK    3  A    between atoms: C1_5  and  C6_10 
REMARK    4  A    between atoms: C7_11  and  C8_12 
REMARK    5  A    between atoms: C8_12  and  C9_13 
REMARK    6  A    between atoms: C10_14  and  C12_16 
ROOT
HETATM    1  C8  UNK     1      28.865  -7.154  34.736  1.00  0.00     0.043 C 
HETATM    2  C10 UNK     1      27.870  -6.949  35.616  1.00  0.00     0.029 C 
ENDROOT
BRANCH   1   3
HETATM    3  C7  UNK     1      29.955  -8.026  35.217  1.00  0.00     0.254 C 
HETATM    4  O3  UNK     1      30.791  -7.527  35.973  1.00  0.00    -0.267 OA
HETATM    5  N1  UNK     1      29.965  -9.351  34.788  1.00  0.00    -0.347 N 
HETATM    6  C3  UNK     1      28.963  -9.991  33.918  1.00  0.00     0.140 C 
HETATM    7  C5  UNK     1      31.032 -10.241  35.252  1.00  0.00     0.126 C 
HETATM    8  C1  UNK     1      29.606 -10.732  32.740  1.00  0.00     0.103 C 
HETATM    9  C2  UNK     1      30.774 -11.623  33.167  1.00  0.00     0.018 C 
HETATM   10  C4  UNK     1      31.756 -10.889  34.080  1.00  0.00     0.021 C 
BRANCH   8  11
HETATM   11  C6  UNK     1      30.063  -9.756  31.693  1.00  0.00     0.264 C 
HETATM   12  O2  UNK     1      31.167  -9.230  31.682  1.00  0.00    -0.265 OA
BRANCH  11  13
HETATM   13  O1  UNK     1      29.064  -9.561  30.785  1.00  0.00    -0.322 OA
BRANCH  13  14
HETATM   14  C11 UNK     1      29.476  -9.537  29.415  1.00  0.00     0.174 C 
HETATM   15  C15 UNK     1      28.289  -9.873  28.537  1.00  0.00     0.034 C 
ENDBRANCH  13  14
ENDBRANCH  11  13
ENDBRANCH   8  11
ENDBRANCH   1   3
BRANCH   1  16
HETATM   16  C9  UNK     1      28.935  -6.590  33.380  1.00  0.00    -0.021 A 
HETATM   17  C13 UNK     1      27.876  -6.786  32.504  1.00  0.00     0.012 A 
HETATM   18  C16 UNK     1      27.942  -6.251  31.218  1.00  0.00     0.001 A 
HETATM   19  C20 UNK     1      29.065  -5.524  30.822  1.00  0.00     0.000 A 
HETATM   20  C17 UNK     1      30.122  -5.333  31.712  1.00  0.00     0.001 A 
HETATM   21  C14 UNK     1      30.056  -5.868  32.998  1.00  0.00     0.012 A 
ENDBRANCH   1  16
BRANCH   2  22
HETATM   22  C12 UNK     1      27.793  -7.510  36.973  1.00  0.00    -0.035 A 
HETATM   23  C18 UNK     1      27.340  -8.810  37.149  1.00  0.00     0.011 A 
HETATM   24  C21 UNK     1      27.266  -9.342  38.436  1.00  0.00     0.001 A 
HETATM   25  C23 UNK     1      27.645  -8.568  39.533  1.00  0.00     0.000 A 
HETATM   26  C22 UNK     1      28.099  -7.263  39.343  1.00  0.00     0.001 A 
HETATM   27  C19 UNK     1      28.173  -6.730  38.056  1.00  0.00     0.011 A 
ENDBRANCH   2  22
TORSDOF 6
ENDMDL
MODEL 5
REMARK VINA RESULT:      -6.8      1.859      4.131
REMARK  6 active torsions:
REMARK  status: ('A' for Active; 'I' for Inactive)
REMARK    1  A    between atoms: C11_15  and  O1_1 
REMARK    2  A    between atoms: C6_10  and  O1_1 
REMARK       I    between atoms: C7_11  and  N1_4 
REMARK    3  A    between atoms: C1_5  and  C6_10 
REMARK    4  A    between atoms: C7_11  and  C8_12 
REMARK    5  A    between atoms: C8_12  and  C9_13 
REMARK    6  A    between atoms: C10_14  and  C12_16 
ROOT
HETATM    1  C8  UNK     1      31.109  -6.297  33.614  1.00  0.00     0.043 C 
HETATM    2  C10 UNK     1      30.899  -6.484  32.300  1.00  0.00     0.029 C 
ENDROOT
BRANCH   1   3
HETATM    3  C7  UNK     1      30.049  -6.823  34.497  1.00  0.00     0.254 C 
HETATM    4  O3  UNK     1      29.038  -6.134  34.645  1.00  0.00    -0.267 OA
HETATM    5  N1  UNK     1      30.259  -8.061  35.101  1.00  0.00    -0.347 N 
HETATM    6  C3  UNK     1      31.434  -8.929  34.918  1.00  0.00     0.140 C 
HETATM    7  C5  UNK     1      29.223  -8.609  35.979  1.00  0.00     0.126 C 
HETATM    8  C1  UNK     1      32.035  -9.381  36.254  1.00  0.00     0.103 C 
HETATM    9  C2  UNK     1      30.979  -9.899  37.232  1.00  0.00     0.018 C 
HETATM   10  C4  UNK     1      29.787  -8.950  37.351  1.00  0.00     0.021 C 
BRANCH   8  11
HETATM   11  C6  UNK     1      32.814  -8.263  36.885  1.00  0.00     0.264 C 
HETATM   12  O2  UNK     1      33.876  -7.838  36.452  1.00  0.00    -0.265 OA
BRANCH  11  13
HETATM   13  O1  UNK     1      32.154  -7.815  37.991  1.00  0.00    -0.322 OA
BRANCH  13  14
HETATM   14  C11 UNK     1      32.332  -6.429  38.294  1.00  0.00     0.174 C 
HETATM   15  C15 UNK     1      30.977  -5.756  38.348  1.00  0.00     0.034 C 
ENDBRANCH  13  14
ENDBRANCH  11  13
ENDBRANCH   8  11
ENDBRANCH   1   3
BRANCH   1  16
HETATM   16  C9  UNK     1      32.279  -5.633  34.206  1.00  0.00    -0.021 A 
HETATM   17  C13 UNK     1      33.553  -6.026  33.821  1.00  0.00     0.012 A 
HETATM   18  C16 UNK     1      34.664  -5.395  34.382  1.00  0.00     0.001 A 
HETATM   19  C20 UNK     1      34.488  -4.378  35.321  1.00  0.00     0.000 A 
HETATM   20  C17 UNK     1      33.202  -3.992  35.699  1.00  0.00     0.001 A 
HETATM   21  C14 UNK     1      32.092  -4.622  35.138  1.00  0.00     0.012 A 
ENDBRANCH   1  16
BRANCH   2  22
HETATM   22  C12 UNK     1      29.732  -7.147  31.701  1.00  0.00    -0.035 A 
HETATM   23  C18 UNK     1      29.729  -8.528  31.562  1.00  0.00     0.011 A 
HETATM   24  C21 UNK     1      28.623  -9.158  30.993  1.00  0.00     0.001 A 
HETATM   25  C23 UNK     1      27.531  -8.400  30.568  1.00  0.00     0.000 A 
HETATM   26  C22 UNK     1      27.546  -7.013  30.714  1.00  0.00     0.001 A 
HETATM   27  C19 UNK     1      28.652  -6.382  31.283  1.00  0.00     0.011 A 
ENDBRANCH   2  22
TORSDOF 6
ENDMDL
MODEL 6
REMARK VINA RESULT:      -6.8      0.992      1.810
REMARK  6 active torsions:
REMARK  status: ('A' for Active; 'I' for Inactive)
REMARK    1  A    between atoms: C11_15  and  O1_1 
REMARK    2  A    between atoms: C6_10  and  O1_1 
REMARK       I    between atoms: C7_11  and  N1_4 
REMARK    3  A    between atoms: C1_5  and  C6_10 
REMARK    4  A    between atoms: C7_11  and  C8_12 
REMARK    5  A    between atoms: C8_12  and  C9_13 
REMARK    6  A    between atoms: C10_14  and  C12_16 
ROOT
HETATM    1  C8  UNK     1      28.939  -7.105  35.288  1.00  0.00     0.043 C 
HETATM    2  C10 UNK     1      28.146  -6.546  34.358  1.00  0.00     0.029 C 
ENDROOT
BRANCH   1   3
HETATM    3  C7  UNK     1      30.148  -7.770  34.762  1.00  0.00     0.254 C 
HETATM    4  O3  UNK     1      30.068  -8.972  34.504  1.00  0.00    -0.267 OA
HETATM    5  N1  UNK     1      31.293  -6.996  34.589  1.00  0.00    -0.347 N 
HETATM    6  C3  UNK     1      31.415  -5.552  34.849  1.00  0.00     0.140 C 
HETATM    7  C5  UNK     1      32.506  -7.628  34.064  1.00  0.00     0.126 C 
HETATM    8  C1  UNK     1      32.626  -5.220  35.727  1.00  0.00     0.103 C 
HETATM    9  C2  UNK     1      33.906  -5.914  35.258  1.00  0.00     0.018 C 
HETATM   10  C4  UNK     1      33.690  -7.404  34.995  1.00  0.00     0.021 C 
BRANCH   8  11
HETATM   11  C6  UNK     1      32.347  -5.573  37.161  1.00  0.00     0.264 C 
HETATM   12  O2  UNK     1      31.804  -4.821  37.958  1.00  0.00    -0.265 OA
BRANCH  11  13
HETATM   13  O1  UNK     1      32.791  -6.837  37.413  1.00  0.00    -0.322 OA
BRANCH  13  14
HETATM   14  C11 UNK     1      32.035  -7.573  38.379  1.00  0.00     0.174 C 
HETATM   15  C15 UNK     1      31.810  -8.979  37.864  1.00  0.00     0.034 C 
ENDBRANCH  13  14
ENDBRANCH  11  13
ENDBRANCH   8  11
ENDBRANCH   1   3
BRANCH   1  16
HETATM   16  C9  UNK     1      28.693  -7.095  36.737  1.00  0.00    -0.021 A 
HETATM   17  C13 UNK     1      28.786  -5.900  37.438  1.00  0.00     0.012 A 
HETATM   18  C16 UNK     1      28.552  -5.891  38.812  1.00  0.00     0.001 A 
HETATM   19  C20 UNK     1      28.226  -7.076  39.472  1.00  0.00     0.000 A 
HETATM   20  C17 UNK     1      28.134  -8.271  38.758  1.00  0.00     0.001 A 
HETATM   21  C14 UNK     1      28.369  -8.280  37.383  1.00  0.00     0.012 A 
ENDBRANCH   1  16
BRANCH   2  22
HETATM   22  C12 UNK     1      28.386  -6.551  32.907  1.00  0.00    -0.035 A 
HETATM   23  C18 UNK     1      28.992  -5.453  32.313  1.00  0.00     0.011 A 
HETATM   24  C21 UNK     1      29.219  -5.457  30.937  1.00  0.00     0.001 A 
HETATM   25  C23 UNK     1      28.837  -6.558  30.170  1.00  0.00     0.000 A 
HETATM   26  C22 UNK     1      28.230  -7.656  30.780  1.00  0.00     0.001 A 
HETATM   27  C19 UNK     1      28.002  -7.652  32.156  1.00  0.00     0.011 A 
ENDBRANCH   2  22
TORSDOF 6
ENDMDL
MODEL 7
REMARK VINA RESULT:      -6.8      1.356      1.776
REMARK  6 active torsions:
REMARK  status: ('A' for Active; 'I' for Inactive)
REMARK    1  A    between atoms: C11_15  and  O1_1 
REMARK    2  A    between atoms: C6_10  and  O1_1 
REMARK       I    between atoms: C7_11  and  N1_4 
REMARK    3  A    between atoms: C1_5  and  C6_10 
REMARK    4  A    between atoms: C7_11  and  C8_12 
REMARK    5  A    between atoms: C8_12  and  C9_13 
REMARK    6  A    between atoms: C10_14  and  C12_16 
ROOT
HETATM    1  C8  UNK     1      29.331  -7.879  34.470  1.00  0.00     0.043 C 
HETATM    2  C10 UNK     1      28.389  -7.731  33.523  1.00  0.00     0.029 C 
ENDROOT
BRANCH   1   3
HETATM    3  C7  UNK     1      30.700  -8.091  33.961  1.00  0.00     0.254 C 
HETATM    4  O3  UNK     1      31.019  -9.239  33.645  1.00  0.00    -0.267 OA
HETATM    5  N1  UNK     1      31.540  -6.982  33.870  1.00  0.00    -0.347 N 
HETATM    6  C3  UNK     1      31.183  -5.592  34.201  1.00  0.00     0.140 C 
HETATM    7  C5  UNK     1      32.903  -7.161  33.365  1.00  0.00     0.126 C 
HETATM    8  C1  UNK     1      32.203  -4.940  35.141  1.00  0.00     0.103 C 
HETATM    9  C2  UNK     1      33.648  -5.160  34.691  1.00  0.00     0.018 C 
HETATM   10  C4  UNK     1      33.930  -6.624  34.351  1.00  0.00     0.021 C 
BRANCH   8  11
HETATM   11  C6  UNK     1      32.020  -5.444  36.544  1.00  0.00     0.264 C 
HETATM   12  O2  UNK     1      32.816  -6.174  37.119  1.00  0.00    -0.265 OA
BRANCH  11  13
HETATM   13  O1  UNK     1      30.849  -4.965  37.052  1.00  0.00    -0.322 OA
BRANCH  13  14
HETATM   14  C11 UNK     1      30.808  -4.825  38.476  1.00  0.00     0.174 C 
HETATM   15  C15 UNK     1      29.538  -4.098  38.864  1.00  0.00     0.034 C 
ENDBRANCH  13  14
ENDBRANCH  11  13
ENDBRANCH   8  11
ENDBRANCH   1   3
BRANCH   1  16
HETATM   16  C9  UNK     1      29.096  -7.843  35.920  1.00  0.00    -0.021 A 
HETATM   17  C13 UNK     1      27.995  -7.158  36.416  1.00  0.00     0.012 A 
HETATM   18  C16 UNK     1      27.771  -7.124  37.792  1.00  0.00     0.001 A 
HETATM   19  C20 UNK     1      28.650  -7.776  38.658  1.00  0.00     0.000 A 
HETATM   20  C17 UNK     1      29.753  -8.461  38.147  1.00  0.00     0.001 A 
HETATM   21  C14 UNK     1      29.976  -8.495  36.771  1.00  0.00     0.012 A 
ENDBRANCH   1  16
BRANCH   2  22
HETATM   22  C12 UNK     1      28.616  -7.765  32.070  1.00  0.00    -0.035 A 
HETATM   23  C18 UNK     1      28.993  -6.604  31.412  1.00  0.00     0.011 A 
HETATM   24  C21 UNK     1      29.208  -6.636  30.034  1.00  0.00     0.001 A 
HETATM   25  C23 UNK     1      29.043  -7.829  29.330  1.00  0.00     0.000 A 
HETATM   26  C22 UNK     1      28.664  -8.989  30.004  1.00  0.00     0.001 A 
HETATM   27  C19 UNK     1      28.448  -8.958  31.382  1.00  0.00     0.011 A 
ENDBRANCH   2  22
TORSDOF 6
ENDMDL
MODEL 8
REMARK VINA RESULT:      -6.8      1.670      5.993
REMARK  6 active torsions:
REMARK  status: ('A' for Active; 'I' for Inactive)
REMARK    1  A    between atoms: C11_15  and  O1_1 
REMARK    2  A    between atoms: C6_10  and  O1_1 
REMARK       I    between atoms: C7_11  and  N1_4 
REMARK    3  A    between atoms: C1_5  and  C6_10 
REMARK    4  A    between atoms: C7_11  and  C8_12 
REMARK    5  A    between atoms: C8_12  and  C9_13 
REMARK    6  A    between atoms: C10_14  and  C12_16 
ROOT
HETATM    1  C8  UNK     1      28.952  -6.690  34.680  1.00  0.00     0.043 C 
HETATM    2  C10 UNK     1      27.885  -7.048  35.413  1.00  0.00     0.029 C 
ENDROOT
BRANCH   1   3
HETATM    3  C7  UNK     1      30.241  -6.709  35.400  1.00  0.00     0.254 C 
HETATM    4  O3  UNK     1      30.541  -5.710  36.056  1.00  0.00    -0.267 OA
HETATM    5  N1  UNK     1      31.029  -7.853  35.294  1.00  0.00    -0.347 N 
HETATM    6  C3  UNK     1      30.686  -9.080  34.554  1.00  0.00     0.140 C 
HETATM    7  C5  UNK     1      32.310  -7.903  36.002  1.00  0.00     0.126 C 
HETATM    8  C1  UNK     1      31.812  -9.522  33.612  1.00  0.00     0.103 C 
HETATM    9  C2  UNK     1      33.184  -9.523  34.289  1.00  0.00     0.018 C 
HETATM   10  C4  UNK     1      33.453  -8.224  35.049  1.00  0.00     0.021 C 
BRANCH   8  11
HETATM   11  C6  UNK     1      31.845  -8.652  32.388  1.00  0.00     0.264 C 
HETATM   12  O2  UNK     1      32.768  -7.901  32.106  1.00  0.00    -0.265 OA
BRANCH  11  13
HETATM   13  O1  UNK     1      30.702  -8.837  31.667  1.00  0.00    -0.322 OA
BRANCH  13  14
HETATM   14  C11 UNK     1      30.844  -8.716  30.249  1.00  0.00     0.174 C 
HETATM   15  C15 UNK     1      29.562  -9.171  29.584  1.00  0.00     0.034 C 
ENDBRANCH  13  14
ENDBRANCH  11  13
ENDBRANCH   8  11
ENDBRANCH   1   3
BRANCH   1  16
HETATM   16  C9  UNK     1      28.922  -6.299  33.263  1.00  0.00    -0.021 A 
HETATM   17  C13 UNK     1      29.962  -5.542  32.742  1.00  0.00     0.012 A 
HETATM   18  C16 UNK     1      29.934  -5.171  31.398  1.00  0.00     0.001 A 
HETATM   19  C20 UNK     1      28.867  -5.561  30.589  1.00  0.00     0.000 A 
HETATM   20  C17 UNK     1      27.828  -6.323  31.124  1.00  0.00     0.001 A 
HETATM   21  C14 UNK     1      27.856  -6.694  32.468  1.00  0.00     0.012 A 
ENDBRANCH   1  16
BRANCH   2  22
HETATM   22  C12 UNK     1      27.907  -7.440  36.830  1.00  0.00    -0.035 A 
HETATM   23  C18 UNK     1      27.766  -6.467  37.809  1.00  0.00     0.011 A 
HETATM   24  C21 UNK     1      27.787  -6.838  39.153  1.00  0.00     0.001 A 
HETATM   25  C23 UNK     1      27.950  -8.178  39.504  1.00  0.00     0.000 A 
HETATM   26  C22 UNK     1      28.091  -9.147  38.510  1.00  0.00     0.001 A 
HETATM   27  C19 UNK     1      28.070  -8.776  37.166  1.00  0.00     0.011 A 
ENDBRANCH   2  22
TORSDOF 6
ENDMDL
MODEL 9
REMARK VINA RESULT:      -6.7      1.960      5.743
REMARK  6 active torsions:
REMARK  status: ('A' for Active; 'I' for Inactive)
REMARK    1  A    between atoms: C11_15  and  O1_1 
REMARK    2  A    between atoms: C6_10  and  O1_1 
REMARK       I    between atoms: C7_11  and  N1_4 
REMARK    3  A    between atoms: C1_5  and  C6_10 
REMARK    4  A    between atoms: C7_11  and  C8_12 
REMARK    5  A    between atoms: C8_12  and  C9_13 
REMARK    6  A    between atoms: C10_14  and  C12_16 
ROOT
HETATM    1  C8  UNK     1      28.223  -7.970  35.461  1.00  0.00     0.043 C 
HETATM    2  C10 UNK     1      27.948  -9.150  36.042  1.00  0.00     0.029 C 
ENDROOT
BRANCH   1   3
HETATM    3  C7  UNK     1      28.453  -6.851  36.396  1.00  0.00     0.254 C 
HETATM    4  O3  UNK     1      27.467  -6.223  36.785  1.00  0.00    -0.267 OA
HETATM    5  N1  UNK     1      29.765  -6.582  36.779  1.00  0.00    -0.347 N 
HETATM    6  C3  UNK     1      30.963  -7.333  36.366  1.00  0.00     0.140 C 
HETATM    7  C5  UNK     1      30.024  -5.481  37.709  1.00  0.00     0.126 C 
HETATM    8  C1  UNK     1      32.068  -6.415  35.831  1.00  0.00     0.103 C 
HETATM    9  C2  UNK     1      32.326  -5.210  36.737  1.00  0.00     0.018 C 
HETATM   10  C4  UNK     1      31.033  -4.498  37.132  1.00  0.00     0.021 C 
BRANCH   8  11
HETATM   11  C6  UNK     1      31.737  -5.951  34.441  1.00  0.00     0.264 C 
HETATM   12  O2  UNK     1      31.671  -4.775  34.110  1.00  0.00    -0.265 OA
BRANCH  11  13
HETATM   13  O1  UNK     1      31.529  -7.032  33.637  1.00  0.00    -0.322 OA
BRANCH  13  14
HETATM   14  C11 UNK     1      32.016  -6.904  32.298  1.00  0.00     0.174 C 
HETATM   15  C15 UNK     1      32.349  -8.280  31.760  1.00  0.00     0.034 C 
ENDBRANCH  13  14
ENDBRANCH  11  13
ENDBRANCH   8  11
ENDBRANCH   1   3
BRANCH   1  16
HETATM   16  C9  UNK     1      28.309  -7.730  34.013  1.00  0.00    -0.021 A 
HETATM   17  C13 UNK     1      28.575  -8.793  33.160  1.00  0.00     0.012 A 
HETATM   18  C16 UNK     1      28.656  -8.566  31.787  1.00  0.00     0.001 A 
HETATM   19  C20 UNK     1      28.469  -7.280  31.280  1.00  0.00     0.000 A 
HETATM   20  C17 UNK     1      28.201  -6.221  32.146  1.00  0.00     0.001 A 
HETATM   21  C14 UNK     1      28.120  -6.447  33.520  1.00  0.00     0.012 A 
ENDBRANCH   1  16
BRANCH   2  22
HETATM   22  C12 UNK     1      27.860  -9.397  37.489  1.00  0.00    -0.035 A 
HETATM   23  C18 UNK     1      29.005  -9.749  38.190  1.00  0.00     0.011 A 
HETATM   24  C21 UNK     1      28.923  -9.984  39.562  1.00  0.00     0.001 A 
HETATM   25  C23 UNK     1      27.697  -9.866  40.218  1.00  0.00     0.000 A 
HETATM   26  C22 UNK     1      26.554  -9.511  39.501  1.00  0.00     0.001 A 
HETATM   27  C19 UNK     1      26.636  -9.276  38.128  1.00  0.00     0.011 A 
ENDBRANCH   2  22
TORSDOF 6
ENDMDL
MODEL 10
REMARK VINA RESULT:      -6.7     32.017     34.550
REMARK  6 active torsions:
REMARK  status: ('A' for Active; 'I' for Inactive)
REMARK    1  A    between atoms: C11_15  and  O1_1 
REMARK    2  A    between atoms: C6_10  and  O1_1 
REMARK       I    between atoms: C7_11  and  N1_4 
REMARK    3  A    between atoms: C1_5  and  C6_10 
REMARK    4  A    between atoms: C7_11  and  C8_12 
REMARK    5  A    between atoms: C8_12  and  C9_13 
REMARK    6  A    between atoms: C10_14  and  C12_16 
ROOT
HETATM    1  C8  UNK     1      12.124   8.575   9.839  1.00  0.00     0.043 C 
HETATM    2  C10 UNK     1      11.159   8.737   8.918  1.00  0.00     0.029 C 
ENDROOT
BRANCH   1   3
HETATM    3  C7  UNK     1      12.787   7.255   9.824  1.00  0.00     0.254 C 
HETATM    4  O3  UNK     1      12.126   6.283  10.194  1.00  0.00    -0.267 OA
HETATM    5  N1  UNK     1      14.109   7.196   9.390  1.00  0.00    -0.347 N 
HETATM    6  C3  UNK     1      14.917   8.328   8.904  1.00  0.00     0.140 C 
HETATM    7  C5  UNK     1      14.791   5.900   9.360  1.00  0.00     0.126 C 
HETATM    8  C1  UNK     1      16.278   8.412   9.603  1.00  0.00     0.103 C 
HETATM    9  C2  UNK     1      17.000   7.064   9.658  1.00  0.00     0.018 C 
HETATM   10  C4  UNK     1      16.088   5.942  10.155  1.00  0.00     0.021 C 
BRANCH   8  11
HETATM   11  C6  UNK     1      16.122   8.967  10.990  1.00  0.00     0.264 C 
HETATM   12  O2  UNK     1      15.919   8.283  11.983  1.00  0.00    -0.265 OA
BRANCH  11  13
HETATM   13  O1  UNK     1      16.242  10.325  10.953  1.00  0.00    -0.322 OA
BRANCH  13  14
HETATM   14  C11 UNK     1      17.240  10.831  10.062  1.00  0.00     0.174 C 
HETATM   15  C15 UNK     1      16.716  12.084   9.392  1.00  0.00     0.034 C 
ENDBRANCH  13  14
ENDBRANCH  11  13
ENDBRANCH   8  11
ENDBRANCH   1   3
BRANCH   1  16
HETATM   16  C9  UNK     1      12.548   9.585  10.819  1.00  0.00    -0.021 A 
HETATM   17  C13 UNK     1      12.667   9.230  12.156  1.00  0.00     0.012 A 
HETATM   18  C16 UNK     1      13.069  10.187  13.087  1.00  0.00     0.001 A 
HETATM   19  C20 UNK     1      13.348  11.490  12.671  1.00  0.00     0.000 A 
HETATM   20  C17 UNK     1      13.226  11.834  11.325  1.00  0.00     0.001 A 
HETATM   21  C14 UNK     1      12.823  10.876  10.394  1.00  0.00     0.012 A 
ENDBRANCH   1  16
BRANCH   2  22
HETATM   22  C12 UNK     1      10.730   7.732   7.934  1.00  0.00    -0.035 A 
HETATM   23  C18 UNK     1      11.562   7.424   6.868  1.00  0.00     0.011 A 
HETATM   24  C21 UNK     1      11.156   6.471   5.934  1.00  0.00     0.001 A 
HETATM   25  C23 UNK     1       9.921   5.837   6.077  1.00  0.00     0.000 A 
HETATM   26  C22 UNK     1       9.094   6.156   7.153  1.00  0.00     0.001 A 
HETATM   27  C19 UNK     1       9.500   7.109   8.087  1.00  0.00     0.011 A 
ENDBRANCH   2  22
TORSDOF 6
ENDMDL
