MODEL 1
REMARK VINA RESULT:      -9.2      0.000      0.000
REMARK  3 active torsions:
REMARK  status: ('A' for Active; 'I' for Inactive)
REMARK       I    between atoms: C5_15  and  N1_6 
REMARK    1  A    between atoms: C6_16  and  N2_7 
REMARK    2  A    between atoms: C14_24  and  N5_10 
REMARK    3  A    between atoms: C5_15  and  C7_17 
ROOT
HETATM    1  O2  UNK     1      17.926   2.154  32.525  1.00  0.00    -0.274 OA
HETATM    2  O3  UNK     1      18.239   3.852  31.029  1.00  0.00    -0.259 OA
HETATM    3  C7  UNK     1      18.597   4.368  33.315  1.00  0.00     0.108 A 
HETATM    4  C8  UNK     1      18.604   3.942  34.584  1.00  0.00     0.037 A 
HETATM    5  C9  UNK     1      18.262   2.564  34.897  1.00  0.00     0.001 A 
HETATM    6  C10 UNK     1      18.247   3.466  32.194  1.00  0.00     0.304 A 
HETATM    7  C11 UNK     1      17.931   1.700  33.858  1.00  0.00     0.089 A 
HETATM    8  C12 UNK     1      18.256   2.077  36.207  1.00  0.00     0.050 A 
HETATM    9  C13 UNK     1      17.595   0.368  34.091  1.00  0.00     0.041 A 
HETATM   10  C14 UNK     1      17.921   0.743  36.455  1.00  0.00     0.103 A 
HETATM   11  C17 UNK     1      17.591  -0.110  35.400  1.00  0.00     0.039 A 
ENDROOT
BRANCH   3  12
HETATM   12  C5  UNK     1      18.957   5.783  33.099  1.00  0.00     0.260 C 
HETATM   13  O1  UNK     1      20.152   6.082  33.150  1.00  0.00    -0.267 OA
HETATM   14  N1  UNK     1      17.927   6.684  32.856  1.00  0.00    -0.345 N 
HETATM   15  C1  UNK     1      16.496   6.383  32.762  1.00  0.00     0.146 C 
HETATM   16  C2  UNK     1      18.234   8.097  32.642  1.00  0.00     0.146 C 
HETATM   17  C3  UNK     1      15.710   7.208  33.779  1.00  0.00     0.161 C 
HETATM   18  N2  UNK     1      16.046   8.633  33.648  1.00  0.00    -0.211 N 
HETATM   19  C4  UNK     1      17.481   8.965  33.650  1.00  0.00     0.161 C 
BRANCH  18  20
HETATM   20  C6  UNK     1      15.156   9.599  34.130  1.00  0.00     0.724 A 
HETATM   21  N3  UNK     1      14.209  10.086  33.275  1.00  0.00    -0.075 NA
HETATM   22  C15 UNK     1      13.368  11.015  33.773  1.00  0.00     0.138 A 
HETATM   23  C18 UNK     1      13.420  11.481  35.071  1.00  0.00     0.040 A 
HETATM   24  C16 UNK     1      14.409  10.932  35.861  1.00  0.00     0.138 A 
HETATM   25  N4  UNK     1      15.284  10.000  35.429  1.00  0.00    -0.075 NA
ENDBRANCH  18  20
ENDBRANCH   3  12
BRANCH  10  26
HETATM   26  N5  UNK     1      17.917   0.252  37.788  1.00  0.00    -0.116 N 
HETATM   27  O4  UNK     1      17.903   1.073  38.737  1.00  0.00    -0.532 OA
HETATM   28  O5  UNK     1      17.927  -0.988  37.979  1.00  0.00    -0.532 OA
ENDBRANCH  10  26
TORSDOF 3
ENDMDL
MODEL 2
REMARK VINA RESULT:      -8.8      7.836     13.373
REMARK  3 active torsions:
REMARK  status: ('A' for Active; 'I' for Inactive)
REMARK       I    between atoms: C5_15  and  N1_6 
REMARK    1  A    between atoms: C6_16  and  N2_7 
REMARK    2  A    between atoms: C14_24  and  N5_10 
REMARK    3  A    between atoms: C5_15  and  C7_17 
ROOT
HETATM    1  O2  UNK     1      18.221  -0.904  35.172  1.00  0.00    -0.274 OA
HETATM    2  O3  UNK     1      18.042  -1.501  37.370  1.00  0.00    -0.259 OA
HETATM    3  C7  UNK     1      19.691  -2.627  36.093  1.00  0.00     0.108 A 
HETATM    4  C8  UNK     1      20.292  -2.786  34.908  1.00  0.00     0.037 A 
HETATM    5  C9  UNK     1      19.877  -1.992  33.763  1.00  0.00     0.001 A 
HETATM    6  C10 UNK     1      18.596  -1.650  36.285  1.00  0.00     0.304 A 
HETATM    7  C11 UNK     1      18.849  -1.067  33.921  1.00  0.00     0.089 A 
HETATM    8  C12 UNK     1      20.475  -2.125  32.507  1.00  0.00     0.050 A 
HETATM    9  C13 UNK     1      18.405  -0.275  32.865  1.00  0.00     0.041 A 
HETATM   10  C14 UNK     1      20.040  -1.337  31.438  1.00  0.00     0.103 A 
HETATM   11  C17 UNK     1      19.008  -0.414  31.616  1.00  0.00     0.039 A 
ENDROOT
BRANCH   3  12
HETATM   12  C5  UNK     1      20.182  -3.480  37.193  1.00  0.00     0.260 C 
HETATM   13  O1  UNK     1      20.791  -2.929  38.113  1.00  0.00    -0.267 OA
HETATM   14  N1  UNK     1      19.929  -4.844  37.119  1.00  0.00    -0.345 N 
HETATM   15  C1  UNK     1      19.194  -5.549  36.065  1.00  0.00     0.146 C 
HETATM   16  C2  UNK     1      20.401  -5.729  38.181  1.00  0.00     0.146 C 
HETATM   17  C3  UNK     1      20.068  -6.633  35.439  1.00  0.00     0.161 C 
HETATM   18  N2  UNK     1      20.626  -7.504  36.483  1.00  0.00    -0.211 N 
HETATM   19  C4  UNK     1      21.296  -6.826  37.606  1.00  0.00     0.161 C 
BRANCH  18  20
HETATM   20  C6  UNK     1      21.062  -8.791  36.148  1.00  0.00     0.724 A 
HETATM   21  N3  UNK     1      21.380  -9.043  34.844  1.00  0.00    -0.075 NA
HETATM   22  C15 UNK     1      21.797 -10.294  34.557  1.00  0.00     0.138 A 
HETATM   23  C18 UNK     1      21.914 -11.298  35.495  1.00  0.00     0.040 A 
HETATM   24  C16 UNK     1      21.571 -10.950  36.786  1.00  0.00     0.138 A 
HETATM   25  N4  UNK     1      21.147  -9.721  37.144  1.00  0.00    -0.075 NA
ENDBRANCH  18  20
ENDBRANCH   3  12
BRANCH  10  26
HETATM   26  N5  UNK     1      20.652  -1.475  30.163  1.00  0.00    -0.116 N 
HETATM   27  O4  UNK     1      20.872  -0.445  29.481  1.00  0.00    -0.532 OA
HETATM   28  O5  UNK     1      20.954  -2.622  29.755  1.00  0.00    -0.532 OA
ENDBRANCH  10  26
TORSDOF 3
ENDMDL
MODEL 3
REMARK VINA RESULT:      -8.6      7.888     10.960
REMARK  3 active torsions:
REMARK  status: ('A' for Active; 'I' for Inactive)
REMARK       I    between atoms: C5_15  and  N1_6 
REMARK    1  A    between atoms: C6_16  and  N2_7 
REMARK    2  A    between atoms: C14_24  and  N5_10 
REMARK    3  A    between atoms: C5_15  and  C7_17 
ROOT
HETATM    1  O2  UNK     1      21.543  -5.280  38.071  1.00  0.00    -0.274 OA
HETATM    2  O3  UNK     1      20.825  -3.136  38.404  1.00  0.00    -0.259 OA
HETATM    3  C7  UNK     1      19.814  -4.333  36.625  1.00  0.00     0.108 A 
HETATM    4  C8  UNK     1      19.735  -5.472  35.928  1.00  0.00     0.037 A 
HETATM    5  C9  UNK     1      20.579  -6.604  36.275  1.00  0.00     0.001 A 
HETATM    6  C10 UNK     1      20.749  -4.180  37.763  1.00  0.00     0.304 A 
HETATM    7  C11 UNK     1      21.465  -6.482  37.341  1.00  0.00     0.089 A 
HETATM    8  C12 UNK     1      20.531  -7.812  35.575  1.00  0.00     0.050 A 
HETATM    9  C13 UNK     1      22.300  -7.528  37.725  1.00  0.00     0.041 A 
HETATM   10  C14 UNK     1      21.363  -8.871  35.949  1.00  0.00     0.103 A 
HETATM   11  C17 UNK     1      22.246  -8.730  37.021  1.00  0.00     0.039 A 
ENDROOT
BRANCH   3  12
HETATM   12  C5  UNK     1      18.918  -3.241  36.196  1.00  0.00     0.260 C 
HETATM   13  O1  UNK     1      17.795  -3.193  36.703  1.00  0.00    -0.267 OA
HETATM   14  N1  UNK     1      19.396  -2.345  35.248  1.00  0.00    -0.345 N 
HETATM   15  C1  UNK     1      20.725  -2.340  34.629  1.00  0.00     0.146 C 
HETATM   16  C2  UNK     1      18.543  -1.251  34.787  1.00  0.00     0.146 C 
HETATM   17  C3  UNK     1      20.605  -2.427  33.110  1.00  0.00     0.161 C 
HETATM   18  N2  UNK     1      19.693  -1.388  32.610  1.00  0.00    -0.211 N 
HETATM   19  C4  UNK     1      18.379  -1.305  33.269  1.00  0.00     0.161 C 
BRANCH  18  20
HETATM   20  C6  UNK     1      19.776  -0.983  31.273  1.00  0.00     0.724 A 
HETATM   21  N3  UNK     1      20.209  -1.892  30.350  1.00  0.00    -0.075 NA
HETATM   22  C15 UNK     1      20.276  -1.467  29.072  1.00  0.00     0.138 A 
HETATM   23  C18 UNK     1      19.937  -0.192  28.668  1.00  0.00     0.040 A 
HETATM   24  C16 UNK     1      19.511   0.657  29.669  1.00  0.00     0.138 A 
HETATM   25  N4  UNK     1      19.419   0.299  30.967  1.00  0.00    -0.075 NA
ENDBRANCH  18  20
ENDBRANCH   3  12
BRANCH  10  26
HETATM   26  N5  UNK     1      21.310 -10.098  35.234  1.00  0.00    -0.116 N 
HETATM   27  O4  UNK     1      21.739 -10.133  34.056  1.00  0.00    -0.532 OA
HETATM   28  O5  UNK     1      20.836 -11.111  35.801  1.00  0.00    -0.532 OA
ENDBRANCH  10  26
TORSDOF 3
ENDMDL
MODEL 4
REMARK VINA RESULT:      -8.2     25.096     26.665
REMARK  3 active torsions:
REMARK  status: ('A' for Active; 'I' for Inactive)
REMARK       I    between atoms: C5_15  and  N1_6 
REMARK    1  A    between atoms: C6_16  and  N2_7 
REMARK    2  A    between atoms: C14_24  and  N5_10 
REMARK    3  A    between atoms: C5_15  and  C7_17 
ROOT
HETATM    1  O2  UNK     1       7.577   5.039  10.944  1.00  0.00    -0.274 OA
HETATM    2  O3  UNK     1       9.259   4.015   9.784  1.00  0.00    -0.259 OA
HETATM    3  C7  UNK     1       8.621   6.176   9.048  1.00  0.00     0.108 A 
HETATM    4  C8  UNK     1       7.826   7.239   9.213  1.00  0.00     0.037 A 
HETATM    5  C9  UNK     1       6.837   7.257  10.279  1.00  0.00     0.001 A 
HETATM    6  C10 UNK     1       8.532   4.992   9.932  1.00  0.00     0.304 A 
HETATM    7  C11 UNK     1       6.736   6.155  11.122  1.00  0.00     0.089 A 
HETATM    8  C12 UNK     1       5.986   8.345  10.488  1.00  0.00     0.050 A 
HETATM    9  C13 UNK     1       5.812   6.109  12.163  1.00  0.00     0.041 A 
HETATM   10  C14 UNK     1       5.053   8.313  11.528  1.00  0.00     0.103 A 
HETATM   11  C17 UNK     1       4.966   7.198  12.364  1.00  0.00     0.039 A 
ENDROOT
BRANCH   3  12
HETATM   12  C5  UNK     1       9.591   6.252   7.937  1.00  0.00     0.260 C 
HETATM   13  O1  UNK     1       9.293   5.692   6.881  1.00  0.00    -0.267 OA
HETATM   14  N1  UNK     1      10.775   6.945   8.157  1.00  0.00    -0.345 N 
HETATM   15  C1  UNK     1      11.173   7.647   9.380  1.00  0.00     0.146 C 
HETATM   16  C2  UNK     1      11.769   7.041   7.089  1.00  0.00     0.146 C 
HETATM   17  C3  UNK     1      12.499   7.098   9.902  1.00  0.00     0.161 C 
HETATM   18  N2  UNK     1      13.510   7.108   8.835  1.00  0.00    -0.211 N 
HETATM   19  C4  UNK     1      13.114   6.489   7.559  1.00  0.00     0.161 C 
BRANCH  18  20
HETATM   20  C6  UNK     1      14.868   7.090   9.171  1.00  0.00     0.724 A 
HETATM   21  N3  UNK     1      15.522   5.891   9.145  1.00  0.00    -0.075 NA
HETATM   22  C15 UNK     1      16.830   5.911   9.474  1.00  0.00     0.138 A 
HETATM   23  C18 UNK     1      17.515   7.056   9.826  1.00  0.00     0.040 A 
HETATM   24  C16 UNK     1      16.773   8.219   9.825  1.00  0.00     0.138 A 
HETATM   25  N4  UNK     1      15.463   8.273   9.507  1.00  0.00    -0.075 NA
ENDBRANCH  18  20
ENDBRANCH   3  12
BRANCH  10  26
HETATM   26  N5  UNK     1       4.189   9.421  11.737  1.00  0.00    -0.116 N 
HETATM   27  O4  UNK     1       3.985  10.219  10.790  1.00  0.00    -0.532 OA
HETATM   28  O5  UNK     1       3.655   9.572  12.862  1.00  0.00    -0.532 OA
ENDBRANCH  10  26
TORSDOF 3
ENDMDL
MODEL 5
REMARK VINA RESULT:      -8.0     14.129     17.402
REMARK  3 active torsions:
REMARK  status: ('A' for Active; 'I' for Inactive)
REMARK       I    between atoms: C5_15  and  N1_6 
REMARK    1  A    between atoms: C6_16  and  N2_7 
REMARK    2  A    between atoms: C14_24  and  N5_10 
REMARK    3  A    between atoms: C5_15  and  C7_17 
ROOT
HETATM    1  O2  UNK     1      24.658  -5.456  38.883  1.00  0.00    -0.274 OA
HETATM    2  O3  UNK     1      26.924  -5.231  39.073  1.00  0.00    -0.259 OA
HETATM    3  C7  UNK     1      26.083  -7.442  38.921  1.00  0.00     0.108 A 
HETATM    4  C8  UNK     1      25.017  -8.242  38.805  1.00  0.00     0.037 A 
HETATM    5  C9  UNK     1      23.681  -7.676  38.721  1.00  0.00     0.001 A 
HETATM    6  C10 UNK     1      25.949  -5.968  38.966  1.00  0.00     0.304 A 
HETATM    7  C11 UNK     1      23.532  -6.293  38.761  1.00  0.00     0.089 A 
HETATM    8  C12 UNK     1      22.540  -8.473  38.600  1.00  0.00     0.050 A 
HETATM    9  C13 UNK     1      22.280  -5.687  38.684  1.00  0.00     0.041 A 
HETATM   10  C14 UNK     1      21.277  -7.879  38.522  1.00  0.00     0.103 A 
HETATM   11  C17 UNK     1      21.147  -6.489  38.564  1.00  0.00     0.039 A 
ENDROOT
BRANCH   3  12
HETATM   12  C5  UNK     1      27.397  -8.111  39.000  1.00  0.00     0.260 C 
HETATM   13  O1  UNK     1      27.656  -8.738  40.029  1.00  0.00    -0.267 OA
HETATM   14  N1  UNK     1      28.255  -7.986  37.914  1.00  0.00    -0.345 N 
HETATM   15  C1  UNK     1      27.993  -7.274  36.660  1.00  0.00     0.146 C 
HETATM   16  C2  UNK     1      29.568  -8.625  37.950  1.00  0.00     0.146 C 
HETATM   17  C3  UNK     1      29.058  -6.205  36.423  1.00  0.00     0.161 C 
HETATM   18  N2  UNK     1      30.401  -6.793  36.523  1.00  0.00    -0.211 N 
HETATM   19  C4  UNK     1      30.672  -7.591  37.731  1.00  0.00     0.161 C 
BRANCH  18  20
HETATM   20  C6  UNK     1      31.484  -6.148  35.915  1.00  0.00     0.724 A 
HETATM   21  N3  UNK     1      31.729  -4.847  36.249  1.00  0.00    -0.075 NA
HETATM   22  C15 UNK     1      32.780  -4.257  35.644  1.00  0.00     0.138 A 
HETATM   23  C18 UNK     1      33.594  -4.892  34.729  1.00  0.00     0.040 A 
HETATM   24  C16 UNK     1      33.270  -6.205  34.454  1.00  0.00     0.138 A 
HETATM   25  N4  UNK     1      32.235  -6.857  35.021  1.00  0.00    -0.075 NA
ENDBRANCH  18  20
ENDBRANCH   3  12
BRANCH  10  26
HETATM   26  N5  UNK     1      20.119  -8.693  38.398  1.00  0.00    -0.116 N 
HETATM   27  O4  UNK     1      18.995  -8.142  38.316  1.00  0.00    -0.532 OA
HETATM   28  O5  UNK     1      20.253  -9.940  38.375  1.00  0.00    -0.532 OA
ENDBRANCH  10  26
TORSDOF 3
ENDMDL
MODEL 6
REMARK VINA RESULT:      -8.0     17.176     19.697
REMARK  3 active torsions:
REMARK  status: ('A' for Active; 'I' for Inactive)
REMARK       I    between atoms: C5_15  and  N1_6 
REMARK    1  A    between atoms: C6_16  and  N2_7 
REMARK    2  A    between atoms: C14_24  and  N5_10 
REMARK    3  A    between atoms: C5_15  and  C7_17 
ROOT
HETATM    1  O2  UNK     1      28.210  -5.533  39.575  1.00  0.00    -0.274 OA
HETATM    2  O3  UNK     1      29.707  -3.827  39.838  1.00  0.00    -0.259 OA
HETATM    3  C7  UNK     1      29.873  -5.089  37.838  1.00  0.00     0.108 A 
HETATM    4  C8  UNK     1      29.404  -6.097  37.093  1.00  0.00     0.037 A 
HETATM    5  C9  UNK     1      28.284  -6.897  37.564  1.00  0.00     0.001 A 
HETATM    6  C10 UNK     1      29.280  -4.750  39.152  1.00  0.00     0.304 A 
HETATM    7  C11 UNK     1      27.712  -6.595  38.796  1.00  0.00     0.089 A 
HETATM    8  C12 UNK     1      27.763  -7.959  36.821  1.00  0.00     0.050 A 
HETATM    9  C13 UNK     1      26.637  -7.322  39.304  1.00  0.00     0.041 A 
HETATM   10  C14 UNK     1      26.685  -8.697  37.318  1.00  0.00     0.103 A 
HETATM   11  C17 UNK     1      26.123  -8.380  38.556  1.00  0.00     0.039 A 
ENDROOT
BRANCH   3  12
HETATM   12  C5  UNK     1      31.011  -4.336  37.276  1.00  0.00     0.260 C 
HETATM   13  O1  UNK     1      30.810  -3.170  36.930  1.00  0.00    -0.267 OA
HETATM   14  N1  UNK     1      32.232  -4.992  37.168  1.00  0.00    -0.345 N 
HETATM   15  C1  UNK     1      32.535  -6.365  37.581  1.00  0.00     0.146 C 
HETATM   16  C2  UNK     1      33.386  -4.290  36.611  1.00  0.00     0.146 C 
HETATM   17  C3  UNK     1      33.067  -7.171  36.398  1.00  0.00     0.161 C 
HETATM   18  N2  UNK     1      34.186  -6.463  35.761  1.00  0.00    -0.211 N 
HETATM   19  C4  UNK     1      33.948  -5.052  35.411  1.00  0.00     0.161 C 
BRANCH  18  20
HETATM   20  C6  UNK     1      35.102  -7.179  34.981  1.00  0.00     0.724 A 
HETATM   21  N3  UNK     1      34.628  -8.199  34.206  1.00  0.00    -0.075 NA
HETATM   22  C15 UNK     1      35.538  -8.867  33.467  1.00  0.00     0.138 A 
HETATM   23  C18 UNK     1      36.886  -8.574  33.461  1.00  0.00     0.040 A 
HETATM   24  C16 UNK     1      37.272  -7.528  34.275  1.00  0.00     0.138 A 
HETATM   25  N4  UNK     1      36.417  -6.817  35.039  1.00  0.00    -0.075 NA
ENDBRANCH  18  20
ENDBRANCH   3  12
BRANCH  10  26
HETATM   26  N5  UNK     1      26.157  -9.775  36.558  1.00  0.00    -0.116 N 
HETATM   27  O4  UNK     1      24.926 -10.010  36.612  1.00  0.00    -0.532 OA
HETATM   28  O5  UNK     1      26.937 -10.462  35.855  1.00  0.00    -0.532 OA
ENDBRANCH  10  26
TORSDOF 3
ENDMDL
MODEL 7
REMARK VINA RESULT:      -8.0      3.509      8.721
REMARK  3 active torsions:
REMARK  status: ('A' for Active; 'I' for Inactive)
REMARK       I    between atoms: C5_15  and  N1_6 
REMARK    1  A    between atoms: C6_16  and  N2_7 
REMARK    2  A    between atoms: C14_24  and  N5_10 
REMARK    3  A    between atoms: C5_15  and  C7_17 
ROOT
HETATM    1  O2  UNK     1      14.517   8.017  33.296  1.00  0.00    -0.274 OA
HETATM    2  O3  UNK     1      14.705   6.181  31.948  1.00  0.00    -0.259 OA
HETATM    3  C7  UNK     1      16.616   7.573  32.124  1.00  0.00     0.108 A 
HETATM    4  C8  UNK     1      17.174   8.669  32.652  1.00  0.00     0.037 A 
HETATM    5  C9  UNK     1      16.411   9.518  33.553  1.00  0.00     0.001 A 
HETATM    6  C10 UNK     1      15.221   7.185  32.431  1.00  0.00     0.304 A 
HETATM    7  C11 UNK     1      15.098   9.172  33.855  1.00  0.00     0.089 A 
HETATM    8  C12 UNK     1      16.953  10.672  34.126  1.00  0.00     0.050 A 
HETATM    9  C13 UNK     1      14.315   9.942  34.711  1.00  0.00     0.041 A 
HETATM   10  C14 UNK     1      16.178  11.454  34.987  1.00  0.00     0.103 A 
HETATM   11  C17 UNK     1      14.862  11.091  35.279  1.00  0.00     0.039 A 
ENDROOT
BRANCH   3  12
HETATM   12  C5  UNK     1      17.470   6.776  31.221  1.00  0.00     0.260 C 
HETATM   13  O1  UNK     1      17.516   7.113  30.036  1.00  0.00    -0.267 OA
HETATM   14  N1  UNK     1      18.159   5.699  31.763  1.00  0.00    -0.345 N 
HETATM   15  C1  UNK     1      18.159   5.266  33.164  1.00  0.00     0.146 C 
HETATM   16  C2  UNK     1      19.011   4.876  30.907  1.00  0.00     0.146 C 
HETATM   17  C3  UNK     1      17.698   3.814  33.272  1.00  0.00     0.161 C 
HETATM   18  N2  UNK     1      18.482   2.961  32.368  1.00  0.00    -0.211 N 
HETATM   19  C4  UNK     1      18.578   3.412  30.970  1.00  0.00     0.161 C 
BRANCH  18  20
HETATM   20  C6  UNK     1      18.562   1.586  32.614  1.00  0.00     0.724 A 
HETATM   21  N3  UNK     1      19.065   0.784  31.629  1.00  0.00    -0.075 NA
HETATM   22  C15 UNK     1      19.127  -0.536  31.900  1.00  0.00     0.138 A 
HETATM   23  C18 UNK     1      18.717  -1.095  33.093  1.00  0.00     0.040 A 
HETATM   24  C16 UNK     1      18.223  -0.208  34.028  1.00  0.00     0.138 A 
HETATM   25  N4  UNK     1      18.132   1.123  33.825  1.00  0.00    -0.075 NA
ENDBRANCH  18  20
ENDBRANCH   3  12
BRANCH  10  26
HETATM   26  N5  UNK     1      16.733  12.626  35.568  1.00  0.00    -0.116 N 
HETATM   27  O4  UNK     1      17.596  13.272  34.927  1.00  0.00    -0.532 OA
HETATM   28  O5  UNK     1      16.345  12.981  36.707  1.00  0.00    -0.532 OA
ENDBRANCH  10  26
TORSDOF 3
ENDMDL
MODEL 8
REMARK VINA RESULT:      -7.9     16.124     20.131
REMARK  3 active torsions:
REMARK  status: ('A' for Active; 'I' for Inactive)
REMARK       I    between atoms: C5_15  and  N1_6 
REMARK    1  A    between atoms: C6_16  and  N2_7 
REMARK    2  A    between atoms: C14_24  and  N5_10 
REMARK    3  A    between atoms: C5_15  and  C7_17 
ROOT
HETATM    1  O2  UNK     1      29.623  -9.834  38.657  1.00  0.00    -0.274 OA
HETATM    2  O3  UNK     1      31.493 -10.925  37.929  1.00  0.00    -0.259 OA
HETATM    3  C7  UNK     1      31.194  -8.701  37.165  1.00  0.00     0.108 A 
HETATM    4  C8  UNK     1      30.443  -7.594  37.170  1.00  0.00     0.037 A 
HETATM    5  C9  UNK     1      29.209  -7.549  37.938  1.00  0.00     0.001 A 
HETATM    6  C10 UNK     1      30.807  -9.908  37.931  1.00  0.00     0.304 A 
HETATM    7  C11 UNK     1      28.827  -8.671  38.666  1.00  0.00     0.089 A 
HETATM    8  C12 UNK     1      28.394  -6.414  37.972  1.00  0.00     0.050 A 
HETATM    9  C13 UNK     1      27.658  -8.692  39.423  1.00  0.00     0.041 A 
HETATM   10  C14 UNK     1      27.218  -6.421  38.727  1.00  0.00     0.103 A 
HETATM   11  C17 UNK     1      26.850  -7.557  39.451  1.00  0.00     0.039 A 
ENDROOT
BRANCH   3  12
HETATM   12  C5  UNK     1      32.427  -8.651  36.355  1.00  0.00     0.260 C 
HETATM   13  O1  UNK     1      33.417  -8.112  36.855  1.00  0.00    -0.267 OA
HETATM   14  N1  UNK     1      32.390  -9.207  35.082  1.00  0.00    -0.345 N 
HETATM   15  C1  UNK     1      31.252  -9.878  34.445  1.00  0.00     0.146 C 
HETATM   16  C2  UNK     1      33.583  -9.175  34.240  1.00  0.00     0.146 C 
HETATM   17  C3  UNK     1      30.897  -9.189  33.129  1.00  0.00     0.161 C 
HETATM   18  N2  UNK     1      32.091  -9.069  32.279  1.00  0.00    -0.211 N 
HETATM   19  C4  UNK     1      33.283  -8.480  32.912  1.00  0.00     0.161 C 
BRANCH  18  20
HETATM   20  C6  UNK     1      31.940  -8.902  30.898  1.00  0.00     0.724 A 
HETATM   21  N3  UNK     1      30.681  -8.977  30.374  1.00  0.00    -0.075 NA
HETATM   22  C15 UNK     1      30.573  -8.811  29.040  1.00  0.00     0.138 A 
HETATM   23  C18 UNK     1      31.647  -8.576  28.206  1.00  0.00     0.040 A 
HETATM   24  C16 UNK     1      32.879  -8.517  28.825  1.00  0.00     0.138 A 
HETATM   25  N4  UNK     1      33.061  -8.673  30.152  1.00  0.00    -0.075 NA
ENDBRANCH  18  20
ENDBRANCH   3  12
BRANCH  10  26
HETATM   26  N5  UNK     1      26.392  -5.266  38.759  1.00  0.00    -0.116 N 
HETATM   27  O4  UNK     1      26.931  -4.137  38.864  1.00  0.00    -0.532 OA
HETATM   28  O5  UNK     1      25.148  -5.405  38.682  1.00  0.00    -0.532 OA
ENDBRANCH  10  26
TORSDOF 3
ENDMDL
MODEL 9
REMARK VINA RESULT:      -7.9     16.366     19.040
REMARK  3 active torsions:
REMARK  status: ('A' for Active; 'I' for Inactive)
REMARK       I    between atoms: C5_15  and  N1_6 
REMARK    1  A    between atoms: C6_16  and  N2_7 
REMARK    2  A    between atoms: C14_24  and  N5_10 
REMARK    3  A    between atoms: C5_15  and  C7_17 
ROOT
HETATM    1  O2  UNK     1      25.778  -7.802  38.861  1.00  0.00    -0.274 OA
HETATM    2  O3  UNK     1      27.810  -7.436  39.839  1.00  0.00    -0.259 OA
HETATM    3  C7  UNK     1      27.683  -9.223  38.286  1.00  0.00     0.108 A 
HETATM    4  C8  UNK     1      26.931  -9.934  37.438  1.00  0.00     0.037 A 
HETATM    5  C9  UNK     1      25.526  -9.607  37.253  1.00  0.00     0.001 A 
HETATM    6  C10 UNK     1      27.125  -8.091  39.060  1.00  0.00     0.304 A 
HETATM    7  C11 UNK     1      24.981  -8.547  37.970  1.00  0.00     0.089 A 
HETATM    8  C12 UNK     1      24.704 -10.323  36.379  1.00  0.00     0.050 A 
HETATM    9  C13 UNK     1      23.643  -8.182  37.838  1.00  0.00     0.041 A 
HETATM   10  C14 UNK     1      23.359  -9.969  36.236  1.00  0.00     0.103 A 
HETATM   11  C17 UNK     1      22.830  -8.901  36.964  1.00  0.00     0.039 A 
ENDROOT
BRANCH   3  12
HETATM   12  C5  UNK     1      29.096  -9.631  38.406  1.00  0.00     0.260 C 
HETATM   13  O1  UNK     1      29.400 -10.366  39.348  1.00  0.00    -0.267 OA
HETATM   14  N1  UNK     1      29.991  -9.158  37.454  1.00  0.00    -0.345 N 
HETATM   15  C1  UNK     1      29.685  -8.303  36.303  1.00  0.00     0.146 C 
HETATM   16  C2  UNK     1      31.402  -9.530  37.535  1.00  0.00     0.146 C 
HETATM   17  C3  UNK     1      30.520  -7.025  36.352  1.00  0.00     0.161 C 
HETATM   18  N2  UNK     1      31.944  -7.353  36.509  1.00  0.00    -0.211 N 
HETATM   19  C4  UNK     1      32.281  -8.281  37.602  1.00  0.00     0.161 C 
BRANCH  18  20
HETATM   20  C6  UNK     1      32.913  -6.417  36.130  1.00  0.00     0.724 A 
HETATM   21  N3  UNK     1      32.510  -5.329  35.410  1.00  0.00    -0.075 NA
HETATM   22  C15 UNK     1      33.471  -4.447  35.063  1.00  0.00     0.138 A 
HETATM   23  C18 UNK     1      34.802  -4.593  35.393  1.00  0.00     0.040 A 
HETATM   24  C16 UNK     1      35.115  -5.724  36.121  1.00  0.00     0.138 A 
HETATM   25  N4  UNK     1      34.207  -6.645  36.502  1.00  0.00    -0.075 NA
ENDBRANCH  18  20
ENDBRANCH   3  12
BRANCH  10  26
HETATM   26  N5  UNK     1      22.527 -10.698  35.345  1.00  0.00    -0.116 N 
HETATM   27  O4  UNK     1      22.834 -11.881  35.059  1.00  0.00    -0.532 OA
HETATM   28  O5  UNK     1      21.509 -10.140  34.870  1.00  0.00    -0.532 OA
ENDBRANCH  10  26
TORSDOF 3
ENDMDL
MODEL 10
REMARK VINA RESULT:      -7.9     15.583     19.278
REMARK  3 active torsions:
REMARK  status: ('A' for Active; 'I' for Inactive)
REMARK       I    between atoms: C5_15  and  N1_6 
REMARK    1  A    between atoms: C6_16  and  N2_7 
REMARK    2  A    between atoms: C14_24  and  N5_10 
REMARK    3  A    between atoms: C5_15  and  C7_17 
ROOT
HETATM    1  O2  UNK     1      32.955  -8.950  35.852  1.00  0.00    -0.274 OA
HETATM    2  O3  UNK     1      31.723  -8.736  37.763  1.00  0.00    -0.259 OA
HETATM    3  C7  UNK     1      32.299  -6.730  36.639  1.00  0.00     0.108 A 
HETATM    4  C8  UNK     1      32.918  -6.150  35.604  1.00  0.00     0.037 A 
HETATM    5  C9  UNK     1      33.607  -6.961  34.614  1.00  0.00     0.001 A 
HETATM    6  C10 UNK     1      32.289  -8.200  36.816  1.00  0.00     0.304 A 
HETATM    7  C11 UNK     1      33.609  -8.345  34.760  1.00  0.00     0.089 A 
HETATM    8  C12 UNK     1      34.267  -6.399  33.518  1.00  0.00     0.050 A 
HETATM    9  C13 UNK     1      34.249  -9.179  33.846  1.00  0.00     0.041 A 
HETATM   10  C14 UNK     1      34.914  -7.223  32.593  1.00  0.00     0.103 A 
HETATM   11  C17 UNK     1      34.905  -8.609  32.756  1.00  0.00     0.039 A 
ENDROOT
BRANCH   3  12
HETATM   12  C5  UNK     1      31.629  -5.823  37.592  1.00  0.00     0.260 C 
HETATM   13  O1  UNK     1      32.324  -5.301  38.466  1.00  0.00    -0.267 OA
HETATM   14  N1  UNK     1      30.263  -5.621  37.443  1.00  0.00    -0.345 N 
HETATM   15  C1  UNK     1      29.392  -6.195  36.413  1.00  0.00     0.146 C 
HETATM   16  C2  UNK     1      29.555  -4.736  38.366  1.00  0.00     0.146 C 
HETATM   17  C3  UNK     1      28.252  -6.980  37.056  1.00  0.00     0.161 C 
HETATM   18  N2  UNK     1      27.557  -6.148  38.049  1.00  0.00    -0.211 N 
HETATM   19  C4  UNK     1      28.409  -5.482  39.049  1.00  0.00     0.161 C 
BRANCH  18  20
HETATM   20  C6  UNK     1      26.247  -6.469  38.422  1.00  0.00     0.724 A 
HETATM   21  N3  UNK     1      25.868  -7.780  38.378  1.00  0.00    -0.075 NA
HETATM   22  C15 UNK     1      24.598  -8.052  38.745  1.00  0.00     0.138 A 
HETATM   23  C18 UNK     1      23.694  -7.093  39.151  1.00  0.00     0.040 A 
HETATM   24  C16 UNK     1      24.167  -5.796  39.163  1.00  0.00     0.138 A 
HETATM   25  N4  UNK     1      25.422  -5.452  38.810  1.00  0.00    -0.075 NA
ENDBRANCH  18  20
ENDBRANCH   3  12
BRANCH  10  26
HETATM   26  N5  UNK     1      35.583  -6.646  31.480  1.00  0.00    -0.116 N 
HETATM   27  O4  UNK     1      35.258  -7.008  30.323  1.00  0.00    -0.532 OA
HETATM   28  O5  UNK     1      36.479  -5.793  31.685  1.00  0.00    -0.532 OA
ENDBRANCH  10  26
TORSDOF 3
ENDMDL
