MODEL 1
REMARK VINA RESULT:      -8.8      0.000      0.000
REMARK  3 active torsions:
REMARK  status: ('A' for Active; 'I' for Inactive)
REMARK    1  A    between atoms: C2_6  and  C6_10 
REMARK    2  A    between atoms: C10_14  and  C6_10 
REMARK    3  A    between atoms: C10_14  and  C11_15 
ROOT
HETATM    1  O1  UNK     1      17.800   2.100  33.554  1.00  0.00    -0.267 OA
HETATM    2  N1  UNK     1      18.974   0.253  32.667  1.00  0.00    -0.322 N 
HETATM    3  C1  UNK     1      19.128   0.889  30.462  1.00  0.00     0.006 A 
HETATM    4  C2  UNK     1      18.416   1.923  31.205  1.00  0.00     0.048 A 
HETATM    5  C3  UNK     1      19.443  -0.102  31.396  1.00  0.00     0.046 A 
HETATM    6  C4  UNK     1      18.325   1.491  32.640  1.00  0.00     0.257 A 
HETATM    7  C5  UNK     1      19.495   0.751  29.136  1.00  0.00     0.015 A 
HETATM    8  C7  UNK     1      20.128  -1.251  31.054  1.00  0.00     0.030 A 
HETATM    9  C8  UNK     1      20.190  -0.405  28.767  1.00  0.00     0.001 A 
HETATM   10  C9  UNK     1      20.503  -1.397  29.716  1.00  0.00     0.002 A 
HETATM   11  H1  UNK     1      19.096  -0.326  33.490  1.00  0.00     0.169 HD
ENDROOT
BRANCH   4  12
HETATM   12  C6  UNK     1      17.909   3.072  30.754  1.00  0.00     0.073 C 
BRANCH  12  13
HETATM   13  C10 UNK     1      18.784   4.267  30.605  1.00  0.00     0.183 C 
HETATM   14  O2  UNK     1      19.372   4.523  29.561  1.00  0.00    -0.288 OA
BRANCH  13  15
HETATM   15  C11 UNK     1      18.908   5.183  31.765  1.00  0.00     0.014 A 
HETATM   16  C12 UNK     1      20.078   5.897  31.932  1.00  0.00     0.017 A 
HETATM   17  C14 UNK     1      20.194   6.758  33.023  1.00  0.00     0.025 A 
HETATM   18  C16 UNK     1      19.137   6.886  33.925  1.00  0.00     0.034 A 
HETATM   19  C15 UNK     1      17.966   6.155  33.736  1.00  0.00     0.025 A 
HETATM   20 Cl1  UNK     1      19.280   7.948  35.271  1.00  0.00    -0.084 Cl
HETATM   21  C13 UNK     1      17.850   5.294  32.644  1.00  0.00     0.017 A 
ENDBRANCH  13  15
ENDBRANCH  12  13
ENDBRANCH   4  12
TORSDOF 3
ENDMDL
MODEL 2
REMARK VINA RESULT:      -8.6      1.652      2.438
REMARK  3 active torsions:
REMARK  status: ('A' for Active; 'I' for Inactive)
REMARK    1  A    between atoms: C2_6  and  C6_10 
REMARK    2  A    between atoms: C10_14  and  C6_10 
REMARK    3  A    between atoms: C10_14  and  C11_15 
ROOT
HETATM    1  O1  UNK     1      17.605   2.394  27.905  1.00  0.00    -0.267 OA
HETATM    2  N1  UNK     1      18.769   0.353  28.148  1.00  0.00    -0.322 N 
HETATM    3  C1  UNK     1      19.328   0.467  30.376  1.00  0.00     0.006 A 
HETATM    4  C2  UNK     1      18.583   1.667  30.013  1.00  0.00     0.048 A 
HETATM    5  C3  UNK     1      19.414  -0.296  29.208  1.00  0.00     0.046 A 
HETATM    6  C4  UNK     1      18.227   1.575  28.557  1.00  0.00     0.257 A 
HETATM    7  C5  UNK     1      19.896   0.020  31.555  1.00  0.00     0.015 A 
HETATM    8  C7  UNK     1      20.057  -1.517  29.168  1.00  0.00     0.030 A 
HETATM    9  C8  UNK     1      20.553  -1.215  31.536  1.00  0.00     0.001 A 
HETATM   10  C9  UNK     1      20.633  -1.975  30.354  1.00  0.00     0.002 A 
HETATM   11  H1  UNK     1      18.713  -0.027  27.210  1.00  0.00     0.169 HD
ENDROOT
BRANCH   4  12
HETATM   12  C6  UNK     1      18.242   2.701  30.785  1.00  0.00     0.073 C 
BRANCH  12  13
HETATM   13  C10 UNK     1      18.859   4.037  30.562  1.00  0.00     0.183 C 
HETATM   14  O2  UNK     1      19.280   4.391  29.467  1.00  0.00    -0.288 OA
BRANCH  13  15
HETATM   15  C11 UNK     1      18.927   4.969  31.714  1.00  0.00     0.014 A 
HETATM   16  C12 UNK     1      17.959   4.891  32.696  1.00  0.00     0.017 A 
HETATM   17  C14 UNK     1      18.024   5.768  33.779  1.00  0.00     0.025 A 
HETATM   18  C16 UNK     1      19.056   6.705  33.857  1.00  0.00     0.034 A 
HETATM   19  C15 UNK     1      20.022   6.764  32.853  1.00  0.00     0.025 A 
HETATM   20 Cl1  UNK     1      19.136   7.786  35.193  1.00  0.00    -0.084 Cl
HETATM   21  C13 UNK     1      19.957   5.887  31.771  1.00  0.00     0.017 A 
ENDBRANCH  13  15
ENDBRANCH  12  13
ENDBRANCH   4  12
TORSDOF 3
ENDMDL
MODEL 3
REMARK VINA RESULT:      -8.1      3.620      7.233
REMARK  3 active torsions:
REMARK  status: ('A' for Active; 'I' for Inactive)
REMARK    1  A    between atoms: C2_6  and  C6_10 
REMARK    2  A    between atoms: C10_14  and  C6_10 
REMARK    3  A    between atoms: C10_14  and  C11_15 
ROOT
HETATM    1  O1  UNK     1      21.070   6.176  32.692  1.00  0.00    -0.267 OA
HETATM    2  N1  UNK     1      19.564   7.816  33.478  1.00  0.00    -0.322 N 
HETATM    3  C1  UNK     1      17.675   7.230  32.305  1.00  0.00     0.006 A 
HETATM    4  C2  UNK     1      18.754   6.314  31.953  1.00  0.00     0.048 A 
HETATM    5  C3  UNK     1      18.220   8.122  33.232  1.00  0.00     0.046 A 
HETATM    6  C4  UNK     1      19.977   6.711  32.728  1.00  0.00     0.257 A 
HETATM    7  C5  UNK     1      16.354   7.341  31.910  1.00  0.00     0.015 A 
HETATM    8  C7  UNK     1      17.483   9.144  33.797  1.00  0.00     0.030 A 
HETATM    9  C8  UNK     1      15.590   8.370  32.470  1.00  0.00     0.001 A 
HETATM   10  C9  UNK     1      16.149   9.263  33.403  1.00  0.00     0.002 A 
HETATM   11  H1  UNK     1      20.149   8.340  34.119  1.00  0.00     0.169 HD
ENDROOT
BRANCH   4  12
HETATM   12  C6  UNK     1      18.728   5.284  31.105  1.00  0.00     0.073 C 
BRANCH  12  13
HETATM   13  C10 UNK     1      18.307   3.937  31.577  1.00  0.00     0.183 C 
HETATM   14  O2  UNK     1      17.779   3.759  32.669  1.00  0.00    -0.288 OA
BRANCH  13  15
HETATM   15  C11 UNK     1      18.515   2.787  30.664  1.00  0.00     0.014 A 
HETATM   16  C12 UNK     1      18.051   2.870  29.366  1.00  0.00     0.017 A 
HETATM   17  C14 UNK     1      18.247   1.787  28.508  1.00  0.00     0.025 A 
HETATM   18  C16 UNK     1      18.904   0.645  28.966  1.00  0.00     0.034 A 
HETATM   19  C15 UNK     1      19.365   0.584  30.280  1.00  0.00     0.025 A 
HETATM   20 Cl1  UNK     1      19.147  -0.690  27.907  1.00  0.00    -0.084 Cl
HETATM   21  C13 UNK     1      19.169   1.667  31.138  1.00  0.00     0.017 A 
ENDBRANCH  13  15
ENDBRANCH  12  13
ENDBRANCH   4  12
TORSDOF 3
ENDMDL
MODEL 4
REMARK VINA RESULT:      -8.0      1.898      2.901
REMARK  3 active torsions:
REMARK  status: ('A' for Active; 'I' for Inactive)
REMARK    1  A    between atoms: C2_6  and  C6_10 
REMARK    2  A    between atoms: C10_14  and  C6_10 
REMARK    3  A    between atoms: C10_14  and  C11_15 
ROOT
HETATM    1  O1  UNK     1      20.281  -0.186  28.529  1.00  0.00    -0.267 OA
HETATM    2  N1  UNK     1      19.994  -1.341  30.569  1.00  0.00    -0.322 N 
HETATM    3  C1  UNK     1      19.081   0.330  31.858  1.00  0.00     0.006 A 
HETATM    4  C2  UNK     1      19.341   0.852  30.521  1.00  0.00     0.048 A 
HETATM    5  C3  UNK     1      19.496  -1.004  31.834  1.00  0.00     0.046 A 
HETATM    6  C4  UNK     1      19.936  -0.252  29.695  1.00  0.00     0.257 A 
HETATM    7  C5  UNK     1      18.551   0.884  33.009  1.00  0.00     0.015 A 
HETATM    8  C7  UNK     1      19.400  -1.829  32.937  1.00  0.00     0.030 A 
HETATM    9  C8  UNK     1      18.446   0.066  34.139  1.00  0.00     0.001 A 
HETATM   10  C9  UNK     1      18.867  -1.277  34.103  1.00  0.00     0.002 A 
HETATM   11  H1  UNK     1      20.349  -2.261  30.334  1.00  0.00     0.169 HD
ENDROOT
BRANCH   4  12
HETATM   12  C6  UNK     1      19.114   2.079  30.048  1.00  0.00     0.073 C 
BRANCH  12  13
HETATM   13  C10 UNK     1      18.103   2.956  30.698  1.00  0.00     0.183 C 
HETATM   14  O2  UNK     1      16.903   2.708  30.668  1.00  0.00    -0.288 OA
BRANCH  13  15
HETATM   15  C11 UNK     1      18.590   4.150  31.430  1.00  0.00     0.014 A 
HETATM   16  C12 UNK     1      19.451   5.022  30.792  1.00  0.00     0.017 A 
HETATM   17  C14 UNK     1      19.909   6.144  31.481  1.00  0.00     0.025 A 
HETATM   18  C16 UNK     1      19.497   6.372  32.795  1.00  0.00     0.034 A 
HETATM   19  C15 UNK     1      18.627   5.478  33.418  1.00  0.00     0.025 A 
HETATM   20 Cl1  UNK     1      20.062   7.757  33.645  1.00  0.00    -0.084 Cl
HETATM   21  C13 UNK     1      18.169   4.356  32.729  1.00  0.00     0.017 A 
ENDBRANCH  13  15
ENDBRANCH  12  13
ENDBRANCH   4  12
TORSDOF 3
ENDMDL
MODEL 5
REMARK VINA RESULT:      -7.8     22.921     24.621
REMARK  3 active torsions:
REMARK  status: ('A' for Active; 'I' for Inactive)
REMARK    1  A    between atoms: C2_6  and  C6_10 
REMARK    2  A    between atoms: C10_14  and  C6_10 
REMARK    3  A    between atoms: C10_14  and  C11_15 
ROOT
HETATM    1  O1  UNK     1      16.001   3.947   9.762  1.00  0.00    -0.267 OA
HETATM    2  N1  UNK     1      16.726   6.177  10.045  1.00  0.00    -0.322 N 
HETATM    3  C1  UNK     1      14.926   7.304   9.162  1.00  0.00     0.006 A 
HETATM    4  C2  UNK     1      14.673   5.870   9.081  1.00  0.00     0.048 A 
HETATM    5  C3  UNK     1      16.186   7.435   9.754  1.00  0.00     0.046 A 
HETATM    6  C4  UNK     1      15.857   5.151   9.661  1.00  0.00     0.257 A 
HETATM    7  C5  UNK     1      14.202   8.421   8.790  1.00  0.00     0.015 A 
HETATM    8  C7  UNK     1      16.765   8.665   9.996  1.00  0.00     0.030 A 
HETATM    9  C8  UNK     1      14.771   9.678   9.026  1.00  0.00     0.001 A 
HETATM   10  C9  UNK     1      16.040   9.798   9.622  1.00  0.00     0.002 A 
HETATM   11  H1  UNK     1      17.633   6.043  10.476  1.00  0.00     0.169 HD
ENDROOT
BRANCH   4  12
HETATM   12  C6  UNK     1      13.602   5.241   8.593  1.00  0.00     0.073 C 
BRANCH  12  13
HETATM   13  C10 UNK     1      12.273   5.414   9.241  1.00  0.00     0.183 C 
HETATM   14  O2  UNK     1      12.105   5.262  10.445  1.00  0.00    -0.288 OA
BRANCH  13  15
HETATM   15  C11 UNK     1      11.132   5.816   8.383  1.00  0.00     0.014 A 
HETATM   16  C12 UNK     1      11.337   5.974   7.026  1.00  0.00     0.017 A 
HETATM   17  C14 UNK     1      10.264   6.352   6.220  1.00  0.00     0.025 A 
HETATM   18  C16 UNK     1       9.006   6.564   6.787  1.00  0.00     0.034 A 
HETATM   19  C15 UNK     1       8.823   6.397   8.159  1.00  0.00     0.025 A 
HETATM   20 Cl1  UNK     1       7.682   7.029   5.793  1.00  0.00    -0.084 Cl
HETATM   21  C13 UNK     1       9.897   6.019   8.966  1.00  0.00     0.017 A 
ENDBRANCH  13  15
ENDBRANCH  12  13
ENDBRANCH   4  12
TORSDOF 3
ENDMDL
MODEL 6
REMARK VINA RESULT:      -7.8      7.699     10.670
REMARK  3 active torsions:
REMARK  status: ('A' for Active; 'I' for Inactive)
REMARK    1  A    between atoms: C2_6  and  C6_10 
REMARK    2  A    between atoms: C10_14  and  C6_10 
REMARK    3  A    between atoms: C10_14  and  C11_15 
ROOT
HETATM    1  O1  UNK     1      20.855  -3.109  33.818  1.00  0.00    -0.267 OA
HETATM    2  N1  UNK     1      19.238  -1.398  34.009  1.00  0.00    -0.322 N 
HETATM    3  C1  UNK     1      18.767  -1.532  36.256  1.00  0.00     0.006 A 
HETATM    4  C2  UNK     1      19.773  -2.534  35.922  1.00  0.00     0.048 A 
HETATM    5  C3  UNK     1      18.477  -0.871  35.059  1.00  0.00     0.046 A 
HETATM    6  C4  UNK     1      20.067  -2.432  34.453  1.00  0.00     0.257 A 
HETATM    7  C5  UNK     1      18.132  -1.176  37.431  1.00  0.00     0.015 A 
HETATM    8  C7  UNK     1      17.557   0.156  34.985  1.00  0.00     0.030 A 
HETATM    9  C8  UNK     1      17.196  -0.138  37.379  1.00  0.00     0.001 A 
HETATM   10  C9  UNK     1      16.911   0.521  36.168  1.00  0.00     0.002 A 
HETATM   11  H1  UNK     1      19.182  -1.063  33.054  1.00  0.00     0.169 HD
ENDROOT
BRANCH   4  12
HETATM   12  C6  UNK     1      20.369  -3.415  36.728  1.00  0.00     0.073 C 
BRANCH  12  13
HETATM   13  C10 UNK     1      19.732  -4.734  36.996  1.00  0.00     0.183 C 
HETATM   14  O2  UNK     1      18.654  -5.052  36.509  1.00  0.00    -0.288 OA
BRANCH  13  15
HETATM   15  C11 UNK     1      20.462  -5.692  37.861  1.00  0.00     0.014 A 
HETATM   16  C12 UNK     1      19.772  -6.749  38.420  1.00  0.00     0.017 A 
HETATM   17  C14 UNK     1      20.459  -7.650  39.233  1.00  0.00     0.025 A 
HETATM   18  C16 UNK     1      21.823  -7.475  39.471  1.00  0.00     0.034 A 
HETATM   19  C15 UNK     1      22.499  -6.400  38.894  1.00  0.00     0.025 A 
HETATM   20 Cl1  UNK     1      22.671  -8.587  40.473  1.00  0.00    -0.084 Cl
HETATM   21  C13 UNK     1      21.812  -5.500  38.081  1.00  0.00     0.017 A 
ENDBRANCH  13  15
ENDBRANCH  12  13
ENDBRANCH   4  12
TORSDOF 3
ENDMDL
MODEL 7
REMARK VINA RESULT:      -7.7      4.598      8.275
REMARK  3 active torsions:
REMARK  status: ('A' for Active; 'I' for Inactive)
REMARK    1  A    between atoms: C2_6  and  C6_10 
REMARK    2  A    between atoms: C10_14  and  C6_10 
REMARK    3  A    between atoms: C10_14  and  C11_15 
ROOT
HETATM    1  O1  UNK     1      14.156   6.662  31.863  1.00  0.00    -0.267 OA
HETATM    2  N1  UNK     1      13.755   8.337  33.479  1.00  0.00    -0.322 N 
HETATM    3  C1  UNK     1      15.770   9.444  33.427  1.00  0.00     0.006 A 
HETATM    4  C2  UNK     1      15.810   8.341  32.472  1.00  0.00     0.048 A 
HETATM    5  C3  UNK     1      14.501   9.396  34.010  1.00  0.00     0.046 A 
HETATM    6  C4  UNK     1      14.489   7.631  32.520  1.00  0.00     0.257 A 
HETATM    7  C5  UNK     1      16.682  10.414  33.799  1.00  0.00     0.015 A 
HETATM    8  C7  UNK     1      14.095  10.298  34.973  1.00  0.00     0.030 A 
HETATM    9  C8  UNK     1      16.291  11.338  34.774  1.00  0.00     0.001 A 
HETATM   10  C9  UNK     1      15.011  11.280  35.355  1.00  0.00     0.002 A 
HETATM   11  H1  UNK     1      12.806   8.121  33.764  1.00  0.00     0.169 HD
ENDROOT
BRANCH   4  12
HETATM   12  C6  UNK     1      16.809   7.973  31.668  1.00  0.00     0.073 C 
BRANCH  12  13
HETATM   13  C10 UNK     1      17.952   7.186  32.206  1.00  0.00     0.183 C 
HETATM   14  O2  UNK     1      18.638   7.580  33.141  1.00  0.00    -0.288 OA
BRANCH  13  15
HETATM   15  C11 UNK     1      18.230   5.864  31.594  1.00  0.00     0.014 A 
HETATM   16  C12 UNK     1      17.877   4.719  32.281  1.00  0.00     0.017 A 
HETATM   17  C14 UNK     1      18.139   3.477  31.705  1.00  0.00     0.025 A 
HETATM   18  C16 UNK     1      18.750   3.404  30.453  1.00  0.00     0.034 A 
HETATM   19  C15 UNK     1      19.098   4.573  29.777  1.00  0.00     0.025 A 
HETATM   20 Cl1  UNK     1      19.074   1.871  29.741  1.00  0.00    -0.084 Cl
HETATM   21  C13 UNK     1      18.835   5.816  30.354  1.00  0.00     0.017 A 
ENDBRANCH  13  15
ENDBRANCH  12  13
ENDBRANCH   4  12
TORSDOF 3
ENDMDL
MODEL 8
REMARK VINA RESULT:      -7.7      3.494      7.194
REMARK  3 active torsions:
REMARK  status: ('A' for Active; 'I' for Inactive)
REMARK    1  A    between atoms: C2_6  and  C6_10 
REMARK    2  A    between atoms: C10_14  and  C6_10 
REMARK    3  A    between atoms: C10_14  and  C11_15 
ROOT
HETATM    1  O1  UNK     1      18.555   6.150  29.339  1.00  0.00    -0.267 OA
HETATM    2  N1  UNK     1      17.155   7.564  30.610  1.00  0.00    -0.322 N 
HETATM    3  C1  UNK     1      17.397   6.613  32.691  1.00  0.00     0.006 A 
HETATM    4  C2  UNK     1      18.205   5.867  31.732  1.00  0.00     0.048 A 
HETATM    5  C3  UNK     1      16.780   7.631  31.958  1.00  0.00     0.046 A 
HETATM    6  C4  UNK     1      18.034   6.501  30.382  1.00  0.00     0.257 A 
HETATM    7  C5  UNK     1      17.173   6.486  34.049  1.00  0.00     0.015 A 
HETATM    8  C7  UNK     1      15.930   8.550  32.539  1.00  0.00     0.030 A 
HETATM    9  C8  UNK     1      16.314   7.406  34.658  1.00  0.00     0.001 A 
HETATM   10  C9  UNK     1      15.698   8.428  33.911  1.00  0.00     0.002 A 
HETATM   11  H1  UNK     1      16.821   8.209  29.904  1.00  0.00     0.169 HD
ENDROOT
BRANCH   4  12
HETATM   12  C6  UNK     1      18.981   4.804  31.948  1.00  0.00     0.073 C 
BRANCH  12  13
HETATM   13  C10 UNK     1      18.372   3.457  32.121  1.00  0.00     0.183 C 
HETATM   14  O2  UNK     1      17.721   3.153  33.114  1.00  0.00    -0.288 OA
BRANCH  13  15
HETATM   15  C11 UNK     1      18.547   2.472  31.025  1.00  0.00     0.014 A 
HETATM   16  C12 UNK     1      17.983   2.736  29.792  1.00  0.00     0.017 A 
HETATM   17  C14 UNK     1      18.148   1.810  28.762  1.00  0.00     0.025 A 
HETATM   18  C16 UNK     1      18.872   0.638  28.987  1.00  0.00     0.034 A 
HETATM   19  C15 UNK     1      19.432   0.394  30.240  1.00  0.00     0.025 A 
HETATM   20 Cl1  UNK     1      19.075  -0.504  27.716  1.00  0.00    -0.084 Cl
HETATM   21  C13 UNK     1      19.268   1.321  31.270  1.00  0.00     0.017 A 
ENDBRANCH  13  15
ENDBRANCH  12  13
ENDBRANCH   4  12
TORSDOF 3
ENDMDL
MODEL 9
REMARK VINA RESULT:      -7.6      3.498      7.000
REMARK  3 active torsions:
REMARK  status: ('A' for Active; 'I' for Inactive)
REMARK    1  A    between atoms: C2_6  and  C6_10 
REMARK    2  A    between atoms: C10_14  and  C6_10 
REMARK    3  A    between atoms: C10_14  and  C11_15 
ROOT
HETATM    1  O1  UNK     1      15.183   6.172  31.855  1.00  0.00    -0.267 OA
HETATM    2  N1  UNK     1      16.437   7.664  33.188  1.00  0.00    -0.322 N 
HETATM    3  C1  UNK     1      18.559   6.864  32.808  1.00  0.00     0.006 A 
HETATM    4  C2  UNK     1      17.606   6.057  32.053  1.00  0.00     0.048 A 
HETATM    5  C3  UNK     1      17.797   7.824  33.479  1.00  0.00     0.046 A 
HETATM    6  C4  UNK     1      16.228   6.593  32.314  1.00  0.00     0.257 A 
HETATM    7  C5  UNK     1      19.934   6.832  32.946  1.00  0.00     0.015 A 
HETATM    8  C7  UNK     1      18.364   8.777  34.302  1.00  0.00     0.030 A 
HETATM    9  C8  UNK     1      20.530   7.788  33.775  1.00  0.00     0.001 A 
HETATM   10  C9  UNK     1      19.753   8.750  34.447  1.00  0.00     0.002 A 
HETATM   11  H1  UNK     1      15.708   8.256  33.572  1.00  0.00     0.169 HD
ENDROOT
BRANCH   4  12
HETATM   12  C6  UNK     1      17.847   5.016  31.254  1.00  0.00     0.073 C 
BRANCH  12  13
HETATM   13  C10 UNK     1      18.048   3.660  31.834  1.00  0.00     0.183 C 
HETATM   14  O2  UNK     1      17.881   3.423  33.024  1.00  0.00    -0.288 OA
BRANCH  13  15
HETATM   15  C11 UNK     1      18.433   2.563  30.912  1.00  0.00     0.014 A 
HETATM   16  C12 UNK     1      19.256   1.556  31.376  1.00  0.00     0.017 A 
HETATM   17  C14 UNK     1      19.618   0.525  30.509  1.00  0.00     0.025 A 
HETATM   18  C16 UNK     1      19.150   0.524  29.194  1.00  0.00     0.034 A 
HETATM   19  C15 UNK     1      18.320   1.552  28.748  1.00  0.00     0.025 A 
HETATM   20 Cl1  UNK     1      19.595  -0.747  28.124  1.00  0.00    -0.084 Cl
HETATM   21  C13 UNK     1      17.958   2.582  29.616  1.00  0.00     0.017 A 
ENDBRANCH  13  15
ENDBRANCH  12  13
ENDBRANCH   4  12
TORSDOF 3
ENDMDL
MODEL 10
REMARK VINA RESULT:      -7.6      4.814      6.237
REMARK  3 active torsions:
REMARK  status: ('A' for Active; 'I' for Inactive)
REMARK    1  A    between atoms: C2_6  and  C6_10 
REMARK    2  A    between atoms: C10_14  and  C6_10 
REMARK    3  A    between atoms: C10_14  and  C11_15 
ROOT
HETATM    1  O1  UNK     1      17.906   7.666  35.343  1.00  0.00    -0.267 OA
HETATM    2  N1  UNK     1      19.753   6.958  34.052  1.00  0.00    -0.322 N 
HETATM    3  C1  UNK     1      18.715   6.573  32.036  1.00  0.00     0.006 A 
HETATM    4  C2  UNK     1      17.721   7.031  33.000  1.00  0.00     0.048 A 
HETATM    5  C3  UNK     1      19.930   6.546  32.725  1.00  0.00     0.046 A 
HETATM    6  C4  UNK     1      18.416   7.277  34.308  1.00  0.00     0.257 A 
HETATM    7  C5  UNK     1      18.651   6.205  30.705  1.00  0.00     0.015 A 
HETATM    8  C7  UNK     1      21.112   6.159  32.127  1.00  0.00     0.030 A 
HETATM    9  C8  UNK     1      19.837   5.808  30.078  1.00  0.00     0.001 A 
HETATM   10  C9  UNK     1      21.055   5.785  30.782  1.00  0.00     0.002 A 
HETATM   11  H1  UNK     1      20.506   7.012  34.727  1.00  0.00     0.169 HD
ENDROOT
BRANCH   4  12
HETATM   12  C6  UNK     1      16.412   7.221  32.820  1.00  0.00     0.073 C 
BRANCH  12  13
HETATM   13  C10 UNK     1      15.918   8.482  32.202  1.00  0.00     0.183 C 
HETATM   14  O2  UNK     1      15.879   8.646  30.989  1.00  0.00    -0.288 OA
BRANCH  13  15
HETATM   15  C11 UNK     1      15.432   9.552  33.107  1.00  0.00     0.014 A 
HETATM   16  C12 UNK     1      16.354  10.328  33.782  1.00  0.00     0.017 A 
HETATM   17  C14 UNK     1      15.896  11.334  34.633  1.00  0.00     0.025 A 
HETATM   18  C16 UNK     1      14.526  11.542  34.792  1.00  0.00     0.034 A 
HETATM   19  C15 UNK     1      13.614  10.746  34.100  1.00  0.00     0.025 A 
HETATM   20 Cl1  UNK     1      13.961  12.784  35.841  1.00  0.00    -0.084 Cl
HETATM   21  C13 UNK     1      14.072   9.740  33.249  1.00  0.00     0.017 A 
ENDBRANCH  13  15
ENDBRANCH  12  13
ENDBRANCH   4  12
TORSDOF 3
ENDMDL
