MODEL 1
REMARK VINA RESULT:      -9.1      0.000      0.000
REMARK  4 active torsions:
REMARK  status: ('A' for Active; 'I' for Inactive)
REMARK    1  A    between atoms: C1_8  and  O1_2 
REMARK    2  A    between atoms: C17_24  and  O1_2 
REMARK    3  A    between atoms: C16_23  and  C4_11 
REMARK    4  A    between atoms: C10_17  and  C17_24 
ROOT
HETATM    1  O2  UNK     1      30.984  -5.321  36.485  1.00  0.00    -0.293 OA
HETATM    2  N1  UNK     1      33.832  -8.710  34.799  1.00  0.00    -0.362 N 
HETATM    3  C4  UNK     1      31.143  -7.883  35.167  1.00  0.00     0.104 C 
HETATM    4  C8  UNK     1      32.341  -7.102  35.696  1.00  0.00     0.024 C 
HETATM    5  C9  UNK     1      33.602  -7.551  35.516  1.00  0.00     0.020 C 
HETATM    6  C10 UNK     1      31.550  -9.056  34.274  1.00  0.00     0.052 C 
HETATM    7  C11 UNK     1      34.817  -6.848  36.060  1.00  0.00     0.058 C 
HETATM    8  C12 UNK     1      34.472  -5.912  37.211  1.00  0.00     0.014 C 
HETATM    9  C13 UNK     1      33.321  -4.995  36.838  1.00  0.00     0.084 C 
HETATM   10  C14 UNK     1      32.844  -9.432  34.148  1.00  0.00     0.018 C 
HETATM   11  C15 UNK     1      32.118  -5.785  36.371  1.00  0.00     0.158 C 
HETATM   12  C18 UNK     1      33.342 -10.599  33.339  1.00  0.00     0.069 C 
HETATM   13  H19 UNK     1      34.793  -9.012  34.683  1.00  0.00     0.165 HD
ENDROOT
BRANCH   3  14
HETATM   14  C16 UNK     1      30.291  -8.368  36.309  1.00  0.00     0.029 A 
HETATM   15  C19 UNK     1      28.887  -7.896  36.397  1.00  0.00     0.194 A 
HETATM   16  O5  UNK     1      28.405  -7.130  35.573  1.00  0.00    -0.287 OA
HETATM   17  C21 UNK     1      28.097  -8.403  37.535  1.00  0.00     0.050 A 
HETATM   18  C22 UNK     1      28.699  -9.275  38.443  1.00  0.00     0.089 A 
HETATM   19  C23 UNK     1      26.765  -8.018  37.706  1.00  0.00     0.042 A 
HETATM   20  O4  UNK     1      30.002  -9.686  38.323  1.00  0.00    -0.321 OA
HETATM   21  C24 UNK     1      27.971  -9.766  39.527  1.00  0.00     0.040 A 
HETATM   22  C20 UNK     1      30.725  -9.206  37.259  1.00  0.00     0.154 A 
HETATM   23  C26 UNK     1      26.641  -9.383  39.700  1.00  0.00     0.026 A 
HETATM   24  C25 UNK     1      26.040  -8.511  38.791  1.00  0.00     0.035 A 
HETATM   25 Cl1  UNK     1      24.398  -8.042  39.010  1.00  0.00    -0.084 Cl
ENDBRANCH   3  14
BRANCH   6  26
HETATM   26  C17 UNK     1      30.469  -9.718  33.526  1.00  0.00     0.292 C 
HETATM   27  O3  UNK     1      29.849 -10.674  33.952  1.00  0.00    -0.259 OA
BRANCH  26  28
HETATM   28  O1  UNK     1      30.319  -9.081  32.340  1.00  0.00    -0.312 OA
BRANCH  28  29
HETATM   29  C1  UNK     1      29.007  -8.589  32.081  1.00  0.00     0.132 C 
HETATM   30  C2  UNK     1      28.591  -8.964  30.660  1.00  0.00     0.032 C 
HETATM   31  C5  UNK     1      27.231  -8.375  30.300  1.00  0.00     0.002 C 
HETATM   32  C7  UNK     1      27.197  -6.864  30.518  1.00  0.00     0.000 C 
HETATM   33  C6  UNK     1      27.615  -6.487  31.937  1.00  0.00     0.002 C 
HETATM   34  C3  UNK     1      28.976  -7.076  32.296  1.00  0.00     0.032 C 
ENDBRANCH  28  29
ENDBRANCH  26  28
ENDBRANCH   6  26
TORSDOF 4
ENDMDL
MODEL 2
REMARK VINA RESULT:      -8.8      3.027      5.538
REMARK  4 active torsions:
REMARK  status: ('A' for Active; 'I' for Inactive)
REMARK    1  A    between atoms: C1_8  and  O1_2 
REMARK    2  A    between atoms: C17_24  and  O1_2 
REMARK    3  A    between atoms: C16_23  and  C4_11 
REMARK    4  A    between atoms: C10_17  and  C17_24 
ROOT
HETATM    1  O2  UNK     1      26.949  -9.778  36.070  1.00  0.00    -0.293 OA
HETATM    2  N1  UNK     1      29.795  -6.581  38.100  1.00  0.00    -0.362 N 
HETATM    3  C4  UNK     1      29.217  -8.027  35.729  1.00  0.00     0.104 C 
HETATM    4  C8  UNK     1      28.471  -8.235  37.042  1.00  0.00     0.024 C 
HETATM    5  C9  UNK     1      28.800  -7.539  38.150  1.00  0.00     0.020 C 
HETATM    6  C10 UNK     1      30.184  -6.843  35.780  1.00  0.00     0.052 C 
HETATM    7  C11 UNK     1      28.131  -7.740  39.484  1.00  0.00     0.058 C 
HETATM    8  C12 UNK     1      27.440  -9.094  39.583  1.00  0.00     0.014 C 
HETATM    9  C13 UNK     1      26.546  -9.334  38.380  1.00  0.00     0.084 C 
HETATM   10  C14 UNK     1      30.448  -6.198  36.940  1.00  0.00     0.018 C 
HETATM   11  C15 UNK     1      27.313  -9.184  37.085  1.00  0.00     0.158 C 
HETATM   12  C18 UNK     1      31.418  -5.058  37.106  1.00  0.00     0.069 C 
HETATM   13  H19 UNK     1      30.010  -6.077  38.953  1.00  0.00     0.165 HD
ENDROOT
BRANCH   3  14
HETATM   14  C16 UNK     1      29.952  -9.283  35.342  1.00  0.00     0.029 A 
HETATM   15  C19 UNK     1      29.626  -9.924  34.044  1.00  0.00     0.194 A 
HETATM   16  O5  UNK     1      28.784  -9.465  33.285  1.00  0.00    -0.287 OA
HETATM   17  C21 UNK     1      30.376 -11.151  33.715  1.00  0.00     0.050 A 
HETATM   18  C22 UNK     1      31.326 -11.628  34.619  1.00  0.00     0.089 A 
HETATM   19  C23 UNK     1      30.143 -11.829  32.516  1.00  0.00     0.042 A 
HETATM   20  O4  UNK     1      31.596 -11.003  35.810  1.00  0.00    -0.321 OA
HETATM   21  C24 UNK     1      32.047 -12.787  34.328  1.00  0.00     0.040 A 
HETATM   22  C20 UNK     1      30.890  -9.862  36.103  1.00  0.00     0.154 A 
HETATM   23  C26 UNK     1      31.815 -13.465  33.132  1.00  0.00     0.026 A 
HETATM   24  C25 UNK     1      30.865 -12.987  32.228  1.00  0.00     0.035 A 
HETATM   25 Cl1  UNK     1      30.584 -13.830  30.753  1.00  0.00    -0.084 Cl
ENDBRANCH   3  14
BRANCH   6  26
HETATM   26  C17 UNK     1      30.766  -6.415  34.498  1.00  0.00     0.292 C 
HETATM   27  O3  UNK     1      31.897  -6.698  34.151  1.00  0.00    -0.259 OA
BRANCH  26  28
HETATM   28  O1  UNK     1      29.841  -5.686  33.831  1.00  0.00    -0.312 OA
BRANCH  28  29
HETATM   29  C1  UNK     1      29.303  -6.313  32.670  1.00  0.00     0.132 C 
HETATM   30  C2  UNK     1      29.933  -5.702  31.420  1.00  0.00     0.032 C 
HETATM   31  C5  UNK     1      29.318  -6.272  30.145  1.00  0.00     0.002 C 
HETATM   32  C7  UNK     1      27.798  -6.124  30.140  1.00  0.00     0.000 C 
HETATM   33  C6  UNK     1      27.166  -6.733  31.391  1.00  0.00     0.002 C 
HETATM   34  C3  UNK     1      27.782  -6.162  32.664  1.00  0.00     0.032 C 
ENDBRANCH  28  29
ENDBRANCH  26  28
ENDBRANCH   6  26
TORSDOF 4
ENDMDL
MODEL 3
REMARK VINA RESULT:      -8.7      4.039      6.769
REMARK  4 active torsions:
REMARK  status: ('A' for Active; 'I' for Inactive)
REMARK    1  A    between atoms: C1_8  and  O1_2 
REMARK    2  A    between atoms: C17_24  and  O1_2 
REMARK    3  A    between atoms: C16_23  and  C4_11 
REMARK    4  A    between atoms: C10_17  and  C17_24 
ROOT
HETATM    1  O2  UNK     1      33.764 -11.713  31.590  1.00  0.00    -0.293 OA
HETATM    2  N1  UNK     1      29.534 -11.968  29.472  1.00  0.00    -0.362 N 
HETATM    3  C4  UNK     1      31.670 -10.263  30.235  1.00  0.00     0.104 C 
HETATM    4  C8  UNK     1      31.609 -11.744  30.593  1.00  0.00     0.024 C 
HETATM    5  C9  UNK     1      30.558 -12.508  30.227  1.00  0.00     0.020 C 
HETATM    6  C10 UNK     1      30.552  -9.840  29.281  1.00  0.00     0.052 C 
HETATM    7  C11 UNK     1      30.422 -13.961  30.597  1.00  0.00     0.058 C 
HETATM    8  C12 UNK     1      31.286 -14.333  31.796  1.00  0.00     0.014 C 
HETATM    9  C13 UNK     1      32.714 -13.856  31.603  1.00  0.00     0.084 C 
HETATM   10  C14 UNK     1      29.539 -10.679  28.964  1.00  0.00     0.018 C 
HETATM   11  C15 UNK     1      32.764 -12.373  31.308  1.00  0.00     0.158 C 
HETATM   12  C18 UNK     1      28.369 -10.343  28.079  1.00  0.00     0.069 C 
HETATM   13  H19 UNK     1      28.764 -12.575  29.215  1.00  0.00     0.165 HD
ENDROOT
BRANCH   3  14
HETATM   14  C16 UNK     1      31.635  -9.423  31.484  1.00  0.00     0.029 A 
HETATM   15  C19 UNK     1      32.685  -8.392  31.675  1.00  0.00     0.194 A 
HETATM   16  O5  UNK     1      33.572  -8.207  30.853  1.00  0.00    -0.287 OA
HETATM   17  C21 UNK     1      32.602  -7.597  32.915  1.00  0.00     0.050 A 
HETATM   18  C22 UNK     1      31.568  -7.852  33.816  1.00  0.00     0.089 A 
HETATM   19  C23 UNK     1      33.544  -6.602  33.188  1.00  0.00     0.042 A 
HETATM   20  O4  UNK     1      30.616  -8.816  33.599  1.00  0.00    -0.321 OA
HETATM   21  C24 UNK     1      31.471  -7.112  34.995  1.00  0.00     0.040 A 
HETATM   22  C20 UNK     1      30.706  -9.548  32.440  1.00  0.00     0.154 A 
HETATM   23  C26 UNK     1      32.410  -6.119  35.269  1.00  0.00     0.026 A 
HETATM   24  C25 UNK     1      33.444  -5.864  34.368  1.00  0.00     0.035 A 
HETATM   25 Cl1  UNK     1      34.600  -4.636  34.713  1.00  0.00    -0.084 Cl
ENDBRANCH   3  14
BRANCH   6  26
HETATM   26  C17 UNK     1      30.667  -8.497  28.690  1.00  0.00     0.292 C 
HETATM   27  O3  UNK     1      31.623  -8.136  28.029  1.00  0.00    -0.259 OA
BRANCH  26  28
HETATM   28  O1  UNK     1      29.558  -7.791  29.015  1.00  0.00    -0.312 OA
BRANCH  28  29
HETATM   29  C1  UNK     1      29.503  -7.341  30.365  1.00  0.00     0.132 C 
HETATM   30  C2  UNK     1      28.072  -7.455  30.886  1.00  0.00     0.032 C 
HETATM   31  C5  UNK     1      27.942  -6.893  32.298  1.00  0.00     0.002 C 
HETATM   32  C7  UNK     1      28.460  -5.459  32.382  1.00  0.00     0.000 C 
HETATM   33  C6  UNK     1      29.891  -5.343  31.860  1.00  0.00     0.002 C 
HETATM   34  C3  UNK     1      30.020  -5.905  30.447  1.00  0.00     0.032 C 
ENDBRANCH  28  29
ENDBRANCH  26  28
ENDBRANCH   6  26
TORSDOF 4
ENDMDL
MODEL 4
REMARK VINA RESULT:      -8.6      2.770      5.375
REMARK  4 active torsions:
REMARK  status: ('A' for Active; 'I' for Inactive)
REMARK    1  A    between atoms: C1_8  and  O1_2 
REMARK    2  A    between atoms: C17_24  and  O1_2 
REMARK    3  A    between atoms: C16_23  and  C4_11 
REMARK    4  A    between atoms: C10_17  and  C17_24 
ROOT
HETATM    1  O2  UNK     1      30.330  -3.762  37.401  1.00  0.00    -0.293 OA
HETATM    2  N1  UNK     1      29.789  -8.378  38.318  1.00  0.00    -0.362 N 
HETATM    3  C4  UNK     1      31.225  -6.443  36.820  1.00  0.00     0.104 C 
HETATM    4  C8  UNK     1      30.060  -6.096  37.741  1.00  0.00     0.024 C 
HETATM    5  C9  UNK     1      29.393  -7.058  38.414  1.00  0.00     0.020 C 
HETATM    6  C10 UNK     1      31.644  -7.910  36.924  1.00  0.00     0.052 C 
HETATM    7  C11 UNK     1      28.205  -6.778  39.296  1.00  0.00     0.058 C 
HETATM    8  C12 UNK     1      27.544  -5.446  38.966  1.00  0.00     0.014 C 
HETATM    9  C13 UNK     1      28.572  -4.330  38.912  1.00  0.00     0.084 C 
HETATM   10  C14 UNK     1      30.914  -8.804  37.631  1.00  0.00     0.018 C 
HETATM   11  C15 UNK     1      29.692  -4.660  37.949  1.00  0.00     0.158 C 
HETATM   12  C18 UNK     1      31.212 -10.274  37.754  1.00  0.00     0.069 C 
HETATM   13  H19 UNK     1      29.264  -9.069  38.842  1.00  0.00     0.165 HD
ENDROOT
BRANCH   3  14
HETATM   14  C16 UNK     1      30.883  -6.099  35.395  1.00  0.00     0.029 A 
HETATM   15  C19 UNK     1      29.633  -6.649  34.813  1.00  0.00     0.194 A 
HETATM   16  O5  UNK     1      28.879  -7.369  35.454  1.00  0.00    -0.287 OA
HETATM   17  C21 UNK     1      29.346  -6.280  33.415  1.00  0.00     0.050 A 
HETATM   18  C22 UNK     1      30.242  -5.455  32.733  1.00  0.00     0.089 A 
HETATM   19  C23 UNK     1      28.194  -6.748  32.776  1.00  0.00     0.042 A 
HETATM   20  O4  UNK     1      31.387  -4.968  33.310  1.00  0.00    -0.321 OA
HETATM   21  C24 UNK     1      29.990  -5.094  31.409  1.00  0.00     0.040 A 
HETATM   22  C20 UNK     1      31.641  -5.320  34.613  1.00  0.00     0.154 A 
HETATM   23  C26 UNK     1      28.841  -5.560  30.770  1.00  0.00     0.026 A 
HETATM   24  C25 UNK     1      27.945  -6.384  31.452  1.00  0.00     0.035 A 
HETATM   25 Cl1  UNK     1      26.529  -6.955  30.657  1.00  0.00    -0.084 Cl
ENDBRANCH   3  14
BRANCH   6  26
HETATM   26  C17 UNK     1      32.905  -8.281  36.261  1.00  0.00     0.292 C 
HETATM   27  O3  UNK     1      33.964  -7.723  36.478  1.00  0.00    -0.259 OA
BRANCH  26  28
HETATM   28  O1  UNK     1      32.655  -9.307  35.414  1.00  0.00    -0.312 OA
BRANCH  28  29
HETATM   29  C1  UNK     1      31.920  -8.959  34.244  1.00  0.00     0.132 C 
HETATM   30  C2  UNK     1      30.994 -10.111  33.859  1.00  0.00     0.032 C 
HETATM   31  C5  UNK     1      30.256  -9.825  32.555  1.00  0.00     0.002 C 
HETATM   32  C7  UNK     1      31.224  -9.476  31.426  1.00  0.00     0.000 C 
HETATM   33  C6  UNK     1      32.151  -8.325  31.811  1.00  0.00     0.002 C 
HETATM   34  C3  UNK     1      32.889  -8.613  33.115  1.00  0.00     0.032 C 
ENDBRANCH  28  29
ENDBRANCH  26  28
ENDBRANCH   6  26
TORSDOF 4
ENDMDL
MODEL 5
REMARK VINA RESULT:      -8.5      2.109      5.350
REMARK  4 active torsions:
REMARK  status: ('A' for Active; 'I' for Inactive)
REMARK    1  A    between atoms: C1_8  and  O1_2 
REMARK    2  A    between atoms: C17_24  and  O1_2 
REMARK    3  A    between atoms: C16_23  and  C4_11 
REMARK    4  A    between atoms: C10_17  and  C17_24 
ROOT
HETATM    1  O2  UNK     1      28.388  -9.544  32.381  1.00  0.00    -0.293 OA
HETATM    2  N1  UNK     1      32.219  -7.074  31.095  1.00  0.00    -0.362 N 
HETATM    3  C4  UNK     1      31.025  -8.646  33.132  1.00  0.00     0.104 C 
HETATM    4  C8  UNK     1      30.307  -8.253  31.845  1.00  0.00     0.024 C 
HETATM    5  C9  UNK     1      30.911  -7.482  30.917  1.00  0.00     0.020 C 
HETATM    6  C10 UNK     1      32.503  -8.253  33.128  1.00  0.00     0.052 C 
HETATM    7  C11 UNK     1      30.233  -7.022  29.654  1.00  0.00     0.058 C 
HETATM    8  C12 UNK     1      28.714  -7.077  29.763  1.00  0.00     0.014 C 
HETATM    9  C13 UNK     1      28.257  -8.431  30.274  1.00  0.00     0.084 C 
HETATM   10  C14 UNK     1      33.024  -7.479  32.147  1.00  0.00     0.018 C 
HETATM   11  C15 UNK     1      28.932  -8.783  31.582  1.00  0.00     0.158 C 
HETATM   12  C18 UNK     1      34.448  -6.996  32.078  1.00  0.00     0.069 C 
HETATM   13  H19 UNK     1      32.638  -6.499  30.373  1.00  0.00     0.165 HD
ENDROOT
BRANCH   3  14
HETATM   14  C16 UNK     1      30.329  -8.043  34.323  1.00  0.00     0.029 A 
HETATM   15  C19 UNK     1      29.938  -8.934  35.443  1.00  0.00     0.194 A 
HETATM   16  O5  UNK     1      30.163 -10.137  35.427  1.00  0.00    -0.287 OA
HETATM   17  C21 UNK     1      29.260  -8.291  36.584  1.00  0.00     0.050 A 
HETATM   18  C22 UNK     1      29.029  -6.915  36.548  1.00  0.00     0.089 A 
HETATM   19  C23 UNK     1      28.852  -9.044  37.688  1.00  0.00     0.042 A 
HETATM   20  O4  UNK     1      29.408  -6.128  35.491  1.00  0.00    -0.321 OA
HETATM   21  C24 UNK     1      28.389  -6.286  37.617  1.00  0.00     0.040 A 
HETATM   22  C20 UNK     1      30.038  -6.740  34.436  1.00  0.00     0.154 A 
HETATM   23  C26 UNK     1      27.981  -7.037  38.719  1.00  0.00     0.026 A 
HETATM   24  C25 UNK     1      28.213  -8.412  38.755  1.00  0.00     0.035 A 
HETATM   25 Cl1  UNK     1      27.707  -9.332  40.119  1.00  0.00    -0.084 Cl
ENDBRANCH   3  14
BRANCH   6  26
HETATM   26  C17 UNK     1      33.331  -8.800  34.214  1.00  0.00     0.292 C 
HETATM   27  O3  UNK     1      33.475  -9.992  34.409  1.00  0.00    -0.259 OA
BRANCH  26  28
HETATM   28  O1  UNK     1      33.865  -7.766  34.906  1.00  0.00    -0.312 OA
BRANCH  28  29
HETATM   29  C1  UNK     1      32.983  -7.142  35.834  1.00  0.00     0.132 C 
HETATM   30  C2  UNK     1      33.283  -5.645  35.898  1.00  0.00     0.032 C 
HETATM   31  C5  UNK     1      32.429  -4.947  36.952  1.00  0.00     0.002 C 
HETATM   32  C7  UNK     1      32.571  -5.610  38.321  1.00  0.00     0.000 C 
HETATM   33  C6  UNK     1      32.274  -7.106  38.258  1.00  0.00     0.002 C 
HETATM   34  C3  UNK     1      33.129  -7.804  37.204  1.00  0.00     0.032 C 
ENDBRANCH  28  29
ENDBRANCH  26  28
ENDBRANCH   6  26
TORSDOF 4
ENDMDL
MODEL 6
REMARK VINA RESULT:      -8.4      3.245      6.939
REMARK  4 active torsions:
REMARK  status: ('A' for Active; 'I' for Inactive)
REMARK    1  A    between atoms: C1_8  and  O1_2 
REMARK    2  A    between atoms: C17_24  and  O1_2 
REMARK    3  A    between atoms: C16_23  and  C4_11 
REMARK    4  A    between atoms: C10_17  and  C17_24 
ROOT
HETATM    1  O2  UNK     1      34.146 -10.648  33.197  1.00  0.00    -0.293 OA
HETATM    2  N1  UNK     1      35.543  -6.304  34.468  1.00  0.00    -0.362 N 
HETATM    3  C4  UNK     1      33.335  -7.936  33.754  1.00  0.00     0.104 C 
HETATM    4  C8  UNK     1      34.779  -8.426  33.743  1.00  0.00     0.024 C 
HETATM    5  C9  UNK     1      35.798  -7.602  34.068  1.00  0.00     0.020 C 
HETATM    6  C10 UNK     1      33.190  -6.537  34.354  1.00  0.00     0.052 C 
HETATM    7  C11 UNK     1      37.244  -8.018  34.025  1.00  0.00     0.058 C 
HETATM    8  C12 UNK     1      37.468  -9.232  33.132  1.00  0.00     0.014 C 
HETATM    9  C13 UNK     1      36.496 -10.345  33.478  1.00  0.00     0.084 C 
HETATM   10  C14 UNK     1      34.273  -5.783  34.656  1.00  0.00     0.018 C 
HETATM   11  C15 UNK     1      35.064  -9.862  33.427  1.00  0.00     0.158 C 
HETATM   12  C18 UNK     1      34.239  -4.380  35.200  1.00  0.00     0.069 C 
HETATM   13  H19 UNK     1      36.336  -5.718  34.707  1.00  0.00     0.165 HD
ENDROOT
BRANCH   3  14
HETATM   14  C16 UNK     1      32.763  -7.968  32.363  1.00  0.00     0.029 A 
HETATM   15  C19 UNK     1      31.459  -8.644  32.146  1.00  0.00     0.194 A 
HETATM   16  O5  UNK     1      30.841  -9.172  33.061  1.00  0.00    -0.287 OA
HETATM   17  C21 UNK     1      30.945  -8.645  30.764  1.00  0.00     0.050 A 
HETATM   18  C22 UNK     1      31.693  -8.027  29.762  1.00  0.00     0.089 A 
HETATM   19  C23 UNK     1      29.726  -9.255  30.458  1.00  0.00     0.042 A 
HETATM   20  O4  UNK     1      32.895  -7.413  30.006  1.00  0.00    -0.321 OA
HETATM   21  C24 UNK     1      31.226  -8.017  28.447  1.00  0.00     0.040 A 
HETATM   22  C20 UNK     1      33.361  -7.420  31.298  1.00  0.00     0.154 A 
HETATM   23  C26 UNK     1      30.009  -8.626  28.139  1.00  0.00     0.026 A 
HETATM   24  C25 UNK     1      29.262  -9.243  29.142  1.00  0.00     0.035 A 
HETATM   25 Cl1  UNK     1      27.761  -9.993  28.755  1.00  0.00    -0.084 Cl
ENDBRANCH   3  14
BRANCH   6  26
HETATM   26  C17 UNK     1      31.819  -6.078  34.629  1.00  0.00     0.292 C 
HETATM   27  O3  UNK     1      31.194  -5.353  33.879  1.00  0.00    -0.259 OA
BRANCH  26  28
HETATM   28  O1  UNK     1      31.426  -6.598  35.816  1.00  0.00    -0.312 OA
BRANCH  28  29
HETATM   29  C1  UNK     1      30.450  -5.832  36.516  1.00  0.00     0.132 C 
HETATM   30  C2  UNK     1      31.122  -4.636  37.186  1.00  0.00     0.032 C 
HETATM   31  C5  UNK     1      30.134  -3.837  38.031  1.00  0.00     0.002 C 
HETATM   32  C7  UNK     1      29.418  -4.725  39.047  1.00  0.00     0.000 C 
HETATM   33  C6  UNK     1      28.747  -5.923  38.379  1.00  0.00     0.002 C 
HETATM   34  C3  UNK     1      29.736  -6.721  37.535  1.00  0.00     0.032 C 
ENDBRANCH  28  29
ENDBRANCH  26  28
ENDBRANCH   6  26
TORSDOF 4
ENDMDL
MODEL 7
REMARK VINA RESULT:      -8.4      2.712      6.483
REMARK  4 active torsions:
REMARK  status: ('A' for Active; 'I' for Inactive)
REMARK    1  A    between atoms: C1_8  and  O1_2 
REMARK    2  A    between atoms: C17_24  and  O1_2 
REMARK    3  A    between atoms: C16_23  and  C4_11 
REMARK    4  A    between atoms: C10_17  and  C17_24 
ROOT
HETATM    1  O2  UNK     1      33.432  -8.766  34.518  1.00  0.00    -0.293 OA
HETATM    2  N1  UNK     1      31.604  -5.229  37.085  1.00  0.00    -0.362 N 
HETATM    3  C4  UNK     1      31.028  -7.422  35.379  1.00  0.00     0.104 C 
HETATM    4  C8  UNK     1      32.445  -6.965  35.710  1.00  0.00     0.024 C 
HETATM    5  C9  UNK     1      32.666  -5.899  36.509  1.00  0.00     0.020 C 
HETATM    6  C10 UNK     1      29.965  -6.688  36.196  1.00  0.00     0.052 C 
HETATM    7  C11 UNK     1      34.041  -5.374  36.827  1.00  0.00     0.058 C 
HETATM    8  C12 UNK     1      35.078  -5.819  35.803  1.00  0.00     0.014 C 
HETATM    9  C13 UNK     1      35.006  -7.318  35.576  1.00  0.00     0.084 C 
HETATM   10  C14 UNK     1      30.281  -5.630  36.979  1.00  0.00     0.018 C 
HETATM   11  C15 UNK     1      33.609  -7.750  35.189  1.00  0.00     0.158 C 
HETATM   12  C18 UNK     1      29.306  -4.811  37.780  1.00  0.00     0.069 C 
HETATM   13  H19 UNK     1      31.812  -4.436  37.681  1.00  0.00     0.165 HD
ENDROOT
BRANCH   3  14
HETATM   14  C16 UNK     1      30.758  -7.259  33.907  1.00  0.00     0.029 A 
HETATM   15  C19 UNK     1      30.274  -8.433  33.140  1.00  0.00     0.194 A 
HETATM   16  O5  UNK     1      30.089  -9.522  33.666  1.00  0.00    -0.287 OA
HETATM   17  C21 UNK     1      30.025  -8.217  31.702  1.00  0.00     0.050 A 
HETATM   18  C22 UNK     1      30.252  -6.953  31.157  1.00  0.00     0.089 A 
HETATM   19  C23 UNK     1      29.567  -9.260  30.894  1.00  0.00     0.042 A 
HETATM   20  O4  UNK     1      30.701  -5.893  31.904  1.00  0.00    -0.321 OA
HETATM   21  C24 UNK     1      30.024  -6.727  29.799  1.00  0.00     0.040 A 
HETATM   22  C20 UNK     1      30.928  -6.109  33.241  1.00  0.00     0.154 A 
HETATM   23  C26 UNK     1      29.567  -7.767  28.990  1.00  0.00     0.026 A 
HETATM   24  C25 UNK     1      29.339  -9.031  29.536  1.00  0.00     0.035 A 
HETATM   25 Cl1  UNK     1      28.776 -10.310  28.532  1.00  0.00    -0.084 Cl
ENDBRANCH   3  14
BRANCH   6  26
HETATM   26  C17 UNK     1      28.596  -7.224  36.126  1.00  0.00     0.292 C 
HETATM   27  O3  UNK     1      27.655  -6.597  35.676  1.00  0.00    -0.259 OA
BRANCH  26  28
HETATM   28  O1  UNK     1      28.602  -8.479  36.634  1.00  0.00    -0.312 OA
BRANCH  28  29
HETATM   29  C1  UNK     1      28.135  -8.589  37.975  1.00  0.00     0.132 C 
HETATM   30  C2  UNK     1      28.886  -9.712  38.688  1.00  0.00     0.032 C 
HETATM   31  C5  UNK     1      28.353  -9.935  40.100  1.00  0.00     0.002 C 
HETATM   32  C7  UNK     1      26.845 -10.176  40.100  1.00  0.00     0.000 C 
HETATM   33  C6  UNK     1      26.093  -9.055  39.386  1.00  0.00     0.002 C 
HETATM   34  C3  UNK     1      26.626  -8.833  37.974  1.00  0.00     0.032 C 
ENDBRANCH  28  29
ENDBRANCH  26  28
ENDBRANCH   6  26
TORSDOF 4
ENDMDL
MODEL 8
REMARK VINA RESULT:      -8.3      2.791      6.003
REMARK  4 active torsions:
REMARK  status: ('A' for Active; 'I' for Inactive)
REMARK    1  A    between atoms: C1_8  and  O1_2 
REMARK    2  A    between atoms: C17_24  and  O1_2 
REMARK    3  A    between atoms: C16_23  and  C4_11 
REMARK    4  A    between atoms: C10_17  and  C17_24 
ROOT
HETATM    1  O2  UNK     1      34.658  -9.509  31.985  1.00  0.00    -0.293 OA
HETATM    2  N1  UNK     1      34.388  -7.471  36.253  1.00  0.00    -0.362 N 
HETATM    3  C4  UNK     1      33.026  -9.037  34.318  1.00  0.00     0.104 C 
HETATM    4  C8  UNK     1      34.413  -8.444  34.093  1.00  0.00     0.024 C 
HETATM    5  C9  UNK     1      35.009  -7.684  35.037  1.00  0.00     0.020 C 
HETATM    6  C10 UNK     1      32.527  -8.846  35.751  1.00  0.00     0.052 C 
HETATM    7  C11 UNK     1      36.353  -7.033  34.849  1.00  0.00     0.058 C 
HETATM    8  C12 UNK     1      36.724  -6.893  33.377  1.00  0.00     0.014 C 
HETATM    9  C13 UNK     1      36.549  -8.213  32.648  1.00  0.00     0.084 C 
HETATM   10  C14 UNK     1      33.197  -8.068  36.634  1.00  0.00     0.018 C 
HETATM   11  C15 UNK     1      35.151  -8.762  32.829  1.00  0.00     0.158 C 
HETATM   12  C18 UNK     1      32.765  -7.776  38.045  1.00  0.00     0.069 C 
HETATM   13  H19 UNK     1      34.869  -6.898  36.936  1.00  0.00     0.165 HD
ENDROOT
BRANCH   3  14
HETATM   14  C16 UNK     1      32.044  -8.450  33.341  1.00  0.00     0.029 A 
HETATM   15  C19 UNK     1      31.313  -9.367  32.431  1.00  0.00     0.194 A 
HETATM   16  O5  UNK     1      31.486 -10.578  32.452  1.00  0.00    -0.287 OA
HETATM   17  C21 UNK     1      30.362  -8.739  31.495  1.00  0.00     0.050 A 
HETATM   18  C22 UNK     1      30.206  -7.353  31.516  1.00  0.00     0.089 A 
HETATM   19  C23 UNK     1      29.626  -9.517  30.598  1.00  0.00     0.042 A 
HETATM   20  O4  UNK     1      30.902  -6.541  32.375  1.00  0.00    -0.321 OA
HETATM   21  C24 UNK     1      29.312  -6.737  30.639  1.00  0.00     0.040 A 
HETATM   22  C20 UNK     1      31.784  -7.140  33.241  1.00  0.00     0.154 A 
HETATM   23  C26 UNK     1      28.576  -7.512  29.743  1.00  0.00     0.026 A 
HETATM   24  C25 UNK     1      28.733  -8.898  29.723  1.00  0.00     0.035 A 
HETATM   25 Cl1  UNK     1      27.821  -9.849  28.614  1.00  0.00    -0.084 Cl
ENDBRANCH   3  14
BRANCH   6  26
HETATM   26  C17 UNK     1      31.315  -9.589  36.129  1.00  0.00     0.292 C 
HETATM   27  O3  UNK     1      31.306 -10.785  36.352  1.00  0.00    -0.259 OA
BRANCH  26  28
HETATM   28  O1  UNK     1      30.277  -8.720  36.172  1.00  0.00    -0.312 OA
BRANCH  28  29
HETATM   29  C1  UNK     1      29.194  -9.114  37.009  1.00  0.00     0.132 C 
HETATM   30  C2  UNK     1      27.936  -9.302  36.165  1.00  0.00     0.032 C 
HETATM   31  C5  UNK     1      26.723  -9.630  37.030  1.00  0.00     0.002 C 
HETATM   32  C7  UNK     1      26.516  -8.587  38.127  1.00  0.00     0.000 C 
HETATM   33  C6  UNK     1      27.774  -8.398  38.971  1.00  0.00     0.002 C 
HETATM   34  C3  UNK     1      28.987  -8.069  38.105  1.00  0.00     0.032 C 
ENDBRANCH  28  29
ENDBRANCH  26  28
ENDBRANCH   6  26
TORSDOF 4
ENDMDL
MODEL 9
REMARK VINA RESULT:      -8.2      3.867      6.159
REMARK  4 active torsions:
REMARK  status: ('A' for Active; 'I' for Inactive)
REMARK    1  A    between atoms: C1_8  and  O1_2 
REMARK    2  A    between atoms: C17_24  and  O1_2 
REMARK    3  A    between atoms: C16_23  and  C4_11 
REMARK    4  A    between atoms: C10_17  and  C17_24 
ROOT
HETATM    1  O2  UNK     1      32.733  -8.298  37.361  1.00  0.00    -0.293 OA
HETATM    2  N1  UNK     1      29.342  -5.817  35.174  1.00  0.00    -0.362 N 
HETATM    3  C4  UNK     1      30.997  -8.119  35.064  1.00  0.00     0.104 C 
HETATM    4  C8  UNK     1      31.097  -7.065  36.161  1.00  0.00     0.024 C 
HETATM    5  C9  UNK     1      30.302  -5.974  36.155  1.00  0.00     0.020 C 
HETATM    6  C10 UNK     1      29.803  -7.893  34.135  1.00  0.00     0.052 C 
HETATM    7  C11 UNK     1      30.393  -4.879  37.184  1.00  0.00     0.058 C 
HETATM    8  C12 UNK     1      31.740  -4.867  37.896  1.00  0.00     0.014 C 
HETATM    9  C13 UNK     1      32.094  -6.251  38.408  1.00  0.00     0.084 C 
HETATM   10  C14 UNK     1      29.056  -6.767  34.207  1.00  0.00     0.018 C 
HETATM   11  C15 UNK     1      32.049  -7.277  37.297  1.00  0.00     0.158 C 
HETATM   12  C18 UNK     1      27.897  -6.427  33.309  1.00  0.00     0.069 C 
HETATM   13  H19 UNK     1      28.764  -4.985  35.206  1.00  0.00     0.165 HD
ENDROOT
BRANCH   3  14
HETATM   14  C16 UNK     1      32.274  -8.166  34.269  1.00  0.00     0.029 A 
HETATM   15  C19 UNK     1      32.968  -9.469  34.118  1.00  0.00     0.194 A 
HETATM   16  O5  UNK     1      32.536 -10.499  34.618  1.00  0.00    -0.287 OA
HETATM   17  C21 UNK     1      34.214  -9.459  33.329  1.00  0.00     0.050 A 
HETATM   18  C22 UNK     1      34.659  -8.255  32.781  1.00  0.00     0.089 A 
HETATM   19  C23 UNK     1      34.942 -10.634  33.129  1.00  0.00     0.042 A 
HETATM   20  O4  UNK     1      33.986  -7.071  32.945  1.00  0.00    -0.321 OA
HETATM   21  C24 UNK     1      35.836  -8.222  32.031  1.00  0.00     0.040 A 
HETATM   22  C20 UNK     1      32.827  -7.097  33.683  1.00  0.00     0.154 A 
HETATM   23  C26 UNK     1      36.564  -9.394  31.831  1.00  0.00     0.026 A 
HETATM   24  C25 UNK     1      36.117 -10.598  32.378  1.00  0.00     0.035 A 
HETATM   25 Cl1  UNK     1      37.021 -12.042  32.127  1.00  0.00    -0.084 Cl
ENDBRANCH   3  14
BRANCH   6  26
HETATM   26  C17 UNK     1      29.483  -8.984  33.200  1.00  0.00     0.292 C 
HETATM   27  O3  UNK     1      28.909 -10.003  33.534  1.00  0.00    -0.259 OA
BRANCH  26  28
HETATM   28  O1  UNK     1      29.932  -8.637  31.970  1.00  0.00    -0.312 OA
BRANCH  28  29
HETATM   29  C1  UNK     1      29.484  -9.472  30.907  1.00  0.00     0.132 C 
HETATM   30  C2  UNK     1      30.669  -9.859  30.025  1.00  0.00     0.032 C 
HETATM   31  C5  UNK     1      30.225 -10.674  28.814  1.00  0.00     0.002 C 
HETATM   32  C7  UNK     1      29.140  -9.952  28.017  1.00  0.00     0.000 C 
HETATM   33  C6  UNK     1      27.955  -9.563  28.899  1.00  0.00     0.002 C 
HETATM   34  C3  UNK     1      28.400  -8.748  30.109  1.00  0.00     0.032 C 
ENDBRANCH  28  29
ENDBRANCH  26  28
ENDBRANCH   6  26
TORSDOF 4
ENDMDL
MODEL 10
REMARK VINA RESULT:      -8.2      3.205      5.574
REMARK  4 active torsions:
REMARK  status: ('A' for Active; 'I' for Inactive)
REMARK    1  A    between atoms: C1_8  and  O1_2 
REMARK    2  A    between atoms: C17_24  and  O1_2 
REMARK    3  A    between atoms: C16_23  and  C4_11 
REMARK    4  A    between atoms: C10_17  and  C17_24 
ROOT
HETATM    1  O2  UNK     1      32.610 -11.499  33.629  1.00  0.00    -0.293 OA
HETATM    2  N1  UNK     1      30.085 -11.960  29.648  1.00  0.00    -0.362 N 
HETATM    3  C4  UNK     1      31.238 -10.135  31.489  1.00  0.00     0.104 C 
HETATM    4  C8  UNK     1      31.266 -11.648  31.677  1.00  0.00     0.024 C 
HETATM    5  C9  UNK     1      30.681 -12.474  30.784  1.00  0.00     0.020 C 
HETATM    6  C10 UNK     1      30.680  -9.720  30.126  1.00  0.00     0.052 C 
HETATM    7  C11 UNK     1      30.635 -13.970  30.947  1.00  0.00     0.058 C 
HETATM    8  C12 UNK     1      30.846 -14.398  32.394  1.00  0.00     0.014 C 
HETATM    9  C13 UNK     1      32.078 -13.733  32.981  1.00  0.00     0.084 C 
HETATM   10  C14 UNK     1      30.115 -10.622  29.290  1.00  0.00     0.018 C 
HETATM   11  C15 UNK     1      32.010 -12.228  32.841  1.00  0.00     0.158 C 
HETATM   12  C18 UNK     1      29.494 -10.309  27.956  1.00  0.00     0.069 C 
HETATM   13  H19 UNK     1      29.659 -12.614  29.001  1.00  0.00     0.165 HD
ENDROOT
BRANCH   3  14
HETATM   14  C16 UNK     1      30.449  -9.486  32.594  1.00  0.00     0.029 A 
HETATM   15  C19 UNK     1      31.081  -8.387  33.366  1.00  0.00     0.194 A 
HETATM   16  O5  UNK     1      32.216  -7.997  33.132  1.00  0.00    -0.287 OA
HETATM   17  C21 UNK     1      30.263  -7.787  34.437  1.00  0.00     0.050 A 
HETATM   18  C22 UNK     1      28.974  -8.273  34.659  1.00  0.00     0.089 A 
HETATM   19  C23 UNK     1      30.767  -6.746  35.221  1.00  0.00     0.042 A 
HETATM   20  O4  UNK     1      28.428  -9.292  33.920  1.00  0.00    -0.321 OA
HETATM   21  C24 UNK     1      28.183  -7.720  35.667  1.00  0.00     0.040 A 
HETATM   22  C20 UNK     1      29.201  -9.841  32.927  1.00  0.00     0.154 A 
HETATM   23  C26 UNK     1      28.685  -6.681  36.450  1.00  0.00     0.026 A 
HETATM   24  C25 UNK     1      29.974  -6.195  36.228  1.00  0.00     0.035 A 
HETATM   25 Cl1  UNK     1      30.587  -4.913  37.198  1.00  0.00    -0.084 Cl
ENDBRANCH   3  14
BRANCH   6  26
HETATM   26  C17 UNK     1      30.836  -8.304  29.756  1.00  0.00     0.292 C 
HETATM   27  O3  UNK     1      31.857  -7.672  29.949  1.00  0.00    -0.259 OA
BRANCH  26  28
HETATM   28  O1  UNK     1      29.679  -7.880  29.194  1.00  0.00    -0.312 OA
BRANCH  28  29
HETATM   29  C1  UNK     1      28.979  -6.884  29.932  1.00  0.00     0.132 C 
HETATM   30  C2  UNK     1      29.950  -6.159  30.863  1.00  0.00     0.032 C 
HETATM   31  C5  UNK     1      29.229  -5.147  31.748  1.00  0.00     0.002 C 
HETATM   32  C7  UNK     1      28.082  -5.794  32.522  1.00  0.00     0.000 C 
HETATM   33  C6  UNK     1      27.112  -6.520  31.593  1.00  0.00     0.002 C 
HETATM   34  C3  UNK     1      27.834  -7.533  30.709  1.00  0.00     0.032 C 
ENDBRANCH  28  29
ENDBRANCH  26  28
ENDBRANCH   6  26
TORSDOF 4
ENDMDL
