MODEL 1
REMARK VINA RESULT:      -8.1      0.000      0.000
REMARK  7 active torsions:
REMARK  status: ('A' for Active; 'I' for Inactive)
REMARK    1  A    between atoms: C12_19  and  O3_3 
REMARK    2  A    between atoms: C19_26  and  O3_3 
REMARK    3  A    between atoms: C22_29  and  O6_6 
REMARK    4  A    between atoms: C24_31  and  O6_6 
REMARK    5  A    between atoms: C1_8  and  C10_17 
REMARK    6  A    between atoms: C12_19  and  C6_13 
REMARK    7  A    between atoms: C19_26  and  C22_29 
ROOT
HETATM    1  O1  UNK     1      28.871  -5.387  32.200  1.00  0.00    -0.293 OA
HETATM    2  N1  UNK     1      29.117 -10.048  31.397  1.00  0.00    -0.362 N 
HETATM    3  C1  UNK     1      29.992  -7.907  33.041  1.00  0.00     0.104 C 
HETATM    4  C2  UNK     1      28.974  -7.741  31.917  1.00  0.00     0.024 C 
HETATM    5  C3  UNK     1      28.571  -8.797  31.179  1.00  0.00     0.020 C 
HETATM    6  C4  UNK     1      27.534  -8.699  30.092  1.00  0.00     0.058 C 
HETATM    7  C5  UNK     1      26.650  -7.468  30.252  1.00  0.00     0.014 C 
HETATM    8  C6  UNK     1      30.610  -9.309  33.078  1.00  0.00     0.052 C 
HETATM    9  C7  UNK     1      27.493  -6.220  30.438  1.00  0.00     0.084 C 
HETATM   10  C8  UNK     1      28.463  -6.374  31.589  1.00  0.00     0.158 C 
HETATM   11  C9  UNK     1      30.149 -10.305  32.286  1.00  0.00     0.018 C 
HETATM   12  C13 UNK     1      30.672 -11.716  32.238  1.00  0.00     0.069 C 
HETATM   13  H8  UNK     1      28.796 -10.812  30.813  1.00  0.00     0.165 HD
ENDROOT
BRANCH   3  14
HETATM   14  C10 UNK     1      29.359  -7.582  34.366  1.00  0.00     0.029 A 
HETATM   15  C11 UNK     1      29.939  -6.485  35.181  1.00  0.00     0.194 A 
HETATM   16  O4  UNK     1      30.912  -5.842  34.807  1.00  0.00    -0.287 OA
HETATM   17  C15 UNK     1      29.281  -6.210  36.472  1.00  0.00     0.049 A 
HETATM   18  C16 UNK     1      28.177  -6.976  36.847  1.00  0.00     0.089 A 
HETATM   19  C17 UNK     1      29.753  -5.197  37.311  1.00  0.00     0.025 A 
HETATM   20  O2  UNK     1      27.671  -7.981  36.062  1.00  0.00    -0.321 OA
HETATM   21  C18 UNK     1      27.539  -6.732  38.063  1.00  0.00     0.039 A 
HETATM   22  C14 UNK     1      28.296  -8.227  34.864  1.00  0.00     0.154 A 
HETATM   23  C21 UNK     1      28.007  -5.722  38.902  1.00  0.00     0.009 A 
HETATM   24  C20 UNK     1      29.112  -4.956  38.527  1.00  0.00    -0.061 A 
HETATM   25  C23 UNK     1      29.608  -3.875  39.428  1.00  0.00     0.048 C 
ENDBRANCH   3  14
BRANCH   8  26
HETATM   26  C12 UNK     1      31.731  -9.496  34.015  1.00  0.00     0.292 C 
HETATM   27  O5  UNK     1      31.677 -10.228  34.985  1.00  0.00    -0.259 OA
BRANCH  26  28
HETATM   28  O3  UNK     1      32.770  -8.733  33.596  1.00  0.00    -0.316 OA
BRANCH  28  29
HETATM   29  C19 UNK     1      33.945  -8.809  34.410  1.00  0.00     0.205 C 
BRANCH  29  30
HETATM   30  C22 UNK     1      34.039  -7.558  35.261  1.00  0.00     0.195 C 
BRANCH  30  31
HETATM   31  O6  UNK     1      33.875  -7.914  36.629  1.00  0.00    -0.385 OA
BRANCH  31  32
HETATM   32  C24 UNK     1      32.845  -7.153  37.245  1.00  0.00     0.113 C 
HETATM   33  C25 UNK     1      32.199  -7.982  38.345  1.00  0.00     0.039 C 
HETATM   34  C26 UNK     1      33.434  -5.857  37.784  1.00  0.00     0.039 C 
ENDBRANCH  31  32
ENDBRANCH  30  31
ENDBRANCH  29  30
ENDBRANCH  28  29
ENDBRANCH  26  28
ENDBRANCH   8  26
TORSDOF 7
ENDMDL
MODEL 2
REMARK VINA RESULT:      -7.9      2.097      5.975
REMARK  7 active torsions:
REMARK  status: ('A' for Active; 'I' for Inactive)
REMARK    1  A    between atoms: C12_19  and  O3_3 
REMARK    2  A    between atoms: C19_26  and  O3_3 
REMARK    3  A    between atoms: C22_29  and  O6_6 
REMARK    4  A    between atoms: C24_31  and  O6_6 
REMARK    5  A    between atoms: C1_8  and  C10_17 
REMARK    6  A    between atoms: C12_19  and  C6_13 
REMARK    7  A    between atoms: C19_26  and  C22_29 
ROOT
HETATM    1  O1  UNK     1      28.546  -9.606  36.087  1.00  0.00    -0.293 OA
HETATM    2  N1  UNK     1      29.705  -5.301  37.686  1.00  0.00    -0.362 N 
HETATM    3  C1  UNK     1      29.988  -7.163  35.564  1.00  0.00     0.104 C 
HETATM    4  C2  UNK     1      29.096  -7.403  36.779  1.00  0.00     0.024 C 
HETATM    5  C3  UNK     1      28.976  -6.473  37.750  1.00  0.00     0.020 C 
HETATM    6  C4  UNK     1      28.073  -6.637  38.944  1.00  0.00     0.058 C 
HETATM    7  C5  UNK     1      26.974  -7.662  38.695  1.00  0.00     0.014 C 
HETATM    8  C6  UNK     1      30.835  -5.893  35.692  1.00  0.00     0.052 C 
HETATM    9  C7  UNK     1      27.554  -8.957  38.158  1.00  0.00     0.084 C 
HETATM   10  C8  UNK     1      28.394  -8.716  36.923  1.00  0.00     0.158 C 
HETATM   11  C9  UNK     1      30.654  -5.023  36.714  1.00  0.00     0.018 C 
HETATM   12  C13 UNK     1      31.420  -3.747  36.942  1.00  0.00     0.069 C 
HETATM   13  H8  UNK     1      29.594  -4.635  38.442  1.00  0.00     0.165 HD
ENDROOT
BRANCH   3  14
HETATM   14  C10 UNK     1      29.155  -7.109  34.312  1.00  0.00     0.029 A 
HETATM   15  C11 UNK     1      29.410  -8.110  33.246  1.00  0.00     0.194 A 
HETATM   16  O4  UNK     1      30.273  -8.972  33.356  1.00  0.00    -0.287 OA
HETATM   17  C15 UNK     1      28.567  -8.010  32.040  1.00  0.00     0.049 A 
HETATM   18  C16 UNK     1      27.601  -7.006  31.969  1.00  0.00     0.089 A 
HETATM   19  C17 UNK     1      28.730  -8.906  30.980  1.00  0.00     0.025 A 
HETATM   20  O2  UNK     1      27.397  -6.101  32.980  1.00  0.00    -0.321 OA
HETATM   21  C18 UNK     1      26.792  -6.895  30.838  1.00  0.00     0.039 A 
HETATM   22  C14 UNK     1      28.190  -6.206  34.096  1.00  0.00     0.154 A 
HETATM   23  C21 UNK     1      26.952  -7.788  29.779  1.00  0.00     0.009 A 
HETATM   24  C20 UNK     1      27.919  -8.791  29.850  1.00  0.00    -0.061 A 
HETATM   25  C23 UNK     1      28.086  -9.745  28.714  1.00  0.00     0.048 C 
ENDBRANCH   3  14
BRANCH   8  26
HETATM   26  C12 UNK     1      31.853  -5.687  34.649  1.00  0.00     0.292 C 
HETATM   27  O5  UNK     1      31.999  -4.634  34.056  1.00  0.00    -0.259 OA
BRANCH  26  28
HETATM   28  O3  UNK     1      32.549  -6.839  34.497  1.00  0.00    -0.316 OA
BRANCH  28  29
HETATM   29  C19 UNK     1      33.956  -6.674  34.288  1.00  0.00     0.205 C 
BRANCH  29  30
HETATM   30  C22 UNK     1      34.695  -7.087  35.546  1.00  0.00     0.195 C 
BRANCH  30  31
HETATM   31  O6  UNK     1      33.844  -7.912  36.333  1.00  0.00    -0.385 OA
BRANCH  31  32
HETATM   32  C24 UNK     1      33.832  -7.500  37.693  1.00  0.00     0.113 C 
HETATM   33  C25 UNK     1      34.167  -6.017  37.769  1.00  0.00     0.039 C 
HETATM   34  C26 UNK     1      32.469  -7.804  38.296  1.00  0.00     0.039 C 
ENDBRANCH  31  32
ENDBRANCH  30  31
ENDBRANCH  29  30
ENDBRANCH  28  29
ENDBRANCH  26  28
ENDBRANCH   8  26
TORSDOF 7
ENDMDL
MODEL 3
REMARK VINA RESULT:      -7.9      2.332      6.400
REMARK  7 active torsions:
REMARK  status: ('A' for Active; 'I' for Inactive)
REMARK    1  A    between atoms: C12_19  and  O3_3 
REMARK    2  A    between atoms: C19_26  and  O3_3 
REMARK    3  A    between atoms: C22_29  and  O6_6 
REMARK    4  A    between atoms: C24_31  and  O6_6 
REMARK    5  A    between atoms: C1_8  and  C10_17 
REMARK    6  A    between atoms: C12_19  and  C6_13 
REMARK    7  A    between atoms: C19_26  and  C22_29 
ROOT
HETATM    1  O1  UNK     1      27.330 -10.035  36.424  1.00  0.00    -0.293 OA
HETATM    2  N1  UNK     1      30.015  -6.739  38.510  1.00  0.00    -0.362 N 
HETATM    3  C1  UNK     1      29.712  -8.419  36.244  1.00  0.00     0.104 C 
HETATM    4  C2  UNK     1      28.679  -8.323  37.362  1.00  0.00     0.024 C 
HETATM    5  C3  UNK     1      28.859  -7.488  38.408  1.00  0.00     0.020 C 
HETATM    6  C4  UNK     1      27.850  -7.317  39.512  1.00  0.00     0.058 C 
HETATM    7  C5  UNK     1      26.454  -7.757  39.088  1.00  0.00     0.014 C 
HETATM    8  C6  UNK     1      30.996  -7.644  36.555  1.00  0.00     0.052 C 
HETATM    9  C7  UNK     1      26.489  -9.143  38.472  1.00  0.00     0.084 C 
HETATM   10  C8  UNK     1      27.478  -9.215  37.329  1.00  0.00     0.158 C 
HETATM   11  C9  UNK     1      31.090  -6.839  37.640  1.00  0.00     0.018 C 
HETATM   12  C13 UNK     1      32.293  -6.029  38.044  1.00  0.00     0.069 C 
HETATM   13  H8  UNK     1      30.116  -6.133  39.316  1.00  0.00     0.165 HD
ENDROOT
BRANCH   3  14
HETATM   14  C10 UNK     1      29.117  -7.943  34.947  1.00  0.00     0.029 A 
HETATM   15  C11 UNK     1      29.134  -8.860  33.779  1.00  0.00     0.194 A 
HETATM   16  O4  UNK     1      29.615  -9.985  33.842  1.00  0.00    -0.287 OA
HETATM   17  C15 UNK     1      28.540  -8.342  32.532  1.00  0.00     0.049 A 
HETATM   18  C16 UNK     1      28.008  -7.053  32.518  1.00  0.00     0.089 A 
HETATM   19  C17 UNK     1      28.509  -9.129  31.377  1.00  0.00     0.025 A 
HETATM   20  O2  UNK     1      28.012  -6.238  33.623  1.00  0.00    -0.321 OA
HETATM   21  C18 UNK     1      27.441  -6.544  31.350  1.00  0.00     0.039 A 
HETATM   22  C14 UNK     1      28.570  -6.733  34.776  1.00  0.00     0.154 A 
HETATM   23  C21 UNK     1      27.408  -7.327  30.197  1.00  0.00     0.009 A 
HETATM   24  C20 UNK     1      27.941  -8.617  30.211  1.00  0.00    -0.061 A 
HETATM   25  C23 UNK     1      27.901  -9.451  28.973  1.00  0.00     0.048 C 
ENDBRANCH   3  14
BRANCH   8  26
HETATM   26  C12 UNK     1      32.110  -7.834  35.611  1.00  0.00     0.292 C 
HETATM   27  O5  UNK     1      32.788  -8.845  35.573  1.00  0.00    -0.259 OA
BRANCH  26  28
HETATM   28  O3  UNK     1      32.216  -6.724  34.843  1.00  0.00    -0.316 OA
BRANCH  28  29
HETATM   29  C19 UNK     1      32.855  -6.920  33.577  1.00  0.00     0.205 C 
BRANCH  29  30
HETATM   30  C22 UNK     1      31.820  -6.798  32.476  1.00  0.00     0.195 C 
BRANCH  30  31
HETATM   31  O6  UNK     1      31.914  -7.933  31.624  1.00  0.00    -0.385 OA
BRANCH  31  32
HETATM   32  C24 UNK     1      31.958  -7.554  30.255  1.00  0.00     0.113 C 
HETATM   33  C25 UNK     1      31.637  -8.764  29.390  1.00  0.00     0.039 C 
HETATM   34  C26 UNK     1      30.978  -6.413  30.020  1.00  0.00     0.039 C 
ENDBRANCH  31  32
ENDBRANCH  30  31
ENDBRANCH  29  30
ENDBRANCH  28  29
ENDBRANCH  26  28
ENDBRANCH   8  26
TORSDOF 7
ENDMDL
MODEL 4
REMARK VINA RESULT:      -7.8      1.425      2.853
REMARK  7 active torsions:
REMARK  status: ('A' for Active; 'I' for Inactive)
REMARK    1  A    between atoms: C12_19  and  O3_3 
REMARK    2  A    between atoms: C19_26  and  O3_3 
REMARK    3  A    between atoms: C22_29  and  O6_6 
REMARK    4  A    between atoms: C24_31  and  O6_6 
REMARK    5  A    between atoms: C1_8  and  C10_17 
REMARK    6  A    between atoms: C12_19  and  C6_13 
REMARK    7  A    between atoms: C19_26  and  C22_29 
ROOT
HETATM    1  O1  UNK     1      29.120  -5.478  32.268  1.00  0.00    -0.293 OA
HETATM    2  N1  UNK     1      29.049 -10.148  31.480  1.00  0.00    -0.362 N 
HETATM    3  C1  UNK     1      30.018  -8.072  33.154  1.00  0.00     0.104 C 
HETATM    4  C2  UNK     1      29.058  -7.835  31.992  1.00  0.00     0.024 C 
HETATM    5  C3  UNK     1      28.606  -8.861  31.240  1.00  0.00     0.020 C 
HETATM    6  C4  UNK     1      27.621  -8.691  30.115  1.00  0.00     0.058 C 
HETATM    7  C5  UNK     1      26.825  -7.396  30.240  1.00  0.00     0.014 C 
HETATM    8  C6  UNK     1      30.529  -9.515  33.216  1.00  0.00     0.052 C 
HETATM    9  C7  UNK     1      27.751  -6.213  30.457  1.00  0.00     0.084 C 
HETATM   10  C8  UNK     1      28.663  -6.435  31.643  1.00  0.00     0.158 C 
HETATM   11  C9  UNK     1      30.025 -10.478  32.408  1.00  0.00     0.018 C 
HETATM   12  C13 UNK     1      30.443 -11.924  32.381  1.00  0.00     0.069 C 
HETATM   13  H8  UNK     1      28.694 -10.888  30.886  1.00  0.00     0.165 HD
ENDROOT
BRANCH   3  14
HETATM   14  C10 UNK     1      29.361  -7.696  34.454  1.00  0.00     0.029 A 
HETATM   15  C11 UNK     1      29.965  -6.611  35.267  1.00  0.00     0.194 A 
HETATM   16  O4  UNK     1      30.976  -6.017  34.912  1.00  0.00    -0.287 OA
HETATM   17  C15 UNK     1      29.282  -6.284  36.533  1.00  0.00     0.049 A 
HETATM   18  C16 UNK     1      28.135  -6.994  36.888  1.00  0.00     0.089 A 
HETATM   19  C17 UNK     1      29.774  -5.277  37.369  1.00  0.00     0.025 A 
HETATM   20  O2  UNK     1      27.609  -7.991  36.105  1.00  0.00    -0.321 OA
HETATM   21  C18 UNK     1      27.473  -6.701  38.080  1.00  0.00     0.039 A 
HETATM   22  C14 UNK     1      28.257  -8.285  34.930  1.00  0.00     0.154 A 
HETATM   23  C21 UNK     1      27.961  -5.697  38.915  1.00  0.00     0.009 A 
HETATM   24  C20 UNK     1      29.109  -4.987  38.561  1.00  0.00    -0.061 A 
HETATM   25  C23 UNK     1      29.626  -3.912  39.459  1.00  0.00     0.048 C 
ENDBRANCH   3  14
BRANCH   8  26
HETATM   26  C12 UNK     1      31.597  -9.781  34.194  1.00  0.00     0.292 C 
HETATM   27  O5  UNK     1      31.434 -10.455  35.195  1.00  0.00    -0.259 OA
BRANCH  26  28
HETATM   28  O3  UNK     1      32.726  -9.161  33.774  1.00  0.00    -0.316 OA
BRANCH  28  29
HETATM   29  C19 UNK     1      33.648  -9.995  33.065  1.00  0.00     0.205 C 
BRANCH  29  30
HETATM   30  C22 UNK     1      33.941  -9.372  31.714  1.00  0.00     0.195 C 
BRANCH  30  31
HETATM   31  O6  UNK     1      33.077  -9.947  30.741  1.00  0.00    -0.385 OA
BRANCH  31  32
HETATM   32  C24 UNK     1      32.713  -9.002  29.744  1.00  0.00     0.113 C 
HETATM   33  C25 UNK     1      31.499  -9.517  28.986  1.00  0.00     0.039 C 
HETATM   34  C26 UNK     1      32.441  -7.658  30.405  1.00  0.00     0.039 C 
ENDBRANCH  31  32
ENDBRANCH  30  31
ENDBRANCH  29  30
ENDBRANCH  28  29
ENDBRANCH  26  28
ENDBRANCH   8  26
TORSDOF 7
ENDMDL
MODEL 5
REMARK VINA RESULT:      -7.8      1.276      1.540
REMARK  7 active torsions:
REMARK  status: ('A' for Active; 'I' for Inactive)
REMARK    1  A    between atoms: C12_19  and  O3_3 
REMARK    2  A    between atoms: C19_26  and  O3_3 
REMARK    3  A    between atoms: C22_29  and  O6_6 
REMARK    4  A    between atoms: C24_31  and  O6_6 
REMARK    5  A    between atoms: C1_8  and  C10_17 
REMARK    6  A    between atoms: C12_19  and  C6_13 
REMARK    7  A    between atoms: C19_26  and  C22_29 
ROOT
HETATM    1  O1  UNK     1      28.802  -5.367  32.325  1.00  0.00    -0.293 OA
HETATM    2  N1  UNK     1      30.454  -9.705  31.385  1.00  0.00    -0.362 N 
HETATM    3  C1  UNK     1      30.713  -7.408  33.030  1.00  0.00     0.104 C 
HETATM    4  C2  UNK     1      29.625  -7.566  31.974  1.00  0.00     0.024 C 
HETATM    5  C3  UNK     1      29.529  -8.690  31.233  1.00  0.00     0.020 C 
HETATM    6  C4  UNK     1      28.445  -8.919  30.213  1.00  0.00     0.058 C 
HETATM    7  C5  UNK     1      27.230  -8.032  30.458  1.00  0.00     0.014 C 
HETATM    8  C6  UNK     1      31.743  -8.542  32.994  1.00  0.00     0.052 C 
HETATM    9  C7  UNK     1      27.646  -6.582  30.627  1.00  0.00     0.084 C 
HETATM   10  C8  UNK     1      28.688  -6.428  31.713  1.00  0.00     0.158 C 
HETATM   11  C9  UNK     1      31.570  -9.628  32.204  1.00  0.00     0.018 C 
HETATM   12  C13 UNK     1      32.507 -10.800  32.087  1.00  0.00     0.069 C 
HETATM   13  H8  UNK     1      30.353 -10.527  30.801  1.00  0.00     0.165 HD
ENDROOT
BRANCH   3  14
HETATM   14  C10 UNK     1      30.097  -7.309  34.399  1.00  0.00     0.029 A 
HETATM   15  C11 UNK     1      30.391  -6.111  35.226  1.00  0.00     0.194 A 
HETATM   16  O4  UNK     1      31.115  -5.207  34.827  1.00  0.00    -0.287 OA
HETATM   17  C15 UNK     1      29.763  -6.066  36.559  1.00  0.00     0.049 A 
HETATM   18  C16 UNK     1      28.948  -7.124  36.961  1.00  0.00     0.089 A 
HETATM   19  C17 UNK     1      29.978  -4.979  37.412  1.00  0.00     0.025 A 
HETATM   20  O2  UNK     1      28.702  -8.214  36.165  1.00  0.00    -0.321 OA
HETATM   21  C18 UNK     1      28.344  -7.102  38.218  1.00  0.00     0.039 A 
HETATM   22  C14 UNK     1      29.295  -8.243  34.926  1.00  0.00     0.154 A 
HETATM   23  C21 UNK     1      28.556  -6.019  39.071  1.00  0.00     0.009 A 
HETATM   24  C20 UNK     1      29.372  -4.961  38.669  1.00  0.00    -0.061 A 
HETATM   25  C23 UNK     1      29.595  -3.804  39.585  1.00  0.00     0.048 C 
ENDBRANCH   3  14
BRANCH   8  26
HETATM   26  C12 UNK     1      32.924  -8.370  33.856  1.00  0.00     0.292 C 
HETATM   27  O5  UNK     1      33.055  -8.929  34.930  1.00  0.00    -0.259 OA
BRANCH  26  28
HETATM   28  O3  UNK     1      33.781  -7.518  33.244  1.00  0.00    -0.316 OA
BRANCH  28  29
HETATM   29  C19 UNK     1      35.163  -7.717  33.559  1.00  0.00     0.205 C 
BRANCH  29  30
HETATM   30  C22 UNK     1      35.694  -6.483  34.262  1.00  0.00     0.195 C 
BRANCH  30  31
HETATM   31  O6  UNK     1      35.623  -6.685  35.669  1.00  0.00    -0.385 OA
BRANCH  31  32
HETATM   32  C24 UNK     1      34.954  -5.611  36.315  1.00  0.00     0.113 C 
HETATM   33  C25 UNK     1      34.570  -4.564  35.279  1.00  0.00     0.039 C 
HETATM   34  C26 UNK     1      33.736  -6.150  37.052  1.00  0.00     0.039 C 
ENDBRANCH  31  32
ENDBRANCH  30  31
ENDBRANCH  29  30
ENDBRANCH  28  29
ENDBRANCH  26  28
ENDBRANCH   8  26
TORSDOF 7
ENDMDL
MODEL 6
REMARK VINA RESULT:      -7.8      2.747      6.493
REMARK  7 active torsions:
REMARK  status: ('A' for Active; 'I' for Inactive)
REMARK    1  A    between atoms: C12_19  and  O3_3 
REMARK    2  A    between atoms: C19_26  and  O3_3 
REMARK    3  A    between atoms: C22_29  and  O6_6 
REMARK    4  A    between atoms: C24_31  and  O6_6 
REMARK    5  A    between atoms: C1_8  and  C10_17 
REMARK    6  A    between atoms: C12_19  and  C6_13 
REMARK    7  A    between atoms: C19_26  and  C22_29 
ROOT
HETATM    1  O1  UNK     1      29.937  -9.834  37.301  1.00  0.00    -0.293 OA
HETATM    2  N1  UNK     1      28.383  -5.838  39.312  1.00  0.00    -0.362 N 
HETATM    3  C1  UNK     1      30.377  -7.008  37.668  1.00  0.00     0.104 C 
HETATM    4  C2  UNK     1      29.171  -7.775  38.200  1.00  0.00     0.024 C 
HETATM    5  C3  UNK     1      28.236  -7.166  38.959  1.00  0.00     0.020 C 
HETATM    6  C4  UNK     1      27.003  -7.862  39.469  1.00  0.00     0.058 C 
HETATM    7  C5  UNK     1      26.667  -9.105  38.653  1.00  0.00     0.014 C 
HETATM    8  C6  UNK     1      30.483  -5.594  38.247  1.00  0.00     0.052 C 
HETATM    9  C7  UNK     1      27.884  -9.999  38.506  1.00  0.00     0.084 C 
HETATM   10  C8  UNK     1      29.059  -9.243  37.928  1.00  0.00     0.158 C 
HETATM   11  C9  UNK     1      29.498  -5.069  39.014  1.00  0.00     0.018 C 
HETATM   12  C13 UNK     1      29.489  -3.697  39.633  1.00  0.00     0.069 C 
HETATM   13  H8  UNK     1      27.664  -5.421  39.892  1.00  0.00     0.165 HD
ENDROOT
BRANCH   3  14
HETATM   14  C10 UNK     1      30.334  -6.952  36.164  1.00  0.00     0.029 A 
HETATM   15  C11 UNK     1      31.454  -7.555  35.399  1.00  0.00     0.194 A 
HETATM   16  O4  UNK     1      32.405  -8.093  35.952  1.00  0.00    -0.287 OA
HETATM   17  C15 UNK     1      31.362  -7.471  33.929  1.00  0.00     0.049 A 
HETATM   18  C16 UNK     1      30.256  -6.846  33.354  1.00  0.00     0.089 A 
HETATM   19  C17 UNK     1      32.367  -8.009  33.120  1.00  0.00     0.025 A 
HETATM   20  O2  UNK     1      29.240  -6.303  34.100  1.00  0.00    -0.321 OA
HETATM   21  C18 UNK     1      30.148  -6.757  31.966  1.00  0.00     0.039 A 
HETATM   22  C14 UNK     1      29.341  -6.387  35.467  1.00  0.00     0.154 A 
HETATM   23  C21 UNK     1      31.149  -7.293  31.156  1.00  0.00     0.009 A 
HETATM   24  C20 UNK     1      32.256  -7.917  31.732  1.00  0.00    -0.061 A 
HETATM   25  C23 UNK     1      33.324  -8.491  30.861  1.00  0.00     0.048 C 
ENDBRANCH   3  14
BRANCH   8  26
HETATM   26  C12 UNK     1      31.715  -4.854  37.926  1.00  0.00     0.292 C 
HETATM   27  O5  UNK     1      32.795  -5.104  38.429  1.00  0.00    -0.259 OA
BRANCH  26  28
HETATM   28  O3  UNK     1      31.415  -3.900  37.011  1.00  0.00    -0.316 OA
BRANCH  28  29
HETATM   29  C19 UNK     1      32.538  -3.367  36.301  1.00  0.00     0.205 C 
BRANCH  29  30
HETATM   30  C22 UNK     1      32.744  -4.169  35.030  1.00  0.00     0.195 C 
BRANCH  30  31
HETATM   31  O6  UNK     1      34.140  -4.279  34.774  1.00  0.00    -0.385 OA
BRANCH  31  32
HETATM   32  C24 UNK     1      34.581  -5.627  34.870  1.00  0.00     0.113 C 
HETATM   33  C25 UNK     1      35.385  -5.980  33.627  1.00  0.00     0.039 C 
HETATM   34  C26 UNK     1      35.400  -5.795  36.141  1.00  0.00     0.039 C 
ENDBRANCH  31  32
ENDBRANCH  30  31
ENDBRANCH  29  30
ENDBRANCH  28  29
ENDBRANCH  26  28
ENDBRANCH   8  26
TORSDOF 7
ENDMDL
MODEL 7
REMARK VINA RESULT:      -7.7      1.306      1.841
REMARK  7 active torsions:
REMARK  status: ('A' for Active; 'I' for Inactive)
REMARK    1  A    between atoms: C12_19  and  O3_3 
REMARK    2  A    between atoms: C19_26  and  O3_3 
REMARK    3  A    between atoms: C22_29  and  O6_6 
REMARK    4  A    between atoms: C24_31  and  O6_6 
REMARK    5  A    between atoms: C1_8  and  C10_17 
REMARK    6  A    between atoms: C12_19  and  C6_13 
REMARK    7  A    between atoms: C19_26  and  C22_29 
ROOT
HETATM    1  O1  UNK     1      29.096  -5.476  32.282  1.00  0.00    -0.293 OA
HETATM    2  N1  UNK     1      29.104 -10.151  31.525  1.00  0.00    -0.362 N 
HETATM    3  C1  UNK     1      30.035  -8.048  33.187  1.00  0.00     0.104 C 
HETATM    4  C2  UNK     1      29.074  -7.835  32.022  1.00  0.00     0.024 C 
HETATM    5  C3  UNK     1      28.641  -8.873  31.276  1.00  0.00     0.020 C 
HETATM    6  C4  UNK     1      27.655  -8.726  30.148  1.00  0.00     0.058 C 
HETATM    7  C5  UNK     1      26.838  -7.445  30.262  1.00  0.00     0.014 C 
HETATM    8  C6  UNK     1      30.569  -9.482  33.260  1.00  0.00     0.052 C 
HETATM    9  C7  UNK     1      27.743  -6.245  30.473  1.00  0.00     0.084 C 
HETATM   10  C8  UNK     1      28.656  -6.443  31.663  1.00  0.00     0.158 C 
HETATM   11  C9  UNK     1      30.083 -10.459  32.457  1.00  0.00     0.018 C 
HETATM   12  C13 UNK     1      30.526 -11.897  32.440  1.00  0.00     0.069 C 
HETATM   13  H8  UNK     1      28.763 -10.901  30.934  1.00  0.00     0.165 HD
ENDROOT
BRANCH   3  14
HETATM   14  C10 UNK     1      29.369  -7.675  34.483  1.00  0.00     0.029 A 
HETATM   15  C11 UNK     1      29.966  -6.589  35.301  1.00  0.00     0.194 A 
HETATM   16  O4  UNK     1      30.977  -5.993  34.953  1.00  0.00    -0.287 OA
HETATM   17  C15 UNK     1      29.274  -6.265  36.563  1.00  0.00     0.049 A 
HETATM   18  C16 UNK     1      28.126  -6.978  36.910  1.00  0.00     0.089 A 
HETATM   19  C17 UNK     1      29.758  -5.258  37.403  1.00  0.00     0.025 A 
HETATM   20  O2  UNK     1      27.607  -7.974  36.123  1.00  0.00    -0.321 OA
HETATM   21  C18 UNK     1      27.456  -6.686  38.098  1.00  0.00     0.039 A 
HETATM   22  C14 UNK     1      28.263  -8.266  34.951  1.00  0.00     0.154 A 
HETATM   23  C21 UNK     1      27.937  -5.682  38.937  1.00  0.00     0.009 A 
HETATM   24  C20 UNK     1      29.085  -4.970  38.591  1.00  0.00    -0.061 A 
HETATM   25  C23 UNK     1      29.595  -3.895  39.493  1.00  0.00     0.048 C 
ENDBRANCH   3  14
BRANCH   8  26
HETATM   26  C12 UNK     1      31.640  -9.724  34.242  1.00  0.00     0.292 C 
HETATM   27  O5  UNK     1      31.503 -10.441  35.216  1.00  0.00    -0.259 OA
BRANCH  26  28
HETATM   28  O3  UNK     1      32.737  -9.028  33.859  1.00  0.00    -0.316 OA
BRANCH  28  29
HETATM   29  C19 UNK     1      33.827  -9.827  33.385  1.00  0.00     0.205 C 
BRANCH  29  30
HETATM   30  C22 UNK     1      35.115  -9.041  33.529  1.00  0.00     0.195 C 
BRANCH  30  31
HETATM   31  O6  UNK     1      34.838  -7.816  34.197  1.00  0.00    -0.385 OA
BRANCH  31  32
HETATM   32  C24 UNK     1      35.838  -6.841  33.932  1.00  0.00     0.113 C 
HETATM   33  C25 UNK     1      37.172  -7.334  34.474  1.00  0.00     0.039 C 
HETATM   34  C26 UNK     1      35.898  -6.580  32.434  1.00  0.00     0.039 C 
ENDBRANCH  31  32
ENDBRANCH  30  31
ENDBRANCH  29  30
ENDBRANCH  28  29
ENDBRANCH  26  28
ENDBRANCH   8  26
TORSDOF 7
ENDMDL
MODEL 8
REMARK VINA RESULT:      -7.7      2.291      5.925
REMARK  7 active torsions:
REMARK  status: ('A' for Active; 'I' for Inactive)
REMARK    1  A    between atoms: C12_19  and  O3_3 
REMARK    2  A    between atoms: C19_26  and  O3_3 
REMARK    3  A    between atoms: C22_29  and  O6_6 
REMARK    4  A    between atoms: C24_31  and  O6_6 
REMARK    5  A    between atoms: C1_8  and  C10_17 
REMARK    6  A    between atoms: C12_19  and  C6_13 
REMARK    7  A    between atoms: C19_26  and  C22_29 
ROOT
HETATM    1  O1  UNK     1      26.995 -10.087  36.284  1.00  0.00    -0.293 OA
HETATM    2  N1  UNK     1      29.935  -7.103  38.494  1.00  0.00    -0.362 N 
HETATM    3  C1  UNK     1      29.531  -8.716  36.195  1.00  0.00     0.104 C 
HETATM    4  C2  UNK     1      28.481  -8.530  37.286  1.00  0.00     0.024 C 
HETATM    5  C3  UNK     1      28.713  -7.731  38.349  1.00  0.00     0.020 C 
HETATM    6  C4  UNK     1      27.694  -7.474  39.427  1.00  0.00     0.058 C 
HETATM    7  C5  UNK     1      26.274  -7.766  38.958  1.00  0.00     0.014 C 
HETATM    8  C6  UNK     1      30.876  -8.077  36.553  1.00  0.00     0.052 C 
HETATM    9  C7  UNK     1      26.189  -9.141  38.321  1.00  0.00     0.084 C 
HETATM   10  C8  UNK     1      27.198  -9.297  37.205  1.00  0.00     0.158 C 
HETATM   11  C9  UNK     1      31.019  -7.300  37.653  1.00  0.00     0.018 C 
HETATM   12  C13 UNK     1      32.285  -6.620  38.103  1.00  0.00     0.069 C 
HETATM   13  H8  UNK     1      30.072  -6.521  39.313  1.00  0.00     0.165 HD
ENDROOT
BRANCH   3  14
HETATM   14  C10 UNK     1      29.025  -8.166  34.889  1.00  0.00     0.029 A 
HETATM   15  C11 UNK     1      29.025  -9.052  33.698  1.00  0.00     0.194 A 
HETATM   16  O4  UNK     1      29.422 -10.209  33.748  1.00  0.00    -0.287 OA
HETATM   17  C15 UNK     1      28.520  -8.462  32.444  1.00  0.00     0.049 A 
HETATM   18  C16 UNK     1      28.081  -7.137  32.446  1.00  0.00     0.089 A 
HETATM   19  C17 UNK     1      28.480  -9.215  31.267  1.00  0.00     0.025 A 
HETATM   20  O2  UNK     1      28.097  -6.353  33.571  1.00  0.00    -0.321 OA
HETATM   21  C18 UNK     1      27.599  -6.560  31.271  1.00  0.00     0.039 A 
HETATM   22  C14 UNK     1      28.571  -6.916  34.731  1.00  0.00     0.154 A 
HETATM   23  C21 UNK     1      27.558  -7.309  30.096  1.00  0.00     0.009 A 
HETATM   24  C20 UNK     1      27.997  -8.634  30.094  1.00  0.00    -0.061 A 
HETATM   25  C23 UNK     1      27.950  -9.432  28.833  1.00  0.00     0.048 C 
ENDBRANCH   3  14
BRANCH   8  26
HETATM   26  C12 UNK     1      31.993  -8.366  35.638  1.00  0.00     0.292 C 
HETATM   27  O5  UNK     1      32.570  -9.438  35.605  1.00  0.00    -0.259 OA
BRANCH  26  28
HETATM   28  O3  UNK     1      32.228  -7.263  34.887  1.00  0.00    -0.316 OA
BRANCH  28  29
HETATM   29  C19 UNK     1      33.186  -7.437  33.838  1.00  0.00     0.205 C 
BRANCH  29  30
HETATM   30  C22 UNK     1      34.510  -6.841  34.273  1.00  0.00     0.195 C 
BRANCH  30  31
HETATM   31  O6  UNK     1      34.502  -5.444  34.001  1.00  0.00    -0.385 OA
BRANCH  31  32
HETATM   32  C24 UNK     1      34.715  -4.683  35.181  1.00  0.00     0.113 C 
HETATM   33  C25 UNK     1      33.408  -4.020  35.592  1.00  0.00     0.039 C 
HETATM   34  C26 UNK     1      35.257  -5.593  36.273  1.00  0.00     0.039 C 
ENDBRANCH  31  32
ENDBRANCH  30  31
ENDBRANCH  29  30
ENDBRANCH  28  29
ENDBRANCH  26  28
ENDBRANCH   8  26
TORSDOF 7
ENDMDL
MODEL 9
REMARK VINA RESULT:      -7.7      2.103      6.014
REMARK  7 active torsions:
REMARK  status: ('A' for Active; 'I' for Inactive)
REMARK    1  A    between atoms: C12_19  and  O3_3 
REMARK    2  A    between atoms: C19_26  and  O3_3 
REMARK    3  A    between atoms: C22_29  and  O6_6 
REMARK    4  A    between atoms: C24_31  and  O6_6 
REMARK    5  A    between atoms: C1_8  and  C10_17 
REMARK    6  A    between atoms: C12_19  and  C6_13 
REMARK    7  A    between atoms: C19_26  and  C22_29 
ROOT
HETATM    1  O1  UNK     1      31.476  -5.029  34.375  1.00  0.00    -0.293 OA
HETATM    2  N1  UNK     1      32.566  -8.803  37.021  1.00  0.00    -0.362 N 
HETATM    3  C1  UNK     1      30.489  -7.394  35.699  1.00  0.00     0.104 C 
HETATM    4  C2  UNK     1      31.958  -6.990  35.623  1.00  0.00     0.024 C 
HETATM    5  C3  UNK     1      32.912  -7.709  36.251  1.00  0.00     0.020 C 
HETATM    6  C4  UNK     1      34.380  -7.385  36.168  1.00  0.00     0.058 C 
HETATM    7  C5  UNK     1      34.712  -6.530  34.951  1.00  0.00     0.014 C 
HETATM    8  C6  UNK     1      30.238  -8.534  36.691  1.00  0.00     0.052 C 
HETATM    9  C7  UNK     1      33.792  -5.326  34.871  1.00  0.00     0.084 C 
HETATM   10  C8  UNK     1      32.337  -5.740  34.893  1.00  0.00     0.158 C 
HETATM   11  C9  UNK     1      31.262  -9.190  37.287  1.00  0.00     0.018 C 
HETATM   12  C13 UNK     1      31.139 -10.322  38.271  1.00  0.00     0.069 C 
HETATM   13  H8  UNK     1      33.312  -9.309  37.484  1.00  0.00     0.165 HD
ENDROOT
BRANCH   3  14
HETATM   14  C10 UNK     1      29.984  -7.773  34.333  1.00  0.00     0.029 A 
HETATM   15  C11 UNK     1      28.845  -7.012  33.760  1.00  0.00     0.194 A 
HETATM   16  O4  UNK     1      28.309  -6.091  34.364  1.00  0.00    -0.287 OA
HETATM   17  C15 UNK     1      28.390  -7.426  32.420  1.00  0.00     0.049 A 
HETATM   18  C16 UNK     1      29.038  -8.482  31.780  1.00  0.00     0.089 A 
HETATM   19  C17 UNK     1      27.324  -6.771  31.796  1.00  0.00     0.025 A 
HETATM   20  O2  UNK     1      30.089  -9.158  32.345  1.00  0.00    -0.321 OA
HETATM   21  C18 UNK     1      28.624  -8.889  30.511  1.00  0.00     0.039 A 
HETATM   22  C14 UNK     1      30.501  -8.763  33.594  1.00  0.00     0.154 A 
HETATM   23  C21 UNK     1      27.561  -8.238  29.886  1.00  0.00     0.009 A 
HETATM   24  C20 UNK     1      26.913  -7.182  30.527  1.00  0.00    -0.061 A 
HETATM   25  C23 UNK     1      25.776  -6.487  29.852  1.00  0.00     0.048 C 
ENDBRANCH   3  14
BRANCH   8  26
HETATM   26  C12 UNK     1      28.827  -8.859  36.958  1.00  0.00     0.292 C 
HETATM   27  O5  UNK     1      28.159  -9.578  36.238  1.00  0.00    -0.259 OA
BRANCH  26  28
HETATM   28  O3  UNK     1      28.453  -8.234  38.100  1.00  0.00    -0.316 OA
BRANCH  28  29
HETATM   29  C19 UNK     1      27.370  -7.308  37.958  1.00  0.00     0.205 C 
BRANCH  29  30
HETATM   30  C22 UNK     1      27.823  -5.942  38.434  1.00  0.00     0.195 C 
BRANCH  30  31
HETATM   31  O6  UNK     1      29.162  -6.035  38.905  1.00  0.00    -0.385 OA
BRANCH  31  32
HETATM   32  C24 UNK     1      29.926  -4.898  38.529  1.00  0.00     0.113 C 
HETATM   33  C25 UNK     1      29.552  -3.725  39.424  1.00  0.00     0.039 C 
HETATM   34  C26 UNK     1      31.407  -5.235  38.627  1.00  0.00     0.039 C 
ENDBRANCH  31  32
ENDBRANCH  30  31
ENDBRANCH  29  30
ENDBRANCH  28  29
ENDBRANCH  26  28
ENDBRANCH   8  26
TORSDOF 7
ENDMDL
MODEL 10
REMARK VINA RESULT:      -7.6      2.729      6.846
REMARK  7 active torsions:
REMARK  status: ('A' for Active; 'I' for Inactive)
REMARK    1  A    between atoms: C12_19  and  O3_3 
REMARK    2  A    between atoms: C19_26  and  O3_3 
REMARK    3  A    between atoms: C22_29  and  O6_6 
REMARK    4  A    between atoms: C24_31  and  O6_6 
REMARK    5  A    between atoms: C1_8  and  C10_17 
REMARK    6  A    between atoms: C12_19  and  C6_13 
REMARK    7  A    between atoms: C19_26  and  C22_29 
ROOT
HETATM    1  O1  UNK     1      30.773  -8.060  36.730  1.00  0.00    -0.293 OA
HETATM    2  N1  UNK     1      35.253  -6.837  35.799  1.00  0.00    -0.362 N 
HETATM    3  C1  UNK     1      32.936  -8.153  34.825  1.00  0.00     0.104 C 
HETATM    4  C2  UNK     1      32.981  -7.406  36.154  1.00  0.00     0.024 C 
HETATM    5  C3  UNK     1      34.102  -6.774  36.561  1.00  0.00     0.020 C 
HETATM    6  C4  UNK     1      34.186  -5.981  37.838  1.00  0.00     0.058 C 
HETATM    7  C5  UNK     1      32.813  -5.547  38.336  1.00  0.00     0.014 C 
HETATM    8  C6  UNK     1      34.310  -8.257  34.156  1.00  0.00     0.052 C 
HETATM    9  C7  UNK     1      31.859  -6.726  38.385  1.00  0.00     0.084 C 
HETATM   10  C8  UNK     1      31.781  -7.429  37.047  1.00  0.00     0.158 C 
HETATM   11  C9  UNK     1      35.386  -7.597  34.647  1.00  0.00     0.018 C 
HETATM   12  C13 UNK     1      36.779  -7.620  34.077  1.00  0.00     0.069 C 
HETATM   13  H8  UNK     1      36.076  -6.358  36.146  1.00  0.00     0.165 HD
ENDROOT
BRANCH   3  14
HETATM   14  C10 UNK     1      31.953  -7.497  33.894  1.00  0.00     0.029 A 
HETATM   15  C11 UNK     1      30.942  -8.346  33.214  1.00  0.00     0.194 A 
HETATM   16  O4  UNK     1      30.887  -9.557  33.389  1.00  0.00    -0.287 OA
HETATM   17  C15 UNK     1      30.005  -7.652  32.312  1.00  0.00     0.049 A 
HETATM   18  C16 UNK     1      30.116  -6.271  32.150  1.00  0.00     0.089 A 
HETATM   19  C17 UNK     1      29.017  -8.364  31.626  1.00  0.00     0.025 A 
HETATM   20  O2  UNK     1      31.065  -5.523  32.800  1.00  0.00    -0.321 OA
HETATM   21  C18 UNK     1      29.239  -5.595  31.303  1.00  0.00     0.039 A 
HETATM   22  C14 UNK     1      31.932  -6.183  33.636  1.00  0.00     0.154 A 
HETATM   23  C21 UNK     1      28.252  -6.302  30.617  1.00  0.00     0.009 A 
HETATM   24  C20 UNK     1      28.142  -7.684  30.778  1.00  0.00    -0.061 A 
HETATM   25  C23 UNK     1      27.083  -8.436  30.042  1.00  0.00     0.048 C 
ENDBRANCH   3  14
BRANCH   8  26
HETATM   26  C12 UNK     1      34.386  -9.118  32.964  1.00  0.00     0.292 C 
HETATM   27  O5  UNK     1      34.547 -10.323  33.018  1.00  0.00    -0.259 OA
BRANCH  26  28
HETATM   28  O3  UNK     1      34.246  -8.339  31.864  1.00  0.00    -0.316 OA
BRANCH  28  29
HETATM   29  C19 UNK     1      34.374  -9.026  30.614  1.00  0.00     0.205 C 
BRANCH  29  30
HETATM   30  C22 UNK     1      32.991  -9.287  30.050  1.00  0.00     0.195 C 
BRANCH  30  31
HETATM   31  O6  UNK     1      32.995  -8.996  28.658  1.00  0.00    -0.385 OA
BRANCH  31  32
HETATM   32  C24 UNK     1      31.692  -8.680  28.188  1.00  0.00     0.113 C 
HETATM   33  C25 UNK     1      30.724  -9.769  28.627  1.00  0.00     0.039 C 
HETATM   34  C26 UNK     1      31.286  -7.314  28.719  1.00  0.00     0.039 C 
ENDBRANCH  31  32
ENDBRANCH  30  31
ENDBRANCH  29  30
ENDBRANCH  28  29
ENDBRANCH  26  28
ENDBRANCH   8  26
TORSDOF 7
ENDMDL
