MODEL 1
REMARK VINA RESULT:      -9.1      0.000      0.000
REMARK  6 active torsions:
REMARK  status: ('A' for Active; 'I' for Inactive)
REMARK    1  A    between atoms: C3_8  and  S1_1 
REMARK    2  A    between atoms: C8_13  and  S1_1 
REMARK       I    between atoms: C15_20  and  N3_5 
REMARK    3  A    between atoms: C4_9  and  N3_5 
REMARK    4  A    between atoms: C16_21  and  C6_11 
REMARK    5  A    between atoms: C15_20  and  C8_13 
REMARK    6  A    between atoms: C17_22  and  C18_23 
ROOT
HETATM    1  O1  UNK     1      20.825   0.676  31.161  1.00  0.00    -0.272 OA
HETATM    2  N3  UNK     1      18.523   1.096  31.369  1.00  0.00    -0.327 N 
HETATM    3  C15 UNK     1      19.653   0.308  31.179  1.00  0.00     0.231 C 
HETATM    4  H10 UNK     1      17.618   0.633  31.340  1.00  0.00     0.169 HD
ENDROOT
BRANCH   2   5
HETATM    5  C4  UNK     1      18.474   2.491  31.602  1.00  0.00     0.034 A 
HETATM    6  C10 UNK     1      18.161   2.956  32.869  1.00  0.00     0.030 A 
HETATM    7  C12 UNK     1      18.115   4.331  33.100  1.00  0.00     0.013 A 
HETATM    8  C6  UNK     1      18.384   5.222  32.060  1.00  0.00    -0.036 A 
HETATM    9  C11 UNK     1      18.699   4.737  30.791  1.00  0.00     0.013 A 
HETATM   10  C9  UNK     1      18.745   3.362  30.560  1.00  0.00     0.030 A 
BRANCH   8  11
HETATM   11  C16 UNK     1      18.336   6.656  32.300  1.00  0.00     0.012 C 
HETATM   12  C18 UNK     1      17.975   7.239  33.468  1.00  0.00     0.012 C 
BRANCH  12  13
HETATM   13  C17 UNK     1      17.945   8.690  33.719  1.00  0.00    -0.036 A 
HETATM   14  C19 UNK     1      19.138   9.371  33.903  1.00  0.00     0.011 A 
HETATM   15  C21 UNK     1      19.110  10.746  34.141  1.00  0.00     0.001 A 
HETATM   16  C23 UNK     1      17.890  11.420  34.190  1.00  0.00     0.000 A 
HETATM   17  C22 UNK     1      16.699  10.721  34.001  1.00  0.00     0.001 A 
HETATM   18  C20 UNK     1      16.726   9.347  33.764  1.00  0.00     0.011 A 
ENDBRANCH  12  13
ENDBRANCH   8  11
ENDBRANCH   2   5
BRANCH   3  19
HETATM   19  C8  UNK     1      19.299  -1.146  30.959  1.00  0.00     0.185 C 
BRANCH  19  20
HETATM   20  S1  UNK     1      19.775  -2.094  32.435  1.00  0.00    -0.083 SA
BRANCH  20  21
HETATM   21  C3  UNK     1      18.894  -1.274  33.668  1.00  0.00     0.168 A 
HETATM   22  N1  UNK     1      17.532  -1.176  33.600  1.00  0.00    -0.333 N 
HETATM   23  C1  UNK     1      17.107  -0.478  34.702  1.00  0.00     0.063 A 
HETATM   24  H1  UNK     1      16.944  -1.551  32.868  1.00  0.00     0.168 HD
HETATM   25  C2  UNK     1      18.277  -0.185  35.397  1.00  0.00     0.086 A 
HETATM   26  C5  UNK     1      15.839  -0.092  35.137  1.00  0.00     0.032 A 
HETATM   27  N2  UNK     1      19.377  -0.686  34.740  1.00  0.00    -0.223 NA
HETATM   28  C7  UNK     1      18.196   0.538  36.600  1.00  0.00     0.034 A 
HETATM   29  C14 UNK     1      16.933   0.937  37.056  1.00  0.00     0.002 A 
HETATM   30  C13 UNK     1      15.777   0.626  36.335  1.00  0.00     0.002 A 
ENDBRANCH  20  21
ENDBRANCH  19  20
ENDBRANCH   3  19
TORSDOF 6
ENDMDL
MODEL 2
REMARK VINA RESULT:      -9.1      5.307     11.590
REMARK  6 active torsions:
REMARK  status: ('A' for Active; 'I' for Inactive)
REMARK    1  A    between atoms: C3_8  and  S1_1 
REMARK    2  A    between atoms: C8_13  and  S1_1 
REMARK       I    between atoms: C15_20  and  N3_5 
REMARK    3  A    between atoms: C4_9  and  N3_5 
REMARK    4  A    between atoms: C16_21  and  C6_11 
REMARK    5  A    between atoms: C15_20  and  C8_13 
REMARK    6  A    between atoms: C17_22  and  C18_23 
ROOT
HETATM    1  O1  UNK     1      17.494  -0.110  36.093  1.00  0.00    -0.272 OA
HETATM    2  N3  UNK     1      19.741  -0.589  35.607  1.00  0.00    -0.327 N 
HETATM    3  C15 UNK     1      18.617   0.221  35.722  1.00  0.00     0.231 C 
HETATM    4  H10 UNK     1      20.598  -0.158  35.267  1.00  0.00     0.169 HD
ENDROOT
BRANCH   2   5
HETATM    5  C4  UNK     1      19.845  -1.968  35.909  1.00  0.00     0.034 A 
HETATM    6  C10 UNK     1      19.726  -2.385  37.224  1.00  0.00     0.030 A 
HETATM    7  C12 UNK     1      19.826  -3.744  37.522  1.00  0.00     0.013 A 
HETATM    8  C6  UNK     1      20.043  -4.667  36.498  1.00  0.00    -0.036 A 
HETATM    9  C11 UNK     1      20.161  -4.231  35.179  1.00  0.00     0.013 A 
HETATM   10  C9  UNK     1      20.061  -2.872  34.881  1.00  0.00     0.030 A 
BRANCH   8  11
HETATM   11  C16 UNK     1      20.147  -6.085  36.809  1.00  0.00     0.012 C 
HETATM   12  C18 UNK     1      19.303  -6.770  37.615  1.00  0.00     0.012 C 
BRANCH  12  13
HETATM   13  C17 UNK     1      19.396  -8.210  37.914  1.00  0.00    -0.036 A 
HETATM   14  C19 UNK     1      19.142  -9.129  36.908  1.00  0.00     0.011 A 
HETATM   15  C21 UNK     1      19.230 -10.493  37.192  1.00  0.00     0.001 A 
HETATM   16  C23 UNK     1      19.571 -10.918  38.476  1.00  0.00     0.000 A 
HETATM   17  C22 UNK     1      19.825  -9.980  39.476  1.00  0.00     0.001 A 
HETATM   18  C20 UNK     1      19.737  -8.618  39.194  1.00  0.00     0.011 A 
ENDBRANCH  12  13
ENDBRANCH   8  11
ENDBRANCH   2   5
BRANCH   3  19
HETATM   19  C8  UNK     1      18.900   1.647  35.304  1.00  0.00     0.185 C 
BRANCH  19  20
HETATM   20  S1  UNK     1      17.864   2.053  33.868  1.00  0.00    -0.083 SA
BRANCH  20  21
HETATM   21  C3  UNK     1      18.565   1.060  32.648  1.00  0.00     0.168 A 
HETATM   22  N1  UNK     1      18.772   1.548  31.388  1.00  0.00    -0.333 N 
HETATM   23  C1  UNK     1      19.336   0.547  30.638  1.00  0.00     0.063 A 
HETATM   24  H1  UNK     1      18.550   2.481  31.067  1.00  0.00     0.168 HD
HETATM   25  C2  UNK     1      19.441  -0.526  31.518  1.00  0.00     0.086 A 
HETATM   26  C5  UNK     1      19.750   0.491  29.307  1.00  0.00     0.032 A 
HETATM   27  N2  UNK     1      18.957  -0.190  32.762  1.00  0.00    -0.223 NA
HETATM   28  C7  UNK     1      19.990  -1.736  31.060  1.00  0.00     0.034 A 
HETATM   29  C14 UNK     1      20.412  -1.816  29.726  1.00  0.00     0.002 A 
HETATM   30  C13 UNK     1      20.293  -0.720  28.868  1.00  0.00     0.002 A 
ENDBRANCH  20  21
ENDBRANCH  19  20
ENDBRANCH   3  19
TORSDOF 6
ENDMDL
MODEL 3
REMARK VINA RESULT:      -9.0      5.362      6.694
REMARK  6 active torsions:
REMARK  status: ('A' for Active; 'I' for Inactive)
REMARK    1  A    between atoms: C3_8  and  S1_1 
REMARK    2  A    between atoms: C8_13  and  S1_1 
REMARK       I    between atoms: C15_20  and  N3_5 
REMARK    3  A    between atoms: C4_9  and  N3_5 
REMARK    4  A    between atoms: C16_21  and  C6_11 
REMARK    5  A    between atoms: C15_20  and  C8_13 
REMARK    6  A    between atoms: C17_22  and  C18_23 
ROOT
HETATM    1  O1  UNK     1      21.213  -2.384  35.629  1.00  0.00    -0.272 OA
HETATM    2  N3  UNK     1      18.877  -2.144  35.608  1.00  0.00    -0.327 N 
HETATM    3  C15 UNK     1      20.076  -2.836  35.732  1.00  0.00     0.231 C 
HETATM    4  H10 UNK     1      18.015  -2.675  35.707  1.00  0.00     0.169 HD
ENDROOT
BRANCH   2   5
HETATM    5  C4  UNK     1      18.701  -0.762  35.354  1.00  0.00     0.034 A 
HETATM    6  C10 UNK     1      18.745   0.132  36.410  1.00  0.00     0.030 A 
HETATM    7  C12 UNK     1      18.574   1.494  36.160  1.00  0.00     0.013 A 
HETATM    8  C6  UNK     1      18.362   1.941  34.855  1.00  0.00    -0.036 A 
HETATM    9  C11 UNK     1      18.322   1.028  33.803  1.00  0.00     0.013 A 
HETATM   10  C9  UNK     1      18.492  -0.334  34.053  1.00  0.00     0.030 A 
BRANCH   8  11
HETATM   11  C16 UNK     1      18.184   3.361  34.594  1.00  0.00     0.012 C 
HETATM   12  C18 UNK     1      18.320   3.955  33.385  1.00  0.00     0.012 C 
BRANCH  12  13
HETATM   13  C17 UNK     1      18.120   5.390  33.116  1.00  0.00    -0.036 A 
HETATM   14  C19 UNK     1      18.965   6.314  33.707  1.00  0.00     0.011 A 
HETATM   15  C21 UNK     1      18.776   7.673  33.452  1.00  0.00     0.001 A 
HETATM   16  C23 UNK     1      17.745   8.088  32.608  1.00  0.00     0.000 A 
HETATM   17  C22 UNK     1      16.904   7.144  32.020  1.00  0.00     0.001 A 
HETATM   18  C20 UNK     1      17.092   5.786  32.275  1.00  0.00     0.011 A 
ENDBRANCH  12  13
ENDBRANCH   8  11
ENDBRANCH   2   5
BRANCH   3  19
HETATM   19  C8  UNK     1      19.855  -4.307  36.006  1.00  0.00     0.185 C 
BRANCH  19  20
HETATM   20  S1  UNK     1      20.735  -4.758  37.531  1.00  0.00    -0.083 SA
BRANCH  20  21
HETATM   21  C3  UNK     1      20.733  -6.478  37.432  1.00  0.00     0.168 A 
HETATM   22  N1  UNK     1      19.726  -7.205  38.004  1.00  0.00    -0.333 N 
HETATM   23  C1  UNK     1      19.983  -8.532  37.770  1.00  0.00     0.063 A 
HETATM   24  H1  UNK     1      18.934  -6.831  38.509  1.00  0.00     0.168 HD
HETATM   25  C2  UNK     1      21.171  -8.531  37.044  1.00  0.00     0.086 A 
HETATM   26  C5  UNK     1      19.299  -9.697  38.119  1.00  0.00     0.032 A 
HETATM   27  N2  UNK     1      21.622  -7.247  36.844  1.00  0.00    -0.223 NA
HETATM   28  C7  UNK     1      21.725  -9.757  36.635  1.00  0.00     0.034 A 
HETATM   29  C14 UNK     1      21.055 -10.939  36.975  1.00  0.00     0.002 A 
HETATM   30  C13 UNK     1      19.864 -10.906  37.704  1.00  0.00     0.002 A 
ENDBRANCH  20  21
ENDBRANCH  19  20
ENDBRANCH   3  19
TORSDOF 6
ENDMDL
MODEL 4
REMARK VINA RESULT:      -8.6      4.986     10.920
REMARK  6 active torsions:
REMARK  status: ('A' for Active; 'I' for Inactive)
REMARK    1  A    between atoms: C3_8  and  S1_1 
REMARK    2  A    between atoms: C8_13  and  S1_1 
REMARK       I    between atoms: C15_20  and  N3_5 
REMARK    3  A    between atoms: C4_9  and  N3_5 
REMARK    4  A    between atoms: C16_21  and  C6_11 
REMARK    5  A    between atoms: C15_20  and  C8_13 
REMARK    6  A    between atoms: C17_22  and  C18_23 
ROOT
HETATM    1  O1  UNK     1      19.265   1.697  35.707  1.00  0.00    -0.272 OA
HETATM    2  N3  UNK     1      18.028  -0.214  35.128  1.00  0.00    -0.327 N 
HETATM    3  C15 UNK     1      18.333   1.142  35.131  1.00  0.00     0.231 C 
HETATM    4  H10 UNK     1      17.205  -0.510  34.609  1.00  0.00     0.169 HD
ENDROOT
BRANCH   2   5
HETATM    5  C4  UNK     1      18.736  -1.257  35.773  1.00  0.00     0.034 A 
HETATM    6  C10 UNK     1      18.484  -1.523  37.109  1.00  0.00     0.030 A 
HETATM    7  C12 UNK     1      19.179  -2.552  37.743  1.00  0.00     0.013 A 
HETATM    8  C6  UNK     1      20.116  -3.303  37.032  1.00  0.00    -0.036 A 
HETATM    9  C11 UNK     1      20.357  -3.023  35.687  1.00  0.00     0.013 A 
HETATM   10  C9  UNK     1      19.662  -1.994  35.052  1.00  0.00     0.030 A 
BRANCH   8  11
HETATM   11  C16 UNK     1      20.840  -4.376  37.694  1.00  0.00     0.012 C 
HETATM   12  C18 UNK     1      20.308  -5.566  38.061  1.00  0.00     0.012 C 
BRANCH  12  13
HETATM   13  C17 UNK     1      21.046  -6.662  38.714  1.00  0.00    -0.036 A 
HETATM   14  C19 UNK     1      22.406  -6.524  38.937  1.00  0.00     0.011 A 
HETATM   15  C21 UNK     1      23.105  -7.562  39.555  1.00  0.00     0.001 A 
HETATM   16  C23 UNK     1      22.433  -8.722  39.941  1.00  0.00     0.000 A 
HETATM   17  C22 UNK     1      21.063  -8.844  39.710  1.00  0.00     0.001 A 
HETATM   18  C20 UNK     1      20.365  -7.807  39.092  1.00  0.00     0.011 A 
ENDBRANCH  12  13
ENDBRANCH   8  11
ENDBRANCH   2   5
BRANCH   3  19
HETATM   19  C8  UNK     1      17.339   1.948  34.324  1.00  0.00     0.185 C 
BRANCH  19  20
HETATM   20  S1  UNK     1      18.242   2.913  33.076  1.00  0.00    -0.083 SA
BRANCH  20  21
HETATM   21  C3  UNK     1      18.793   1.671  32.017  1.00  0.00     0.168 A 
HETATM   22  N1  UNK     1      18.736   1.839  30.662  1.00  0.00    -0.333 N 
HETATM   23  C1  UNK     1      19.236   0.702  30.077  1.00  0.00     0.063 A 
HETATM   24  H1  UNK     1      18.388   2.655  30.176  1.00  0.00     0.168 HD
HETATM   25  C2  UNK     1      19.579  -0.115  31.151  1.00  0.00     0.086 A 
HETATM   26  C5  UNK     1      19.413   0.332  28.744  1.00  0.00     0.032 A 
HETATM   27  N2  UNK     1      19.296   0.503  32.347  1.00  0.00    -0.223 NA
HETATM   28  C7  UNK     1      20.132  -1.382  30.897  1.00  0.00     0.034 A 
HETATM   29  C14 UNK     1      20.318  -1.776  29.565  1.00  0.00     0.002 A 
HETATM   30  C13 UNK     1      19.964  -0.932  28.510  1.00  0.00     0.002 A 
ENDBRANCH  20  21
ENDBRANCH  19  20
ENDBRANCH   3  19
TORSDOF 6
ENDMDL
MODEL 5
REMARK VINA RESULT:      -8.5      4.999     11.465
REMARK  6 active torsions:
REMARK  status: ('A' for Active; 'I' for Inactive)
REMARK    1  A    between atoms: C3_8  and  S1_1 
REMARK    2  A    between atoms: C8_13  and  S1_1 
REMARK       I    between atoms: C15_20  and  N3_5 
REMARK    3  A    between atoms: C4_9  and  N3_5 
REMARK    4  A    between atoms: C16_21  and  C6_11 
REMARK    5  A    between atoms: C15_20  and  C8_13 
REMARK    6  A    between atoms: C17_22  and  C18_23 
ROOT
HETATM    1  O1  UNK     1      17.470  -0.036  33.860  1.00  0.00    -0.272 OA
HETATM    2  N3  UNK     1      19.096   0.038  35.554  1.00  0.00    -0.327 N 
HETATM    3  C15 UNK     1      18.220   0.575  34.617  1.00  0.00     0.231 C 
HETATM    4  H10 UNK     1      19.663   0.688  36.093  1.00  0.00     0.169 HD
ENDROOT
BRANCH   2   5
HETATM    5  C4  UNK     1      19.303  -1.329  35.856  1.00  0.00     0.034 A 
HETATM    6  C10 UNK     1      18.770  -1.854  37.021  1.00  0.00     0.030 A 
HETATM    7  C12 UNK     1      18.971  -3.202  37.319  1.00  0.00     0.013 A 
HETATM    8  C6  UNK     1      19.704  -4.006  36.445  1.00  0.00    -0.036 A 
HETATM    9  C11 UNK     1      20.234  -3.462  35.275  1.00  0.00     0.013 A 
HETATM   10  C9  UNK     1      20.032  -2.115  34.978  1.00  0.00     0.030 A 
BRANCH   8  11
HETATM   11  C16 UNK     1      19.914  -5.412  36.755  1.00  0.00     0.012 C 
HETATM   12  C18 UNK     1      19.093  -6.174  37.514  1.00  0.00     0.012 C 
BRANCH  12  13
HETATM   13  C17 UNK     1      19.294  -7.603  37.812  1.00  0.00    -0.036 A 
HETATM   14  C19 UNK     1      19.880  -7.969  39.014  1.00  0.00     0.011 A 
HETATM   15  C21 UNK     1      20.070  -9.322  39.296  1.00  0.00     0.001 A 
HETATM   16  C23 UNK     1      19.672 -10.290  38.374  1.00  0.00     0.000 A 
HETATM   17  C22 UNK     1      19.083  -9.905  37.170  1.00  0.00     0.001 A 
HETATM   18  C20 UNK     1      18.893  -8.553  36.887  1.00  0.00     0.011 A 
ENDBRANCH  12  13
ENDBRANCH   8  11
ENDBRANCH   2   5
BRANCH   3  19
HETATM   19  C8  UNK     1      18.282   2.086  34.584  1.00  0.00     0.185 C 
BRANCH  19  20
HETATM   20  S1  UNK     1      18.197   2.638  32.854  1.00  0.00    -0.083 SA
BRANCH  20  21
HETATM   21  C3  UNK     1      18.132   4.349  33.044  1.00  0.00     0.168 A 
HETATM   22  N1  UNK     1      18.945   4.979  33.944  1.00  0.00    -0.333 N 
HETATM   23  C1  UNK     1      18.678   6.324  33.880  1.00  0.00     0.063 A 
HETATM   24  H1  UNK     1      19.622   4.534  34.549  1.00  0.00     0.168 HD
HETATM   25  C2  UNK     1      17.685   6.433  32.911  1.00  0.00     0.086 A 
HETATM   26  C5  UNK     1      19.205   7.419  34.566  1.00  0.00     0.032 A 
HETATM   27  N2  UNK     1      17.358   5.196  32.403  1.00  0.00    -0.223 NA
HETATM   28  C7  UNK     1      17.174   7.703  32.594  1.00  0.00     0.034 A 
HETATM   29  C14 UNK     1      17.687   8.817  33.270  1.00  0.00     0.002 A 
HETATM   30  C13 UNK     1      18.685   8.675  34.238  1.00  0.00     0.002 A 
ENDBRANCH  20  21
ENDBRANCH  19  20
ENDBRANCH   3  19
TORSDOF 6
ENDMDL
MODEL 6
REMARK VINA RESULT:      -8.5      3.342      5.779
REMARK  6 active torsions:
REMARK  status: ('A' for Active; 'I' for Inactive)
REMARK    1  A    between atoms: C3_8  and  S1_1 
REMARK    2  A    between atoms: C8_13  and  S1_1 
REMARK       I    between atoms: C15_20  and  N3_5 
REMARK    3  A    between atoms: C4_9  and  N3_5 
REMARK    4  A    between atoms: C16_21  and  C6_11 
REMARK    5  A    between atoms: C15_20  and  C8_13 
REMARK    6  A    between atoms: C17_22  and  C18_23 
ROOT
HETATM    1  O1  UNK     1      17.730   4.334  32.687  1.00  0.00    -0.272 OA
HETATM    2  N3  UNK     1      17.922   6.400  31.587  1.00  0.00    -0.327 N 
HETATM    3  C15 UNK     1      18.204   5.058  31.817  1.00  0.00     0.231 C 
HETATM    4  H10 UNK     1      18.418   6.861  30.828  1.00  0.00     0.169 HD
ENDROOT
BRANCH   2   5
HETATM    5  C4  UNK     1      17.012   7.222  32.294  1.00  0.00     0.034 A 
HETATM    6  C10 UNK     1      15.652   6.997  32.163  1.00  0.00     0.030 A 
HETATM    7  C12 UNK     1      14.755   7.806  32.861  1.00  0.00     0.013 A 
HETATM    8  C6  UNK     1      15.232   8.829  33.681  1.00  0.00    -0.036 A 
HETATM    9  C11 UNK     1      16.604   9.042  33.803  1.00  0.00     0.013 A 
HETATM   10  C9  UNK     1      17.501   8.233  33.105  1.00  0.00     0.030 A 
BRANCH   8  11
HETATM   11  C16 UNK     1      14.296   9.672  34.409  1.00  0.00     0.012 C 
HETATM   12  C18 UNK     1      14.628  10.521  35.410  1.00  0.00     0.012 C 
BRANCH  12  13
HETATM   13  C17 UNK     1      13.685  11.391  36.134  1.00  0.00    -0.036 A 
HETATM   14  C19 UNK     1      13.729  11.434  37.519  1.00  0.00     0.011 A 
HETATM   15  C21 UNK     1      12.836  12.258  38.205  1.00  0.00     0.001 A 
HETATM   16  C23 UNK     1      11.912  13.027  37.497  1.00  0.00     0.000 A 
HETATM   17  C22 UNK     1      11.881  12.973  36.104  1.00  0.00     0.001 A 
HETATM   18  C20 UNK     1      12.774  12.150  35.418  1.00  0.00     0.011 A 
ENDBRANCH  12  13
ENDBRANCH   8  11
ENDBRANCH   2   5
BRANCH   3  19
HETATM   19  C8  UNK     1      19.236   4.523  30.849  1.00  0.00     0.185 C 
BRANCH  19  20
HETATM   20  S1  UNK     1      18.396   3.502  29.602  1.00  0.00    -0.083 SA
BRANCH  20  21
HETATM   21  C3  UNK     1      18.912   1.921  30.050  1.00  0.00     0.168 A 
HETATM   22  N1  UNK     1      19.610   1.143  29.169  1.00  0.00    -0.333 N 
HETATM   23  C1  UNK     1      19.885  -0.050  29.790  1.00  0.00     0.063 A 
HETATM   24  H1  UNK     1      19.876   1.400  28.228  1.00  0.00     0.168 HD
HETATM   25  C2  UNK     1      19.319   0.081  31.054  1.00  0.00     0.086 A 
HETATM   26  C5  UNK     1      20.560  -1.195  29.366  1.00  0.00     0.032 A 
HETATM   27  N2  UNK     1      18.718   1.311  31.198  1.00  0.00    -0.223 NA
HETATM   28  C7  UNK     1      19.422  -0.985  31.964  1.00  0.00     0.034 A 
HETATM   29  C14 UNK     1      20.095  -2.145  31.561  1.00  0.00     0.002 A 
HETATM   30  C13 UNK     1      20.653  -2.245  30.284  1.00  0.00     0.002 A 
ENDBRANCH  20  21
ENDBRANCH  19  20
ENDBRANCH   3  19
TORSDOF 6
ENDMDL
MODEL 7
REMARK VINA RESULT:      -8.4      4.942     10.952
REMARK  6 active torsions:
REMARK  status: ('A' for Active; 'I' for Inactive)
REMARK    1  A    between atoms: C3_8  and  S1_1 
REMARK    2  A    between atoms: C8_13  and  S1_1 
REMARK       I    between atoms: C15_20  and  N3_5 
REMARK    3  A    between atoms: C4_9  and  N3_5 
REMARK    4  A    between atoms: C16_21  and  C6_11 
REMARK    5  A    between atoms: C15_20  and  C8_13 
REMARK    6  A    between atoms: C17_22  and  C18_23 
ROOT
HETATM    1  O1  UNK     1      15.064   7.884  31.870  1.00  0.00    -0.272 OA
HETATM    2  N3  UNK     1      17.318   7.840  32.528  1.00  0.00    -0.327 N 
HETATM    3  C15 UNK     1      16.038   8.375  32.433  1.00  0.00     0.231 C 
HETATM    4  H10 UNK     1      18.020   8.388  33.020  1.00  0.00     0.169 HD
ENDROOT
BRANCH   2   5
HETATM    5  C4  UNK     1      17.776   6.604  32.014  1.00  0.00     0.034 A 
HETATM    6  C10 UNK     1      18.440   6.579  30.799  1.00  0.00     0.030 A 
HETATM    7  C12 UNK     1      18.893   5.361  30.293  1.00  0.00     0.013 A 
HETATM    8  C6  UNK     1      18.676   4.184  31.010  1.00  0.00    -0.036 A 
HETATM    9  C11 UNK     1      18.006   4.226  32.233  1.00  0.00     0.013 A 
HETATM   10  C9  UNK     1      17.552   5.444  32.739  1.00  0.00     0.030 A 
BRANCH   8  11
HETATM   11  C16 UNK     1      19.149   2.913  30.483  1.00  0.00     0.012 C 
HETATM   12  C18 UNK     1      19.060   1.722  31.121  1.00  0.00     0.012 C 
BRANCH  12  13
HETATM   13  C17 UNK     1      19.521   0.432  30.580  1.00  0.00    -0.036 A 
HETATM   14  C19 UNK     1      19.849   0.339  29.237  1.00  0.00     0.011 A 
HETATM   15  C21 UNK     1      20.285  -0.884  28.724  1.00  0.00     0.001 A 
HETATM   16  C23 UNK     1      20.387  -1.995  29.561  1.00  0.00     0.000 A 
HETATM   17  C22 UNK     1      20.054  -1.884  30.910  1.00  0.00     0.001 A 
HETATM   18  C20 UNK     1      19.617  -0.663  31.423  1.00  0.00     0.011 A 
ENDBRANCH  12  13
ENDBRANCH   8  11
ENDBRANCH   2   5
BRANCH   3  19
HETATM   19  C8  UNK     1      15.936   9.724  33.111  1.00  0.00     0.185 C 
BRANCH  19  20
HETATM   20  S1  UNK     1      17.452  10.013  34.070  1.00  0.00    -0.083 SA
BRANCH  20  21
HETATM   21  C3  UNK     1      17.462  11.732  34.183  1.00  0.00     0.168 A 
HETATM   22  N1  UNK     1      18.543  12.450  33.755  1.00  0.00    -0.333 N 
HETATM   23  C1  UNK     1      18.274  13.779  33.965  1.00  0.00     0.063 A 
HETATM   24  H1  UNK     1      19.390  12.070  33.354  1.00  0.00     0.168 HD
HETATM   25  C2  UNK     1      17.001  13.788  34.528  1.00  0.00     0.086 A 
HETATM   26  C5  UNK     1      19.012  14.937  33.718  1.00  0.00     0.032 A 
HETATM   27  N2  UNK     1      16.512  12.508  34.657  1.00  0.00    -0.223 NA
HETATM   28  C7  UNK     1      16.413  15.018  34.872  1.00  0.00     0.034 A 
HETATM   29  C14 UNK     1      17.136  16.194  34.634  1.00  0.00     0.002 A 
HETATM   30  C13 UNK     1      18.412  16.151  34.066  1.00  0.00     0.002 A 
ENDBRANCH  20  21
ENDBRANCH  19  20
ENDBRANCH   3  19
TORSDOF 6
ENDMDL
MODEL 8
REMARK VINA RESULT:      -8.4     24.365     26.312
REMARK  6 active torsions:
REMARK  status: ('A' for Active; 'I' for Inactive)
REMARK    1  A    between atoms: C3_8  and  S1_1 
REMARK    2  A    between atoms: C8_13  and  S1_1 
REMARK       I    between atoms: C15_20  and  N3_5 
REMARK    3  A    between atoms: C4_9  and  N3_5 
REMARK    4  A    between atoms: C16_21  and  C6_11 
REMARK    5  A    between atoms: C15_20  and  C8_13 
REMARK    6  A    between atoms: C17_22  and  C18_23 
ROOT
HETATM    1  O1  UNK     1      17.973  12.384  10.890  1.00  0.00    -0.272 OA
HETATM    2  N3  UNK     1      18.377  10.489   9.563  1.00  0.00    -0.327 N 
HETATM    3  C15 UNK     1      18.727  11.610  10.307  1.00  0.00     0.231 C 
HETATM    4  H10 UNK     1      19.129   9.960   9.128  1.00  0.00     0.169 HD
ENDROOT
BRANCH   2   5
HETATM    5  C4  UNK     1      17.076   9.981   9.330  1.00  0.00     0.034 A 
HETATM    6  C10 UNK     1      16.212  10.683   8.506  1.00  0.00     0.030 A 
HETATM    7  C12 UNK     1      14.931  10.182   8.274  1.00  0.00     0.013 A 
HETATM    8  C6  UNK     1      14.533   8.984   8.870  1.00  0.00    -0.036 A 
HETATM    9  C11 UNK     1      15.416   8.289   9.696  1.00  0.00     0.013 A 
HETATM   10  C9  UNK     1      16.697   8.790   9.928  1.00  0.00     0.030 A 
BRANCH   8  11
HETATM   11  C16 UNK     1      13.197   8.461   8.628  1.00  0.00     0.012 C 
HETATM   12  C18 UNK     1      12.848   7.665   7.589  1.00  0.00     0.012 C 
BRANCH  12  13
HETATM   13  C17 UNK     1      11.500   7.118   7.354  1.00  0.00    -0.036 A 
HETATM   14  C19 UNK     1      11.174   6.635   6.097  1.00  0.00     0.011 A 
HETATM   15  C21 UNK     1       9.897   6.118   5.874  1.00  0.00     0.001 A 
HETATM   16  C23 UNK     1       8.966   6.089   6.912  1.00  0.00     0.000 A 
HETATM   17  C22 UNK     1       9.310   6.578   8.172  1.00  0.00     0.001 A 
HETATM   18  C20 UNK     1      10.585   7.096   8.394  1.00  0.00     0.011 A 
ENDBRANCH  12  13
ENDBRANCH   8  11
ENDBRANCH   2   5
BRANCH   3  19
HETATM   19  C8  UNK     1      20.223  11.832  10.327  1.00  0.00     0.185 C 
BRANCH  19  20
HETATM   20  S1  UNK     1      20.610  13.108  11.562  1.00  0.00    -0.083 SA
BRANCH  20  21
HETATM   21  C3  UNK     1      22.325  12.982  11.659  1.00  0.00     0.168 A 
HETATM   22  N1  UNK     1      22.991  12.020  10.952  1.00  0.00    -0.333 N 
HETATM   23  C1  UNK     1      24.330  12.156  11.220  1.00  0.00     0.063 A 
HETATM   24  H1  UNK     1      22.573  11.332  10.341  1.00  0.00     0.168 HD
HETATM   25  C2  UNK     1      24.399  13.229  12.104  1.00  0.00     0.086 A 
HETATM   26  C5  UNK     1      25.452  11.453  10.779  1.00  0.00     0.032 A 
HETATM   27  N2  UNK     1      23.144  13.729  12.366  1.00  0.00    -0.223 NA
HETATM   28  C7  UNK     1      25.653  13.640  12.587  1.00  0.00     0.034 A 
HETATM   29  C14 UNK     1      26.793  12.949  12.157  1.00  0.00     0.002 A 
HETATM   30  C13 UNK     1      26.691  11.875  11.269  1.00  0.00     0.002 A 
ENDBRANCH  20  21
ENDBRANCH  19  20
ENDBRANCH   3  19
TORSDOF 6
ENDMDL
MODEL 9
REMARK VINA RESULT:      -8.4     24.240     26.248
REMARK  6 active torsions:
REMARK  status: ('A' for Active; 'I' for Inactive)
REMARK    1  A    between atoms: C3_8  and  S1_1 
REMARK    2  A    between atoms: C8_13  and  S1_1 
REMARK       I    between atoms: C15_20  and  N3_5 
REMARK    3  A    between atoms: C4_9  and  N3_5 
REMARK    4  A    between atoms: C16_21  and  C6_11 
REMARK    5  A    between atoms: C15_20  and  C8_13 
REMARK    6  A    between atoms: C17_22  and  C18_23 
ROOT
HETATM    1  O1  UNK     1      17.923  12.304  11.080  1.00  0.00    -0.272 OA
HETATM    2  N3  UNK     1      18.346  10.525   9.607  1.00  0.00    -0.327 N 
HETATM    3  C15 UNK     1      18.683  11.601  10.421  1.00  0.00     0.231 C 
HETATM    4  H10 UNK     1      19.102  10.055   9.113  1.00  0.00     0.169 HD
ENDROOT
BRANCH   2   5
HETATM    5  C4  UNK     1      17.056   9.991   9.373  1.00  0.00     0.034 A 
HETATM    6  C10 UNK     1      16.683   8.818  10.008  1.00  0.00     0.030 A 
HETATM    7  C12 UNK     1      15.411   8.293   9.780  1.00  0.00     0.013 A 
HETATM    8  C6  UNK     1      14.530   8.950   8.920  1.00  0.00    -0.036 A 
HETATM    9  C11 UNK     1      14.921  10.130   8.290  1.00  0.00     0.013 A 
HETATM   10  C9  UNK     1      16.193  10.655   8.518  1.00  0.00     0.030 A 
BRANCH   8  11
HETATM   11  C16 UNK     1      13.203   8.402   8.682  1.00  0.00     0.012 C 
HETATM   12  C18 UNK     1      12.833   7.705   7.582  1.00  0.00     0.012 C 
BRANCH  12  13
HETATM   13  C17 UNK     1      11.495   7.133   7.349  1.00  0.00    -0.036 A 
HETATM   14  C19 UNK     1      10.593   7.071   8.399  1.00  0.00     0.011 A 
HETATM   15  C21 UNK     1       9.326   6.529   8.178  1.00  0.00     0.001 A 
HETATM   16  C23 UNK     1       8.980   6.057   6.912  1.00  0.00     0.000 A 
HETATM   17  C22 UNK     1       9.899   6.128   5.866  1.00  0.00     0.001 A 
HETATM   18  C20 UNK     1      11.166   6.669   6.086  1.00  0.00     0.011 A 
ENDBRANCH  12  13
ENDBRANCH   8  11
ENDBRANCH   2   5
BRANCH   3  19
HETATM   19  C8  UNK     1      20.171  11.872  10.415  1.00  0.00     0.185 C 
BRANCH  19  20
HETATM   20  S1  UNK     1      20.572  12.974  11.803  1.00  0.00    -0.083 SA
BRANCH  20  21
HETATM   21  C3  UNK     1      22.292  12.888  11.823  1.00  0.00     0.168 A 
HETATM   22  N1  UNK     1      22.948  11.941  11.089  1.00  0.00    -0.333 N 
HETATM   23  C1  UNK     1      24.294  12.109  11.296  1.00  0.00     0.063 A 
HETATM   24  H1  UNK     1      22.519  11.241  10.499  1.00  0.00     0.168 HD
HETATM   25  C2  UNK     1      24.377  13.186  12.173  1.00  0.00     0.086 A 
HETATM   26  C5  UNK     1      25.411  11.432  10.805  1.00  0.00     0.032 A 
HETATM   27  N2  UNK     1      23.124  13.657  12.490  1.00  0.00    -0.223 NA
HETATM   28  C7  UNK     1      25.642  13.628  12.598  1.00  0.00     0.034 A 
HETATM   29  C14 UNK     1      26.778  12.963  12.119  1.00  0.00     0.002 A 
HETATM   30  C13 UNK     1      26.661  11.885  11.238  1.00  0.00     0.002 A 
ENDBRANCH  20  21
ENDBRANCH  19  20
ENDBRANCH   3  19
TORSDOF 6
ENDMDL
MODEL 10
REMARK VINA RESULT:      -8.3      1.680      2.341
REMARK  6 active torsions:
REMARK  status: ('A' for Active; 'I' for Inactive)
REMARK    1  A    between atoms: C3_8  and  S1_1 
REMARK    2  A    between atoms: C8_13  and  S1_1 
REMARK       I    between atoms: C15_20  and  N3_5 
REMARK    3  A    between atoms: C4_9  and  N3_5 
REMARK    4  A    between atoms: C16_21  and  C6_11 
REMARK    5  A    between atoms: C15_20  and  C8_13 
REMARK    6  A    between atoms: C17_22  and  C18_23 
ROOT
HETATM    1  O1  UNK     1      17.768   1.645  29.781  1.00  0.00    -0.272 OA
HETATM    2  N3  UNK     1      19.476   2.870  30.829  1.00  0.00    -0.327 N 
HETATM    3  C15 UNK     1      18.914   1.762  30.205  1.00  0.00     0.231 C 
HETATM    4  H10 UNK     1      20.443   2.796  31.137  1.00  0.00     0.169 HD
ENDROOT
BRANCH   2   5
HETATM    5  C4  UNK     1      18.857   4.115  31.096  1.00  0.00     0.034 A 
HETATM    6  C10 UNK     1      19.068   5.176  30.231  1.00  0.00     0.030 A 
HETATM    7  C12 UNK     1      18.457   6.402  30.492  1.00  0.00     0.013 A 
HETATM    8  C6  UNK     1      17.642   6.549  31.616  1.00  0.00    -0.036 A 
HETATM    9  C11 UNK     1      17.439   5.471  32.476  1.00  0.00     0.013 A 
HETATM   10  C9  UNK     1      18.051   4.245  32.215  1.00  0.00     0.030 A 
BRANCH   8  11
HETATM   11  C16 UNK     1      17.004   7.828  31.888  1.00  0.00     0.012 C 
HETATM   12  C18 UNK     1      16.483   8.201  33.081  1.00  0.00     0.012 C 
BRANCH  12  13
HETATM   13  C17 UNK     1      15.855   9.504  33.363  1.00  0.00    -0.036 A 
HETATM   14  C19 UNK     1      16.594  10.488  34.000  1.00  0.00     0.011 A 
HETATM   15  C21 UNK     1      15.999  11.722  34.268  1.00  0.00     0.001 A 
HETATM   16  C23 UNK     1      14.675  11.954  33.894  1.00  0.00     0.000 A 
HETATM   17  C22 UNK     1      13.946  10.953  33.253  1.00  0.00     0.001 A 
HETATM   18  C20 UNK     1      14.540   9.720  32.986  1.00  0.00     0.011 A 
ENDBRANCH  12  13
ENDBRANCH   8  11
ENDBRANCH   2   5
BRANCH   3  19
HETATM   19  C8  UNK     1      19.894   0.614  30.100  1.00  0.00     0.185 C 
BRANCH  19  20
HETATM   20  S1  UNK     1      19.116  -0.884  30.774  1.00  0.00    -0.083 SA
BRANCH  20  21
HETATM   21  C3  UNK     1      18.809  -0.408  32.400  1.00  0.00     0.168 A 
HETATM   22  N1  UNK     1      18.650  -1.347  33.380  1.00  0.00    -0.333 N 
HETATM   23  C1  UNK     1      18.420  -0.686  34.561  1.00  0.00     0.063 A 
HETATM   24  H1  UNK     1      18.695  -2.350  33.258  1.00  0.00     0.168 HD
HETATM   25  C2  UNK     1      18.455   0.661  34.214  1.00  0.00     0.086 A 
HETATM   26  C5  UNK     1      18.193  -1.138  35.861  1.00  0.00     0.032 A 
HETATM   27  N2  UNK     1      18.697   0.815  32.868  1.00  0.00    -0.223 NA
HETATM   28  C7  UNK     1      18.252   1.631  35.212  1.00  0.00     0.034 A 
HETATM   29  C14 UNK     1      18.021   1.200  36.524  1.00  0.00     0.002 A 
HETATM   30  C13 UNK     1      17.993  -0.161  36.840  1.00  0.00     0.002 A 
ENDBRANCH  20  21
ENDBRANCH  19  20
ENDBRANCH   3  19
TORSDOF 6
ENDMDL
