MODEL 1
REMARK VINA RESULT:      -9.3      0.000      0.000
REMARK  9 active torsions:
REMARK  status: ('A' for Active; 'I' for Inactive)
REMARK    1  A    between atoms: C3_12  and  O1_2 
REMARK    2  A    between atoms: C6_15  and  O1_2 
REMARK    3  A    between atoms: C13_22  and  O3_4 
REMARK    4  A    between atoms: C21_30  and  O3_4 
REMARK       I    between atoms: C19_28  and  N1_8 
REMARK    5  A    between atoms: N1_8  and  N2_9 
REMARK       I    between atoms: C22_31  and  N2_9 
REMARK    6  A    between atoms: C1_10  and  C2_11 
REMARK    7  A    between atoms: C1_10  and  C3_12 
REMARK    8  A    between atoms: C19_28  and  C9_18 
REMARK    9  A    between atoms: C21_30  and  C22_31 
ROOT
HETATM    1  O6  UNK     1      21.425  -2.118  35.319  1.00  0.00    -0.269 OA
HETATM    2  N2  UNK     1      19.319  -1.417  36.003  1.00  0.00    -0.265 N 
HETATM    3  C22 UNK     1      20.450  -2.209  36.060  1.00  0.00     0.260 C 
HETATM    4  H21 UNK     1      18.524  -1.516  36.626  1.00  0.00     0.190 HD
ENDROOT
BRANCH   2   5
HETATM    5  N1  UNK     1      19.241  -0.433  35.049  1.00  0.00    -0.263 N 
HETATM    6  C19 UNK     1      18.250   0.522  35.150  1.00  0.00     0.276 C 
HETATM    7  O5  UNK     1      17.395   0.595  36.029  1.00  0.00    -0.266 OA
HETATM    8  H20 UNK     1      19.919  -0.487  34.297  1.00  0.00     0.190 HD
BRANCH   6   9
HETATM    9  C9  UNK     1      18.298   1.503  34.058  1.00  0.00     0.110 A 
HETATM   10  C15 UNK     1      18.416   1.094  32.641  1.00  0.00     0.304 A 
HETATM   11  O2  UNK     1      18.453   2.116  31.696  1.00  0.00    -0.274 OA
HETATM   12  O4  UNK     1      18.478  -0.085  32.308  1.00  0.00    -0.259 OA
HETATM   13  C7  UNK     1      18.382   3.473  32.067  1.00  0.00     0.089 A 
HETATM   14  C14 UNK     1      18.425   4.425  31.050  1.00  0.00     0.039 A 
HETATM   15  C5  UNK     1      18.272   3.836  33.405  1.00  0.00     0.000 A 
HETATM   16  C20 UNK     1      18.358   5.776  31.386  1.00  0.00     0.022 A 
HETATM   17  C18 UNK     1      18.247   6.159  32.725  1.00  0.00     0.011 A 
HETATM   18 Br1  UNK     1      18.156   7.993  33.173  1.00  0.00    -0.051 Br
HETATM   19  C10 UNK     1      18.204   5.192  33.734  1.00  0.00     0.033 A 
HETATM   20  C8  UNK     1      18.231   2.790  34.416  1.00  0.00     0.037 A 
ENDBRANCH   6   9
ENDBRANCH   2   5
BRANCH   3  21
HETATM   21  C21 UNK     1      20.357  -3.232  37.170  1.00  0.00     0.280 C 
BRANCH  21  22
HETATM   22  O3  UNK     1      20.982  -4.439  36.789  1.00  0.00    -0.342 OA
BRANCH  22  23
HETATM   23  C13 UNK     1      20.412  -5.609  37.232  1.00  0.00     0.069 A 
HETATM   24  C16 UNK     1      20.896  -6.229  38.383  1.00  0.00     0.039 A 
HETATM   25  C11 UNK     1      20.317  -7.416  38.833  1.00  0.00     0.039 A 
HETATM   26  C6  UNK     1      19.254  -7.984  38.131  1.00  0.00     0.068 A 
HETATM   27  C12 UNK     1      18.770  -7.363  36.978  1.00  0.00     0.039 A 
HETATM   28  C17 UNK     1      19.348  -6.176  36.529  1.00  0.00     0.039 A 
BRANCH  26  29
HETATM   29  O1  UNK     1      18.690  -9.141  38.569  1.00  0.00    -0.351 OA
BRANCH  29  30
HETATM   30  C3  UNK     1      19.543 -10.281  38.671  1.00  0.00     0.175 C 
BRANCH  30  31
HETATM   31  C1  UNK     1      19.747 -10.868  37.281  1.00  0.00     0.026 C 
BRANCH  31  32
HETATM   32  C2  UNK     1      21.213 -10.825  36.862  1.00  0.00    -0.002 C 
HETATM   33  C4  UNK     1      21.446  -9.815  35.750  1.00  0.00     0.005 C 
ENDBRANCH  31  32
ENDBRANCH  30  31
ENDBRANCH  29  30
ENDBRANCH  26  29
ENDBRANCH  22  23
ENDBRANCH  21  22
ENDBRANCH   3  21
TORSDOF 9
ENDMDL
MODEL 2
REMARK VINA RESULT:      -8.5      4.036     12.021
REMARK  9 active torsions:
REMARK  status: ('A' for Active; 'I' for Inactive)
REMARK    1  A    between atoms: C3_12  and  O1_2 
REMARK    2  A    between atoms: C6_15  and  O1_2 
REMARK    3  A    between atoms: C13_22  and  O3_4 
REMARK    4  A    between atoms: C21_30  and  O3_4 
REMARK       I    between atoms: C19_28  and  N1_8 
REMARK    5  A    between atoms: N1_8  and  N2_9 
REMARK       I    between atoms: C22_31  and  N2_9 
REMARK    6  A    between atoms: C1_10  and  C2_11 
REMARK    7  A    between atoms: C1_10  and  C3_12 
REMARK    8  A    between atoms: C19_28  and  C9_18 
REMARK    9  A    between atoms: C21_30  and  C22_31 
ROOT
HETATM    1  O6  UNK     1      19.326  -2.265  38.264  1.00  0.00    -0.269 OA
HETATM    2  N2  UNK     1      18.379  -2.925  36.248  1.00  0.00    -0.265 N 
HETATM    3  C22 UNK     1      18.803  -2.001  37.185  1.00  0.00     0.260 C 
HETATM    4  H21 UNK     1      17.944  -2.680  35.365  1.00  0.00     0.190 HD
ENDROOT
BRANCH   2   5
HETATM    5  N1  UNK     1      18.542  -4.263  36.511  1.00  0.00    -0.263 N 
HETATM    6  C19 UNK     1      19.527  -4.961  35.844  1.00  0.00     0.276 C 
HETATM    7  O5  UNK     1      20.305  -4.506  35.009  1.00  0.00    -0.266 OA
HETATM    8  H20 UNK     1      17.894  -4.669  37.176  1.00  0.00     0.190 HD
BRANCH   6   9
HETATM    9  C9  UNK     1      19.577  -6.377  36.231  1.00  0.00     0.110 A 
HETATM   10  C15 UNK     1      18.453  -7.037  36.933  1.00  0.00     0.304 A 
HETATM   11  O2  UNK     1      18.619  -8.384  37.249  1.00  0.00    -0.274 OA
HETATM   12  O4  UNK     1      17.426  -6.435  37.224  1.00  0.00    -0.259 OA
HETATM   13  C7  UNK     1      19.795  -9.085  36.918  1.00  0.00     0.089 A 
HETATM   14  C14 UNK     1      19.867 -10.430  37.275  1.00  0.00     0.039 A 
HETATM   15  C5  UNK     1      20.839  -8.445  36.259  1.00  0.00     0.000 A 
HETATM   16  C20 UNK     1      21.018 -11.151  36.962  1.00  0.00     0.022 A 
HETATM   17  C18 UNK     1      22.077 -10.524  36.300  1.00  0.00     0.011 A 
HETATM   18 Br1  UNK     1      23.636 -11.507  35.879  1.00  0.00    -0.051 Br
HETATM   19  C10 UNK     1      21.989  -9.174  35.948  1.00  0.00     0.033 A 
HETATM   20  C8  UNK     1      20.695  -7.038  35.916  1.00  0.00     0.037 A 
ENDBRANCH   6   9
ENDBRANCH   2   5
BRANCH   3  21
HETATM   21  C21 UNK     1      18.544  -0.584  36.724  1.00  0.00     0.280 C 
BRANCH  21  22
HETATM   22  O3  UNK     1      18.678  -0.483  35.322  1.00  0.00    -0.342 OA
BRANCH  22  23
HETATM   23  C13 UNK     1      18.539   0.766  34.766  1.00  0.00     0.069 A 
HETATM   24  C16 UNK     1      18.566   1.899  35.579  1.00  0.00     0.039 A 
HETATM   25  C11 UNK     1      18.426   3.166  35.015  1.00  0.00     0.039 A 
HETATM   26  C6  UNK     1      18.258   3.302  33.637  1.00  0.00     0.068 A 
HETATM   27  C12 UNK     1      18.230   2.169  32.823  1.00  0.00     0.039 A 
HETATM   28  C17 UNK     1      18.372   0.901  33.387  1.00  0.00     0.039 A 
BRANCH  26  29
HETATM   29  O1  UNK     1      18.120   4.538  33.087  1.00  0.00    -0.351 OA
BRANCH  29  30
HETATM   30  C3  UNK     1      18.916   5.587  33.639  1.00  0.00     0.175 C 
BRANCH  30  31
HETATM   31  C1  UNK     1      19.865   6.101  32.564  1.00  0.00     0.026 C 
BRANCH  31  32
HETATM   32  C2  UNK     1      19.123   6.445  31.276  1.00  0.00    -0.002 C 
HETATM   33  C4  UNK     1      19.696   5.694  30.085  1.00  0.00     0.005 C 
ENDBRANCH  31  32
ENDBRANCH  30  31
ENDBRANCH  29  30
ENDBRANCH  26  29
ENDBRANCH  22  23
ENDBRANCH  21  22
ENDBRANCH   3  21
TORSDOF 9
ENDMDL
MODEL 3
REMARK VINA RESULT:      -8.5      4.157     12.124
REMARK  9 active torsions:
REMARK  status: ('A' for Active; 'I' for Inactive)
REMARK    1  A    between atoms: C3_12  and  O1_2 
REMARK    2  A    between atoms: C6_15  and  O1_2 
REMARK    3  A    between atoms: C13_22  and  O3_4 
REMARK    4  A    between atoms: C21_30  and  O3_4 
REMARK       I    between atoms: C19_28  and  N1_8 
REMARK    5  A    between atoms: N1_8  and  N2_9 
REMARK       I    between atoms: C22_31  and  N2_9 
REMARK    6  A    between atoms: C1_10  and  C2_11 
REMARK    7  A    between atoms: C1_10  and  C3_12 
REMARK    8  A    between atoms: C19_28  and  C9_18 
REMARK    9  A    between atoms: C21_30  and  C22_31 
ROOT
HETATM    1  O6  UNK     1      20.762  -2.991  35.816  1.00  0.00    -0.269 OA
HETATM    2  N2  UNK     1      18.870  -4.067  36.630  1.00  0.00    -0.265 N 
HETATM    3  C22 UNK     1      19.646  -2.963  36.330  1.00  0.00     0.260 C 
HETATM    4  H21 UNK     1      17.952  -4.016  37.060  1.00  0.00     0.190 HD
ENDROOT
BRANCH   2   5
HETATM    5  N1  UNK     1      19.352  -5.319  36.342  1.00  0.00    -0.263 N 
HETATM    6  C19 UNK     1      19.984  -6.039  37.336  1.00  0.00     0.276 C 
HETATM    7  O5  UNK     1      20.174  -5.672  38.493  1.00  0.00    -0.266 OA
HETATM    8  H20 UNK     1      19.233  -5.634  35.386  1.00  0.00     0.190 HD
BRANCH   6   9
HETATM    9  C9  UNK     1      20.442  -7.355  36.875  1.00  0.00     0.110 A 
HETATM   10  C15 UNK     1      19.520  -8.336  36.260  1.00  0.00     0.304 A 
HETATM   11  O2  UNK     1      20.072  -9.552  35.864  1.00  0.00    -0.274 OA
HETATM   12  O4  UNK     1      18.327  -8.096  36.104  1.00  0.00    -0.259 OA
HETATM   13  C7  UNK     1      21.441  -9.837  36.037  1.00  0.00     0.089 A 
HETATM   14  C14 UNK     1      21.902 -11.079  35.609  1.00  0.00     0.039 A 
HETATM   15  C5  UNK     1      22.291  -8.901  36.618  1.00  0.00     0.000 A 
HETATM   16  C20 UNK     1      23.251 -11.391  35.768  1.00  0.00     0.022 A 
HETATM   17  C18 UNK     1      24.119 -10.464  36.348  1.00  0.00     0.011 A 
HETATM   18 Br1  UNK     1      25.948 -10.893  36.561  1.00  0.00    -0.051 Br
HETATM   19  C10 UNK     1      23.642  -9.220  36.773  1.00  0.00     0.033 A 
HETATM   20  C8  UNK     1      21.742  -7.622  37.042  1.00  0.00     0.037 A 
ENDBRANCH   6   9
ENDBRANCH   2   5
BRANCH   3  21
HETATM   21  C21 UNK     1      18.953  -1.675  36.715  1.00  0.00     0.280 C 
BRANCH  21  22
HETATM   22  O3  UNK     1      18.074  -1.257  35.692  1.00  0.00    -0.342 OA
BRANCH  22  23
HETATM   23  C13 UNK     1      18.161   0.054  35.287  1.00  0.00     0.069 A 
HETATM   24  C16 UNK     1      18.326   1.067  36.231  1.00  0.00     0.039 A 
HETATM   25  C11 UNK     1      18.415   2.396  35.820  1.00  0.00     0.039 A 
HETATM   26  C6  UNK     1      18.337   2.714  34.464  1.00  0.00     0.068 A 
HETATM   27  C12 UNK     1      18.171   1.701  33.519  1.00  0.00     0.039 A 
HETATM   28  C17 UNK     1      18.084   0.371  33.930  1.00  0.00     0.039 A 
BRANCH  26  29
HETATM   29  O1  UNK     1      18.423   4.011  34.063  1.00  0.00    -0.351 OA
BRANCH  29  30
HETATM   30  C3  UNK     1      18.210   4.278  32.677  1.00  0.00     0.175 C 
BRANCH  30  31
HETATM   31  C1  UNK     1      17.908   5.760  32.503  1.00  0.00     0.026 C 
BRANCH  31  32
HETATM   32  C2  UNK     1      18.508   6.309  31.211  1.00  0.00    -0.002 C 
HETATM   33  C4  UNK     1      19.894   5.740  30.955  1.00  0.00     0.005 C 
ENDBRANCH  31  32
ENDBRANCH  30  31
ENDBRANCH  29  30
ENDBRANCH  26  29
ENDBRANCH  22  23
ENDBRANCH  21  22
ENDBRANCH   3  21
TORSDOF 9
ENDMDL
MODEL 4
REMARK VINA RESULT:      -8.5      9.197     12.165
REMARK  9 active torsions:
REMARK  status: ('A' for Active; 'I' for Inactive)
REMARK    1  A    between atoms: C3_12  and  O1_2 
REMARK    2  A    between atoms: C6_15  and  O1_2 
REMARK    3  A    between atoms: C13_22  and  O3_4 
REMARK    4  A    between atoms: C21_30  and  O3_4 
REMARK       I    between atoms: C19_28  and  N1_8 
REMARK    5  A    between atoms: N1_8  and  N2_9 
REMARK       I    between atoms: C22_31  and  N2_9 
REMARK    6  A    between atoms: C1_10  and  C2_11 
REMARK    7  A    between atoms: C1_10  and  C3_12 
REMARK    8  A    between atoms: C19_28  and  C9_18 
REMARK    9  A    between atoms: C21_30  and  C22_31 
ROOT
HETATM    1  O6  UNK     1      26.834  -4.438  39.000  1.00  0.00    -0.269 OA
HETATM    2  N2  UNK     1      27.357  -6.324  37.749  1.00  0.00    -0.265 N 
HETATM    3  C22 UNK     1      26.591  -5.583  38.629  1.00  0.00     0.260 C 
HETATM    4  H21 UNK     1      27.136  -7.272  37.461  1.00  0.00     0.190 HD
ENDROOT
BRANCH   2   5
HETATM    5  N1  UNK     1      28.495  -5.765  37.222  1.00  0.00    -0.263 N 
HETATM    6  C19 UNK     1      29.718  -6.335  37.513  1.00  0.00     0.276 C 
HETATM    7  O5  UNK     1      29.913  -7.322  38.218  1.00  0.00    -0.266 OA
HETATM    8  H20 UNK     1      28.364  -4.933  36.659  1.00  0.00     0.190 HD
BRANCH   6   9
HETATM    9  C9  UNK     1      30.836  -5.626  36.879  1.00  0.00     0.110 A 
HETATM   10  C15 UNK     1      31.060  -4.176  37.078  1.00  0.00     0.304 A 
HETATM   11  O2  UNK     1      32.154  -3.616  36.423  1.00  0.00    -0.274 OA
HETATM   12  O4  UNK     1      30.323  -3.497  37.784  1.00  0.00    -0.259 OA
HETATM   13  C7  UNK     1      33.008  -4.388  35.610  1.00  0.00     0.089 A 
HETATM   14  C14 UNK     1      34.077  -3.740  34.996  1.00  0.00     0.039 A 
HETATM   15  C5  UNK     1      32.779  -5.749  35.437  1.00  0.00     0.000 A 
HETATM   16  C20 UNK     1      34.938  -4.476  34.186  1.00  0.00     0.022 A 
HETATM   17  C18 UNK     1      34.725  -5.844  34.000  1.00  0.00     0.011 A 
HETATM   18 Br1  UNK     1      35.897  -6.838  32.899  1.00  0.00    -0.051 Br
HETATM   19  C10 UNK     1      33.648  -6.481  34.623  1.00  0.00     0.033 A 
HETATM   20  C8  UNK     1      31.643  -6.363  36.108  1.00  0.00     0.037 A 
ENDBRANCH   6   9
ENDBRANCH   2   5
BRANCH   3  21
HETATM   21  C21 UNK     1      25.381  -6.359  39.101  1.00  0.00     0.280 C 
BRANCH  21  22
HETATM   22  O3  UNK     1      24.196  -5.633  38.853  1.00  0.00    -0.342 OA
BRANCH  22  23
HETATM   23  C13 UNK     1      23.010  -6.327  38.909  1.00  0.00     0.069 A 
HETATM   24  C16 UNK     1      21.860  -5.790  38.331  1.00  0.00     0.039 A 
HETATM   25  C11 UNK     1      20.657  -6.494  38.386  1.00  0.00     0.039 A 
HETATM   26  C6  UNK     1      20.604  -7.736  39.020  1.00  0.00     0.068 A 
HETATM   27  C12 UNK     1      21.755  -8.273  39.599  1.00  0.00     0.039 A 
HETATM   28  C17 UNK     1      22.958  -7.569  39.542  1.00  0.00     0.039 A 
BRANCH  26  29
HETATM   29  O1  UNK     1      19.432  -8.423  39.075  1.00  0.00    -0.351 OA
BRANCH  29  30
HETATM   30  C3  UNK     1      19.506  -9.845  38.976  1.00  0.00     0.175 C 
BRANCH  30  31
HETATM   31  C1  UNK     1      19.439 -10.239  37.507  1.00  0.00     0.026 C 
BRANCH  31  32
HETATM   32  C2  UNK     1      20.752 -10.851  37.028  1.00  0.00    -0.002 C 
HETATM   33  C4  UNK     1      21.485  -9.923  36.073  1.00  0.00     0.005 C 
ENDBRANCH  31  32
ENDBRANCH  30  31
ENDBRANCH  29  30
ENDBRANCH  26  29
ENDBRANCH  22  23
ENDBRANCH  21  22
ENDBRANCH   3  21
TORSDOF 9
ENDMDL
MODEL 5
REMARK VINA RESULT:      -8.4      1.192      1.604
REMARK  9 active torsions:
REMARK  status: ('A' for Active; 'I' for Inactive)
REMARK    1  A    between atoms: C3_12  and  O1_2 
REMARK    2  A    between atoms: C6_15  and  O1_2 
REMARK    3  A    between atoms: C13_22  and  O3_4 
REMARK    4  A    between atoms: C21_30  and  O3_4 
REMARK       I    between atoms: C19_28  and  N1_8 
REMARK    5  A    between atoms: N1_8  and  N2_9 
REMARK       I    between atoms: C22_31  and  N2_9 
REMARK    6  A    between atoms: C1_10  and  C2_11 
REMARK    7  A    between atoms: C1_10  and  C3_12 
REMARK    8  A    between atoms: C19_28  and  C9_18 
REMARK    9  A    between atoms: C21_30  and  C22_31 
ROOT
HETATM    1  O6  UNK     1      19.022  -0.177  36.766  1.00  0.00    -0.269 OA
HETATM    2  N2  UNK     1      18.884  -1.332  34.755  1.00  0.00    -0.265 N 
HETATM    3  C22 UNK     1      18.902  -1.223  36.133  1.00  0.00     0.260 C 
HETATM    4  H21 UNK     1      18.789  -2.211  34.257  1.00  0.00     0.190 HD
ENDROOT
BRANCH   2   5
HETATM    5  N1  UNK     1      19.005  -0.196  33.994  1.00  0.00    -0.263 N 
HETATM    6  C19 UNK     1      17.895   0.599  33.797  1.00  0.00     0.276 C 
HETATM    7  O5  UNK     1      16.767   0.400  34.240  1.00  0.00    -0.266 OA
HETATM    8  H20 UNK     1      19.920  -0.023  33.594  1.00  0.00     0.190 HD
BRANCH   6   9
HETATM    9  C9  UNK     1      18.184   1.774  32.964  1.00  0.00     0.110 A 
HETATM   10  C15 UNK     1      18.610   1.649  31.552  1.00  0.00     0.304 A 
HETATM   11  O2  UNK     1      18.856   2.836  30.866  1.00  0.00    -0.274 OA
HETATM   12  O4  UNK     1      18.741   0.558  31.008  1.00  0.00    -0.259 OA
HETATM   13  C7  UNK     1      18.707   4.094  31.481  1.00  0.00     0.089 A 
HETATM   14  C14 UNK     1      18.975   5.225  30.714  1.00  0.00     0.039 A 
HETATM   15  C5  UNK     1      18.306   4.189  32.810  1.00  0.00     0.000 A 
HETATM   16  C20 UNK     1      18.838   6.484  31.295  1.00  0.00     0.022 A 
HETATM   17  C18 UNK     1      18.436   6.599  32.627  1.00  0.00     0.011 A 
HETATM   18 Br1  UNK     1      18.252   8.310  33.410  1.00  0.00    -0.051 Br
HETATM   19  C10 UNK     1      18.170   5.455  33.385  1.00  0.00     0.033 A 
HETATM   20  C8  UNK     1      18.042   2.967  33.553  1.00  0.00     0.037 A 
ENDBRANCH   6   9
ENDBRANCH   2   5
BRANCH   3  21
HETATM   21  C21 UNK     1      18.756  -2.573  36.800  1.00  0.00     0.280 C 
BRANCH  21  22
HETATM   22  O3  UNK     1      19.691  -3.491  36.277  1.00  0.00    -0.342 OA
BRANCH  22  23
HETATM   23  C13 UNK     1      19.755  -4.730  36.870  1.00  0.00     0.069 A 
HETATM   24  C16 UNK     1      18.731  -5.655  36.666  1.00  0.00     0.039 A 
HETATM   25  C11 UNK     1      18.796  -6.911  37.267  1.00  0.00     0.039 A 
HETATM   26  C6  UNK     1      19.884  -7.244  38.074  1.00  0.00     0.068 A 
HETATM   27  C12 UNK     1      20.908  -6.318  38.279  1.00  0.00     0.039 A 
HETATM   28  C17 UNK     1      20.844  -5.062  37.676  1.00  0.00     0.039 A 
BRANCH  26  29
HETATM   29  O1  UNK     1      19.947  -8.469  38.661  1.00  0.00    -0.351 OA
BRANCH  29  30
HETATM   30  C3  UNK     1      21.169  -9.194  38.522  1.00  0.00     0.175 C 
BRANCH  30  31
HETATM   31  C1  UNK     1      20.990 -10.255  37.444  1.00  0.00     0.026 C 
BRANCH  31  32
HETATM   32  C2  UNK     1      21.699  -9.868  36.150  1.00  0.00    -0.002 C 
HETATM   33  C4  UNK     1      22.289 -11.083  35.453  1.00  0.00     0.005 C 
ENDBRANCH  31  32
ENDBRANCH  30  31
ENDBRANCH  29  30
ENDBRANCH  26  29
ENDBRANCH  22  23
ENDBRANCH  21  22
ENDBRANCH   3  21
TORSDOF 9
ENDMDL
MODEL 6
REMARK VINA RESULT:      -8.4      4.229     11.006
REMARK  9 active torsions:
REMARK  status: ('A' for Active; 'I' for Inactive)
REMARK    1  A    between atoms: C3_12  and  O1_2 
REMARK    2  A    between atoms: C6_15  and  O1_2 
REMARK    3  A    between atoms: C13_22  and  O3_4 
REMARK    4  A    between atoms: C21_30  and  O3_4 
REMARK       I    between atoms: C19_28  and  N1_8 
REMARK    5  A    between atoms: N1_8  and  N2_9 
REMARK       I    between atoms: C22_31  and  N2_9 
REMARK    6  A    between atoms: C1_10  and  C2_11 
REMARK    7  A    between atoms: C1_10  and  C3_12 
REMARK    8  A    between atoms: C19_28  and  C9_18 
REMARK    9  A    between atoms: C21_30  and  C22_31 
ROOT
HETATM    1  O6  UNK     1      17.265  -2.594  36.811  1.00  0.00    -0.269 OA
HETATM    2  N2  UNK     1      19.528  -2.728  37.319  1.00  0.00    -0.265 N 
HETATM    3  C22 UNK     1      18.351  -2.064  37.027  1.00  0.00     0.260 C 
HETATM    4  H21 UNK     1      20.414  -2.265  37.489  1.00  0.00     0.190 HD
ENDROOT
BRANCH   2   5
HETATM    5  N1  UNK     1      19.521  -4.099  37.382  1.00  0.00    -0.263 N 
HETATM    6  C19 UNK     1      19.863  -4.824  36.259  1.00  0.00     0.276 C 
HETATM    7  O5  UNK     1      20.184  -4.365  35.165  1.00  0.00    -0.266 OA
HETATM    8  H20 UNK     1      19.233  -4.504  38.266  1.00  0.00     0.190 HD
BRANCH   6   9
HETATM    9  C9  UNK     1      19.809  -6.274  36.484  1.00  0.00     0.110 A 
HETATM   10  C15 UNK     1      18.595  -6.942  37.003  1.00  0.00     0.304 A 
HETATM   11  O2  UNK     1      18.666  -8.322  37.177  1.00  0.00    -0.274 OA
HETATM   12  O4  UNK     1      17.573  -6.317  37.270  1.00  0.00    -0.259 OA
HETATM   13  C7  UNK     1      19.834  -9.050  36.873  1.00  0.00     0.089 A 
HETATM   14  C14 UNK     1      19.809 -10.427  37.078  1.00  0.00     0.039 A 
HETATM   15  C5  UNK     1      20.964  -8.401  36.386  1.00  0.00     0.000 A 
HETATM   16  C20 UNK     1      20.949 -11.174  36.788  1.00  0.00     0.022 A 
HETATM   17  C18 UNK     1      22.094 -10.540  36.298  1.00  0.00     0.011 A 
HETATM   18 Br1  UNK     1      23.637 -11.559  35.906  1.00  0.00    -0.051 Br
HETATM   19  C10 UNK     1      22.103  -9.157  36.097  1.00  0.00     0.033 A 
HETATM   20  C8  UNK     1      20.920  -6.960  36.195  1.00  0.00     0.037 A 
ENDBRANCH   6   9
ENDBRANCH   2   5
BRANCH   3  21
HETATM   21  C21 UNK     1      18.551  -0.565  37.002  1.00  0.00     0.280 C 
BRANCH  21  22
HETATM   22  O3  UNK     1      17.562   0.057  36.209  1.00  0.00    -0.342 OA
BRANCH  22  23
HETATM   23  C13 UNK     1      17.913   0.410  34.928  1.00  0.00     0.069 A 
HETATM   24  C16 UNK     1      17.958   1.755  34.562  1.00  0.00     0.039 A 
HETATM   25  C11 UNK     1      18.315   2.114  33.263  1.00  0.00     0.039 A 
HETATM   26  C6  UNK     1      18.627   1.127  32.328  1.00  0.00     0.068 A 
HETATM   27  C12 UNK     1      18.581  -0.219  32.694  1.00  0.00     0.039 A 
HETATM   28  C17 UNK     1      18.225  -0.578  33.993  1.00  0.00     0.039 A 
BRANCH  26  29
HETATM   29  O1  UNK     1      18.975   1.476  31.060  1.00  0.00    -0.351 OA
BRANCH  29  30
HETATM   30  C3  UNK     1      19.014   0.433  30.086  1.00  0.00     0.175 C 
BRANCH  30  31
HETATM   31  C1  UNK     1      20.467   0.114  29.766  1.00  0.00     0.026 C 
BRANCH  31  32
HETATM   32  C2  UNK     1      20.636  -1.327  29.293  1.00  0.00    -0.002 C 
HETATM   33  C4  UNK     1      20.328  -2.318  30.403  1.00  0.00     0.005 C 
ENDBRANCH  31  32
ENDBRANCH  30  31
ENDBRANCH  29  30
ENDBRANCH  26  29
ENDBRANCH  22  23
ENDBRANCH  21  22
ENDBRANCH   3  21
TORSDOF 9
ENDMDL
MODEL 7
REMARK VINA RESULT:      -8.4     25.710     28.715
REMARK  9 active torsions:
REMARK  status: ('A' for Active; 'I' for Inactive)
REMARK    1  A    between atoms: C3_12  and  O1_2 
REMARK    2  A    between atoms: C6_15  and  O1_2 
REMARK    3  A    between atoms: C13_22  and  O3_4 
REMARK    4  A    between atoms: C21_30  and  O3_4 
REMARK       I    between atoms: C19_28  and  N1_8 
REMARK    5  A    between atoms: N1_8  and  N2_9 
REMARK       I    between atoms: C22_31  and  N2_9 
REMARK    6  A    between atoms: C1_10  and  C2_11 
REMARK    7  A    between atoms: C1_10  and  C3_12 
REMARK    8  A    between atoms: C19_28  and  C9_18 
REMARK    9  A    between atoms: C21_30  and  C22_31 
ROOT
HETATM    1  O6  UNK     1       7.468   4.740   8.055  1.00  0.00    -0.269 OA
HETATM    2  N2  UNK     1       8.349   5.591  10.029  1.00  0.00    -0.265 N 
HETATM    3  C22 UNK     1       8.241   5.482   8.656  1.00  0.00     0.260 C 
HETATM    4  H21 UNK     1       9.000   6.209  10.501  1.00  0.00     0.190 HD
ENDROOT
BRANCH   2   5
HETATM    5  N1  UNK     1       7.538   4.819  10.825  1.00  0.00    -0.263 N 
HETATM    6  C19 UNK     1       6.672   5.440  11.700  1.00  0.00     0.276 C 
HETATM    7  O5  UNK     1       6.537   6.651  11.857  1.00  0.00    -0.266 OA
HETATM    8  H20 UNK     1       7.649   3.815  10.734  1.00  0.00     0.190 HD
BRANCH   6   9
HETATM    9  C9  UNK     1       5.875   4.483  12.479  1.00  0.00     0.110 A 
HETATM   10  C15 UNK     1       5.019   3.464  11.831  1.00  0.00     0.304 A 
HETATM   11  O2  UNK     1       4.309   2.614  12.675  1.00  0.00    -0.274 OA
HETATM   12  O4  UNK     1       4.934   3.368  10.611  1.00  0.00    -0.259 OA
HETATM   13  C7  UNK     1       4.400   2.715  14.078  1.00  0.00     0.089 A 
HETATM   14  C14 UNK     1       3.654   1.819  14.840  1.00  0.00     0.039 A 
HETATM   15  C5  UNK     1       5.211   3.680  14.666  1.00  0.00     0.000 A 
HETATM   16  C20 UNK     1       3.722   1.895  16.230  1.00  0.00     0.022 A 
HETATM   17  C18 UNK     1       4.531   2.857  16.839  1.00  0.00     0.011 A 
HETATM   18 Br1  UNK     1       4.619   2.955  18.725  1.00  0.00    -0.051 Br
HETATM   19  C10 UNK     1       5.275   3.749  16.060  1.00  0.00     0.033 A 
HETATM   20  C8  UNK     1       5.964   4.583  13.810  1.00  0.00     0.037 A 
ENDBRANCH   6   9
ENDBRANCH   2   5
BRANCH   3  21
HETATM   21  C21 UNK     1       9.207   6.406   7.948  1.00  0.00     0.280 C 
BRANCH  21  22
HETATM   22  O3  UNK     1      10.101   5.668   7.141  1.00  0.00    -0.342 OA
BRANCH  22  23
HETATM   23  C13 UNK     1      11.432   5.703   7.484  1.00  0.00     0.069 A 
HETATM   24  C16 UNK     1      12.271   6.668   6.927  1.00  0.00     0.039 A 
HETATM   25  C11 UNK     1      13.621   6.704   7.275  1.00  0.00     0.039 A 
HETATM   26  C6  UNK     1      14.133   5.775   8.181  1.00  0.00     0.068 A 
HETATM   27  C12 UNK     1      13.293   4.810   8.738  1.00  0.00     0.039 A 
HETATM   28  C17 UNK     1      11.943   4.774   8.391  1.00  0.00     0.039 A 
BRANCH  26  29
HETATM   29  O1  UNK     1      15.450   5.810   8.520  1.00  0.00    -0.351 OA
BRANCH  29  30
HETATM   30  C3  UNK     1      15.778   5.527   9.881  1.00  0.00     0.175 C 
BRANCH  30  31
HETATM   31  C1  UNK     1      16.124   6.832  10.583  1.00  0.00     0.026 C 
BRANCH  31  32
HETATM   32  C2  UNK     1      17.269   7.561   9.885  1.00  0.00    -0.002 C 
HETATM   33  C4  UNK     1      17.072   9.067   9.915  1.00  0.00     0.005 C 
ENDBRANCH  31  32
ENDBRANCH  30  31
ENDBRANCH  29  30
ENDBRANCH  26  29
ENDBRANCH  22  23
ENDBRANCH  21  22
ENDBRANCH   3  21
TORSDOF 9
ENDMDL
MODEL 8
REMARK VINA RESULT:      -8.1      7.656     12.516
REMARK  9 active torsions:
REMARK  status: ('A' for Active; 'I' for Inactive)
REMARK    1  A    between atoms: C3_12  and  O1_2 
REMARK    2  A    between atoms: C6_15  and  O1_2 
REMARK    3  A    between atoms: C13_22  and  O3_4 
REMARK    4  A    between atoms: C21_30  and  O3_4 
REMARK       I    between atoms: C19_28  and  N1_8 
REMARK    5  A    between atoms: N1_8  and  N2_9 
REMARK       I    between atoms: C22_31  and  N2_9 
REMARK    6  A    between atoms: C1_10  and  C2_11 
REMARK    7  A    between atoms: C1_10  and  C3_12 
REMARK    8  A    between atoms: C19_28  and  C9_18 
REMARK    9  A    between atoms: C21_30  and  C22_31 
ROOT
HETATM    1  O6  UNK     1      24.906 -12.457  35.600  1.00  0.00    -0.269 OA
HETATM    2  N2  UNK     1      24.523 -10.329  36.448  1.00  0.00    -0.265 N 
HETATM    3  C22 UNK     1      24.151 -11.526  35.866  1.00  0.00     0.260 C 
HETATM    4  H21 UNK     1      23.878  -9.572  36.653  1.00  0.00     0.190 HD
ENDROOT
BRANCH   2   5
HETATM    5  N1  UNK     1      25.841 -10.127  36.774  1.00  0.00    -0.263 N 
HETATM    6  C19 UNK     1      26.209  -8.940  37.372  1.00  0.00     0.276 C 
HETATM    7  O5  UNK     1      25.465  -8.005  37.657  1.00  0.00    -0.266 OA
HETATM    8  H20 UNK     1      26.481 -10.872  36.524  1.00  0.00     0.190 HD
BRANCH   6   9
HETATM    9  C9  UNK     1      27.648  -8.874  37.658  1.00  0.00     0.110 A 
HETATM   10  C15 UNK     1      28.289  -9.749  38.665  1.00  0.00     0.304 A 
HETATM   11  O2  UNK     1      29.661  -9.592  38.848  1.00  0.00    -0.274 OA
HETATM   12  O4  UNK     1      27.649 -10.573  39.310  1.00  0.00    -0.259 OA
HETATM   13  C7  UNK     1      30.405  -8.650  38.111  1.00  0.00     0.089 A 
HETATM   14  C14 UNK     1      31.773  -8.566  38.363  1.00  0.00     0.039 A 
HETATM   15  C5  UNK     1      29.783  -7.837  37.169  1.00  0.00     0.000 A 
HETATM   16  C20 UNK     1      32.536  -7.643  37.651  1.00  0.00     0.022 A 
HETATM   17  C18 UNK     1      31.928  -6.818  36.701  1.00  0.00     0.011 A 
HETATM   18 Br1  UNK     1      32.969  -5.568  35.739  1.00  0.00    -0.051 Br
HETATM   19  C10 UNK     1      30.555  -6.914  36.459  1.00  0.00     0.033 A 
HETATM   20  C8  UNK     1      28.350  -7.977  36.957  1.00  0.00     0.037 A 
ENDBRANCH   6   9
ENDBRANCH   2   5
BRANCH   3  21
HETATM   21  C21 UNK     1      22.666 -11.567  35.581  1.00  0.00     0.280 C 
BRANCH  21  22
HETATM   22  O3  UNK     1      21.934 -11.060  36.677  1.00  0.00    -0.342 OA
BRANCH  22  23
HETATM   23  C13 UNK     1      21.087 -10.005  36.433  1.00  0.00     0.069 A 
HETATM   24  C16 UNK     1      19.898  -9.883  37.151  1.00  0.00     0.039 A 
HETATM   25  C11 UNK     1      19.040  -8.813  36.905  1.00  0.00     0.039 A 
HETATM   26  C6  UNK     1      19.369  -7.863  35.938  1.00  0.00     0.068 A 
HETATM   27  C12 UNK     1      20.559  -7.985  35.218  1.00  0.00     0.039 A 
HETATM   28  C17 UNK     1      21.418  -9.055  35.466  1.00  0.00     0.039 A 
BRANCH  26  29
HETATM   29  O1  UNK     1      18.532  -6.819  35.696  1.00  0.00    -0.351 OA
BRANCH  29  30
HETATM   30  C3  UNK     1      18.570  -5.729  36.618  1.00  0.00     0.175 C 
BRANCH  30  31
HETATM   31  C1  UNK     1      19.815  -4.897  36.344  1.00  0.00     0.026 C 
BRANCH  31  32
HETATM   32  C2  UNK     1      20.662  -4.722  37.601  1.00  0.00    -0.002 C 
HETATM   33  C4  UNK     1      20.469  -5.877  38.569  1.00  0.00     0.005 C 
ENDBRANCH  31  32
ENDBRANCH  30  31
ENDBRANCH  29  30
ENDBRANCH  26  29
ENDBRANCH  22  23
ENDBRANCH  21  22
ENDBRANCH   3  21
TORSDOF 9
ENDMDL
MODEL 9
REMARK VINA RESULT:      -8.1      2.646      3.086
REMARK  9 active torsions:
REMARK  status: ('A' for Active; 'I' for Inactive)
REMARK    1  A    between atoms: C3_12  and  O1_2 
REMARK    2  A    between atoms: C6_15  and  O1_2 
REMARK    3  A    between atoms: C13_22  and  O3_4 
REMARK    4  A    between atoms: C21_30  and  O3_4 
REMARK       I    between atoms: C19_28  and  N1_8 
REMARK    5  A    between atoms: N1_8  and  N2_9 
REMARK       I    between atoms: C22_31  and  N2_9 
REMARK    6  A    between atoms: C1_10  and  C2_11 
REMARK    7  A    between atoms: C1_10  and  C3_12 
REMARK    8  A    between atoms: C19_28  and  C9_18 
REMARK    9  A    between atoms: C21_30  and  C22_31 
ROOT
HETATM    1  O6  UNK     1      20.898  -2.954  35.113  1.00  0.00    -0.269 OA
HETATM    2  N2  UNK     1      19.026  -1.935  36.039  1.00  0.00    -0.265 N 
HETATM    3  C22 UNK     1      20.031  -2.882  35.981  1.00  0.00     0.260 C 
HETATM    4  H21 UNK     1      18.318  -1.902  36.766  1.00  0.00     0.190 HD
ENDROOT
BRANCH   2   5
HETATM    5  N1  UNK     1      18.958  -0.974  35.062  1.00  0.00    -0.263 N 
HETATM    6  C19 UNK     1      18.396   0.249  35.363  1.00  0.00     0.276 C 
HETATM    7  O5  UNK     1      17.929   0.590  36.447  1.00  0.00    -0.266 OA
HETATM    8  H20 UNK     1      19.311  -1.240  34.149  1.00  0.00     0.190 HD
BRANCH   6   9
HETATM    9  C9  UNK     1      18.396   1.167  34.217  1.00  0.00     0.110 A 
HETATM   10  C15 UNK     1      18.485   0.681  32.822  1.00  0.00     0.304 A 
HETATM   11  O2  UNK     1      18.478   1.649  31.820  1.00  0.00    -0.274 OA
HETATM   12  O4  UNK     1      18.563  -0.513  32.554  1.00  0.00    -0.259 OA
HETATM   13  C7  UNK     1      18.388   3.024  32.117  1.00  0.00     0.089 A 
HETATM   14  C14 UNK     1      18.387   3.917  31.048  1.00  0.00     0.039 A 
HETATM   15  C5  UNK     1      18.305   3.459  33.435  1.00  0.00     0.000 A 
HETATM   16  C20 UNK     1      18.300   5.283  31.309  1.00  0.00     0.022 A 
HETATM   17  C18 UNK     1      18.216   5.739  32.627  1.00  0.00     0.011 A 
HETATM   18 Br1  UNK     1      18.099   7.593  32.974  1.00  0.00    -0.051 Br
HETATM   19  C10 UNK     1      18.218   4.830  33.689  1.00  0.00     0.033 A 
HETATM   20  C8  UNK     1      18.312   2.471  34.503  1.00  0.00     0.037 A 
ENDBRANCH   6   9
ENDBRANCH   2   5
BRANCH   3  21
HETATM   21  C21 UNK     1      19.947  -3.854  37.138  1.00  0.00     0.280 C 
BRANCH  21  22
HETATM   22  O3  UNK     1      20.073  -5.184  36.682  1.00  0.00    -0.342 OA
BRANCH  22  23
HETATM   23  C13 UNK     1      21.049  -5.958  37.263  1.00  0.00     0.069 A 
HETATM   24  C16 UNK     1      21.224  -7.281  36.857  1.00  0.00     0.039 A 
HETATM   25  C11 UNK     1      22.214  -8.067  37.445  1.00  0.00     0.039 A 
HETATM   26  C6  UNK     1      23.030  -7.530  38.442  1.00  0.00     0.068 A 
HETATM   27  C12 UNK     1      22.854  -6.206  38.848  1.00  0.00     0.039 A 
HETATM   28  C17 UNK     1      21.865  -5.421  38.259  1.00  0.00     0.039 A 
BRANCH  26  29
HETATM   29  O1  UNK     1      23.996  -8.296  39.017  1.00  0.00    -0.351 OA
BRANCH  29  30
HETATM   30  C3  UNK     1      25.341  -8.069  38.596  1.00  0.00     0.175 C 
BRANCH  30  31
HETATM   31  C1  UNK     1      26.271  -8.931  39.438  1.00  0.00     0.026 C 
BRANCH  31  32
HETATM   32  C2  UNK     1      27.702  -8.403  39.416  1.00  0.00    -0.002 C 
HETATM   33  C4  UNK     1      27.747  -6.930  39.045  1.00  0.00     0.005 C 
ENDBRANCH  31  32
ENDBRANCH  30  31
ENDBRANCH  29  30
ENDBRANCH  26  29
ENDBRANCH  22  23
ENDBRANCH  21  22
ENDBRANCH   3  21
TORSDOF 9
ENDMDL
MODEL 10
REMARK VINA RESULT:      -8.0     27.410     29.688
REMARK  9 active torsions:
REMARK  status: ('A' for Active; 'I' for Inactive)
REMARK    1  A    between atoms: C3_12  and  O1_2 
REMARK    2  A    between atoms: C6_15  and  O1_2 
REMARK    3  A    between atoms: C13_22  and  O3_4 
REMARK    4  A    between atoms: C21_30  and  O3_4 
REMARK       I    between atoms: C19_28  and  N1_8 
REMARK    5  A    between atoms: N1_8  and  N2_9 
REMARK       I    between atoms: C22_31  and  N2_9 
REMARK    6  A    between atoms: C1_10  and  C2_11 
REMARK    7  A    between atoms: C1_10  and  C3_12 
REMARK    8  A    between atoms: C19_28  and  C9_18 
REMARK    9  A    between atoms: C21_30  and  C22_31 
ROOT
HETATM    1  O6  UNK     1      17.505  11.556   7.294  1.00  0.00    -0.269 OA
HETATM    2  N2  UNK     1      18.352  10.589   9.229  1.00  0.00    -0.265 N 
HETATM    3  C22 UNK     1      18.337  11.508   8.196  1.00  0.00     0.260 C 
HETATM    4  H21 UNK     1      19.055  10.568   9.960  1.00  0.00     0.190 HD
ENDROOT
BRANCH   2   5
HETATM    5  N1  UNK     1      17.368   9.634   9.286  1.00  0.00    -0.263 N 
HETATM    6  C19 UNK     1      16.129   9.977   9.788  1.00  0.00     0.276 C 
HETATM    7  O5  UNK     1      15.793  11.082  10.207  1.00  0.00    -0.266 OA
HETATM    8  H20 UNK     1      17.628   8.706   8.971  1.00  0.00     0.190 HD
BRANCH   6   9
HETATM    9  C9  UNK     1      15.187   8.851   9.784  1.00  0.00     0.110 A 
HETATM   10  C15 UNK     1      15.132   7.870  10.890  1.00  0.00     0.304 A 
HETATM   11  O2  UNK     1      14.197   6.844  10.772  1.00  0.00    -0.274 OA
HETATM   12  O4  UNK     1      15.871   7.950  11.866  1.00  0.00    -0.259 OA
HETATM   13  C7  UNK     1      13.343   6.743   9.656  1.00  0.00     0.089 A 
HETATM   14  C14 UNK     1      12.440   5.683   9.627  1.00  0.00     0.039 A 
HETATM   15  C5  UNK     1      13.412   7.676   8.626  1.00  0.00     0.000 A 
HETATM   16  C20 UNK     1      11.583   5.556   8.535  1.00  0.00     0.022 A 
HETATM   17  C18 UNK     1      11.637   6.484   7.492  1.00  0.00     0.011 A 
HETATM   18 Br1  UNK     1      10.471   6.305   6.015  1.00  0.00    -0.051 Br
HETATM   19  C10 UNK     1      12.549   7.543   7.536  1.00  0.00     0.033 A 
HETATM   20  C8  UNK     1      14.379   8.759   8.722  1.00  0.00     0.037 A 
ENDBRANCH   6   9
ENDBRANCH   2   5
BRANCH   3  21
HETATM   21  C21 UNK     1      19.492  12.479   8.299  1.00  0.00     0.280 C 
BRANCH  21  22
HETATM   22  O3  UNK     1      20.701  11.791   8.543  1.00  0.00    -0.342 OA
BRANCH  22  23
HETATM   23  C13 UNK     1      21.530  12.303   9.513  1.00  0.00     0.069 A 
HETATM   24  C16 UNK     1      21.442  11.835  10.824  1.00  0.00     0.039 A 
HETATM   25  C11 UNK     1      22.283  12.353  11.808  1.00  0.00     0.039 A 
HETATM   26  C6  UNK     1      23.213  13.341  11.481  1.00  0.00     0.068 A 
HETATM   27  C12 UNK     1      23.301  13.809  10.170  1.00  0.00     0.039 A 
HETATM   28  C17 UNK     1      22.460  13.290   9.186  1.00  0.00     0.039 A 
BRANCH  26  29
HETATM   29  O1  UNK     1      24.033  13.847  12.441  1.00  0.00    -0.351 OA
BRANCH  29  30
HETATM   30  C3  UNK     1      25.058  12.987  12.939  1.00  0.00     0.175 C 
BRANCH  30  31
HETATM   31  C1  UNK     1      26.336  13.238  12.151  1.00  0.00     0.026 C 
BRANCH  31  32
HETATM   32  C2  UNK     1      26.777  11.995  11.383  1.00  0.00    -0.002 C 
HETATM   33  C4  UNK     1      25.956  10.778  11.774  1.00  0.00     0.005 C 
ENDBRANCH  31  32
ENDBRANCH  30  31
ENDBRANCH  29  30
ENDBRANCH  26  29
ENDBRANCH  22  23
ENDBRANCH  21  22
ENDBRANCH   3  21
TORSDOF 9
ENDMDL
