MODEL 1
REMARK VINA RESULT:      -9.5      0.000      0.000
REMARK  4 active torsions:
REMARK  status: ('A' for Active; 'I' for Inactive)
REMARK    1  A    between atoms: C16_21  and  O2_3 
REMARK    2  A    between atoms: C9_14  and  O2_3 
REMARK    3  A    between atoms: C5_10  and  O3_4 
REMARK    4  A    between atoms: C1_6  and  C2_7 
ROOT
HETATM    1  F1  UNK     1       7.749   6.705   6.073  1.00  0.00    -0.203 F 
HETATM    2  C2  UNK     1      11.492   6.496   7.807  1.00  0.00     0.004 A 
HETATM    3  C7  UNK     1      10.380   6.815   8.588  1.00  0.00     0.054 A 
HETATM    4  C8  UNK     1      11.338   6.249   6.443  1.00  0.00     0.017 A 
HETATM    5  C9  UNK     1       9.114   6.886   8.003  1.00  0.00     0.115 A 
HETATM    6  C12 UNK     1      10.074   6.320   5.859  1.00  0.00     0.046 A 
HETATM    7  C13 UNK     1       8.962   6.638   6.639  1.00  0.00     0.150 A 
ENDROOT
BRANCH   2   8
HETATM    8  C1  UNK     1      12.828   6.421   8.423  1.00  0.00     0.123 A 
HETATM    9  O1  UNK     1      13.433   7.661   8.556  1.00  0.00    -0.306 OA
HETATM   10  C4  UNK     1      14.683   7.722   9.118  1.00  0.00     0.090 A 
HETATM   11  C11 UNK     1      15.260   8.985   9.248  1.00  0.00     0.038 A 
HETATM   12  C3  UNK     1      15.372   6.592   9.550  1.00  0.00     0.051 A 
HETATM   13  C15 UNK     1      16.529   9.112   9.813  1.00  0.00     0.003 A 
HETATM   14  C14 UNK     1      17.219   7.979  10.247  1.00  0.00     0.001 A 
HETATM   15  C10 UNK     1      16.643   6.715  10.116  1.00  0.00     0.018 A 
HETATM   16  C6  UNK     1      14.741   5.272   9.398  1.00  0.00     0.220 A 
HETATM   17  C5  UNK     1      13.389   5.254   8.790  1.00  0.00     0.152 A 
HETATM   18  O4  UNK     1      15.302   4.243   9.752  1.00  0.00    -0.284 OA
BRANCH  17  19
HETATM   19  O3  UNK     1      12.772   4.035   8.614  1.00  0.00    -0.355 OA
HETATM   20  H8  UNK     1      12.697   3.577   9.466  1.00  0.00     0.218 HD
ENDBRANCH  17  19
ENDBRANCH   2   8
BRANCH   5  21
HETATM   21  O2  UNK     1       8.031   7.196   8.767  1.00  0.00    -0.308 OA
BRANCH  21  22
HETATM   22  C16 UNK     1       7.501   6.198   9.567  1.00  0.00     0.076 A 
HETATM   23  C17 UNK     1       7.426   4.907   9.074  1.00  0.00     0.037 A 
HETATM   24  C19 UNK     1       6.891   3.903   9.881  1.00  0.00     0.003 A 
HETATM   25  C21 UNK     1       6.442   4.205  11.166  1.00  0.00     0.000 A 
HETATM   26  C20 UNK     1       6.527   5.512  11.645  1.00  0.00     0.003 A 
HETATM   27  C18 UNK     1       7.061   6.518  10.839  1.00  0.00     0.037 A 
ENDBRANCH  21  22
ENDBRANCH   5  21
TORSDOF 4
ENDMDL
MODEL 2
REMARK VINA RESULT:      -9.1     23.977     25.828
REMARK  4 active torsions:
REMARK  status: ('A' for Active; 'I' for Inactive)
REMARK    1  A    between atoms: C16_21  and  O2_3 
REMARK    2  A    between atoms: C9_14  and  O2_3 
REMARK    3  A    between atoms: C5_10  and  O3_4 
REMARK    4  A    between atoms: C1_6  and  C2_7 
ROOT
HETATM    1  F1  UNK     1      19.088   0.213  30.919  1.00  0.00    -0.203 F 
HETATM    2  C2  UNK     1      18.201   4.062  32.127  1.00  0.00     0.004 A 
HETATM    3  C7  UNK     1      18.290   3.039  33.072  1.00  0.00     0.054 A 
HETATM    4  C8  UNK     1      18.413   3.784  30.777  1.00  0.00     0.017 A 
HETATM    5  C9  UNK     1      18.589   1.738  32.666  1.00  0.00     0.115 A 
HETATM    6  C12 UNK     1      18.711   2.484  30.371  1.00  0.00     0.046 A 
HETATM    7  C13 UNK     1      18.800   1.461  31.315  1.00  0.00     0.150 A 
ENDROOT
BRANCH   2   8
HETATM    8  C1  UNK     1      17.885   5.436  32.556  1.00  0.00     0.123 A 
HETATM    9  O1  UNK     1      16.544   5.752  32.415  1.00  0.00    -0.306 OA
HETATM   10  C4  UNK     1      16.124   7.005  32.783  1.00  0.00     0.090 A 
HETATM   11  C11 UNK     1      14.766   7.288  32.640  1.00  0.00     0.038 A 
HETATM   12  C3  UNK     1      16.991   7.975  33.280  1.00  0.00     0.051 A 
HETATM   13  C15 UNK     1      14.279   8.545  32.998  1.00  0.00     0.003 A 
HETATM   14  C14 UNK     1      15.147   9.517  33.496  1.00  0.00     0.001 A 
HETATM   15  C10 UNK     1      16.506   9.235  33.638  1.00  0.00     0.018 A 
HETATM   16  C6  UNK     1      18.419   7.651  33.418  1.00  0.00     0.220 A 
HETATM   17  C5  UNK     1      18.825   6.283  33.013  1.00  0.00     0.152 A 
HETATM   18  O4  UNK     1      19.228   8.465  33.841  1.00  0.00    -0.284 OA
BRANCH  17  19
HETATM   19  O3  UNK     1      20.158   5.947  33.110  1.00  0.00    -0.355 OA
HETATM   20  H8  UNK     1      20.291   5.036  32.806  1.00  0.00     0.218 HD
ENDBRANCH  17  19
ENDBRANCH   2   8
BRANCH   5  21
HETATM   21  O2  UNK     1      18.676   0.741  33.589  1.00  0.00    -0.308 OA
BRANCH  21  22
HETATM   22  C16 UNK     1      17.946   0.882  34.758  1.00  0.00     0.076 A 
HETATM   23  C17 UNK     1      16.647   0.408  34.803  1.00  0.00     0.037 A 
HETATM   24  C19 UNK     1      15.913   0.552  35.980  1.00  0.00     0.003 A 
HETATM   25  C21 UNK     1      16.490   1.164  37.092  1.00  0.00     0.000 A 
HETATM   26  C20 UNK     1      17.801   1.634  37.026  1.00  0.00     0.003 A 
HETATM   27  C18 UNK     1      18.536   1.492  35.849  1.00  0.00     0.037 A 
ENDBRANCH  21  22
ENDBRANCH   5  21
TORSDOF 4
ENDMDL
MODEL 3
REMARK VINA RESULT:      -9.0     23.784     25.981
REMARK  4 active torsions:
REMARK  status: ('A' for Active; 'I' for Inactive)
REMARK    1  A    between atoms: C16_21  and  O2_3 
REMARK    2  A    between atoms: C9_14  and  O2_3 
REMARK    3  A    between atoms: C5_10  and  O3_4 
REMARK    4  A    between atoms: C1_6  and  C2_7 
ROOT
HETATM    1  F1  UNK     1      18.143   3.361  28.574  1.00  0.00    -0.203 F 
HETATM    2  C2  UNK     1      19.118   0.434  31.319  1.00  0.00     0.004 A 
HETATM    3  C7  UNK     1      18.553   1.634  31.753  1.00  0.00     0.054 A 
HETATM    4  C8  UNK     1      19.352   0.224  29.960  1.00  0.00     0.017 A 
HETATM    5  C9  UNK     1      18.223   2.624  30.826  1.00  0.00     0.115 A 
HETATM    6  C12 UNK     1      19.023   1.214  29.035  1.00  0.00     0.046 A 
HETATM    7  C13 UNK     1      18.457   2.414  29.468  1.00  0.00     0.150 A 
ENDROOT
BRANCH   2   8
HETATM    8  C1  UNK     1      19.466  -0.612  32.297  1.00  0.00     0.123 A 
HETATM    9  O1  UNK     1      18.926  -0.381  33.552  1.00  0.00    -0.306 OA
HETATM   10  C4  UNK     1      19.179  -1.287  34.550  1.00  0.00     0.090 A 
HETATM   11  C11 UNK     1      18.611  -1.031  35.799  1.00  0.00     0.038 A 
HETATM   12  C3  UNK     1      19.963  -2.422  34.359  1.00  0.00     0.051 A 
HETATM   13  C15 UNK     1      18.832  -1.917  36.854  1.00  0.00     0.003 A 
HETATM   14  C14 UNK     1      19.618  -3.054  36.662  1.00  0.00     0.001 A 
HETATM   15  C10 UNK     1      20.187  -3.310  35.414  1.00  0.00     0.018 A 
HETATM   16  C6  UNK     1      20.552  -2.664  33.033  1.00  0.00     0.220 A 
HETATM   17  C5  UNK     1      20.247  -1.662  31.984  1.00  0.00     0.152 A 
HETATM   18  O4  UNK     1      21.256  -3.640  32.808  1.00  0.00    -0.284 OA
BRANCH  17  19
HETATM   19  O3  UNK     1      20.795  -1.845  30.733  1.00  0.00    -0.355 OA
HETATM   20  H8  UNK     1      21.686  -2.219  30.815  1.00  0.00     0.218 HD
ENDBRANCH  17  19
ENDBRANCH   2   8
BRANCH   5  21
HETATM   21  O2  UNK     1      17.671   3.795  31.251  1.00  0.00    -0.308 OA
BRANCH  21  22
HETATM   22  C16 UNK     1      18.509   4.719  31.853  1.00  0.00     0.076 A 
HETATM   23  C17 UNK     1      18.280   5.080  33.168  1.00  0.00     0.037 A 
HETATM   24  C19 UNK     1      19.123   6.012  33.773  1.00  0.00     0.003 A 
HETATM   25  C21 UNK     1      20.181   6.566  33.053  1.00  0.00     0.000 A 
HETATM   26  C20 UNK     1      20.395   6.190  31.727  1.00  0.00     0.003 A 
HETATM   27  C18 UNK     1      19.552   5.257  31.121  1.00  0.00     0.037 A 
ENDBRANCH  21  22
ENDBRANCH   5  21
TORSDOF 4
ENDMDL
MODEL 4
REMARK VINA RESULT:      -8.9     29.378     31.422
REMARK  4 active torsions:
REMARK  status: ('A' for Active; 'I' for Inactive)
REMARK    1  A    between atoms: C16_21  and  O2_3 
REMARK    2  A    between atoms: C9_14  and  O2_3 
REMARK    3  A    between atoms: C5_10  and  O3_4 
REMARK    4  A    between atoms: C1_6  and  C2_7 
ROOT
HETATM    1  F1  UNK     1      21.726  -7.742  38.549  1.00  0.00    -0.203 F 
HETATM    2  C2  UNK     1      20.215  -4.228  36.991  1.00  0.00     0.004 A 
HETATM    3  C7  UNK     1      19.566  -5.437  36.738  1.00  0.00     0.054 A 
HETATM    4  C8  UNK     1      21.373  -4.208  37.769  1.00  0.00     0.017 A 
HETATM    5  C9  UNK     1      20.075  -6.626  37.264  1.00  0.00     0.115 A 
HETATM    6  C12 UNK     1      21.881  -5.396  38.294  1.00  0.00     0.046 A 
HETATM    7  C13 UNK     1      21.232  -6.605  38.042  1.00  0.00     0.150 A 
ENDROOT
BRANCH   2   8
HETATM    8  C1  UNK     1      19.678  -2.973  36.436  1.00  0.00     0.123 A 
HETATM    9  O1  UNK     1      19.032  -2.196  37.383  1.00  0.00    -0.306 OA
HETATM   10  C4  UNK     1      18.488  -1.001  36.988  1.00  0.00     0.090 A 
HETATM   11  C11 UNK     1      17.854  -0.236  37.968  1.00  0.00     0.038 A 
HETATM   12  C3  UNK     1      18.549  -0.541  35.674  1.00  0.00     0.051 A 
HETATM   13  C15 UNK     1      17.283   0.990  37.627  1.00  0.00     0.003 A 
HETATM   14  C14 UNK     1      17.345   1.451  36.311  1.00  0.00     0.001 A 
HETATM   15  C10 UNK     1      17.977   0.686  35.330  1.00  0.00     0.018 A 
HETATM   16  C6  UNK     1      19.221  -1.369  34.661  1.00  0.00     0.220 A 
HETATM   17  C5  UNK     1      19.798  -2.650  35.135  1.00  0.00     0.152 A 
HETATM   18  O4  UNK     1      19.299  -1.020  33.491  1.00  0.00    -0.284 OA
BRANCH  17  19
HETATM   19  O3  UNK     1      20.420  -3.463  34.212  1.00  0.00    -0.355 OA
HETATM   20  H8  UNK     1      21.233  -3.039  33.896  1.00  0.00     0.218 HD
ENDBRANCH  17  19
ENDBRANCH   2   8
BRANCH   5  21
HETATM   21  O2  UNK     1      19.439  -7.805  37.017  1.00  0.00    -0.308 OA
BRANCH  21  22
HETATM   22  C16 UNK     1      20.188  -8.838  36.479  1.00  0.00     0.076 A 
HETATM   23  C17 UNK     1      20.943  -8.604  35.344  1.00  0.00     0.037 A 
HETATM   24  C19 UNK     1      21.695  -9.646  34.802  1.00  0.00     0.003 A 
HETATM   25  C21 UNK     1      21.682 -10.903  35.405  1.00  0.00     0.000 A 
HETATM   26  C20 UNK     1      20.914 -11.119  36.549  1.00  0.00     0.003 A 
HETATM   27  C18 UNK     1      20.160 -10.078  37.092  1.00  0.00     0.037 A 
ENDBRANCH  21  22
ENDBRANCH   5  21
TORSDOF 4
ENDMDL
MODEL 5
REMARK VINA RESULT:      -8.8      1.683      7.728
REMARK  4 active torsions:
REMARK  status: ('A' for Active; 'I' for Inactive)
REMARK    1  A    between atoms: C16_21  and  O2_3 
REMARK    2  A    between atoms: C9_14  and  O2_3 
REMARK    3  A    between atoms: C5_10  and  O3_4 
REMARK    4  A    between atoms: C1_6  and  C2_7 
ROOT
HETATM    1  F1  UNK     1      11.965   6.182   5.321  1.00  0.00    -0.203 F 
HETATM    2  C2  UNK     1       9.116   5.742   8.279  1.00  0.00     0.004 A 
HETATM    3  C7  UNK     1      10.456   5.464   8.556  1.00  0.00     0.054 A 
HETATM    4  C8  UNK     1       8.742   6.169   7.004  1.00  0.00     0.017 A 
HETATM    5  C9  UNK     1      11.420   5.612   7.557  1.00  0.00     0.115 A 
HETATM    6  C12 UNK     1       9.705   6.316   6.007  1.00  0.00     0.046 A 
HETATM    7  C13 UNK     1      11.044   6.039   6.283  1.00  0.00     0.150 A 
ENDROOT
BRANCH   2   8
HETATM    8  C1  UNK     1       8.098   5.586   9.332  1.00  0.00     0.123 A 
HETATM    9  O1  UNK     1       7.527   4.324   9.350  1.00  0.00    -0.306 OA
HETATM   10  C4  UNK     1       6.563   4.055  10.288  1.00  0.00     0.090 A 
HETATM   11  C11 UNK     1       6.016   2.772  10.287  1.00  0.00     0.038 A 
HETATM   12  C3  UNK     1       6.129   4.998  11.216  1.00  0.00     0.051 A 
HETATM   13  C15 UNK     1       5.033   2.438  11.219  1.00  0.00     0.003 A 
HETATM   14  C14 UNK     1       4.598   3.383  12.148  1.00  0.00     0.001 A 
HETATM   15  C10 UNK     1       5.144   4.667  12.149  1.00  0.00     0.018 A 
HETATM   16  C6  UNK     1       6.721   6.345  11.193  1.00  0.00     0.220 A 
HETATM   17  C5  UNK     1       7.761   6.589  10.164  1.00  0.00     0.152 A 
HETATM   18  O4  UNK     1       6.374   7.217  11.978  1.00  0.00    -0.284 OA
BRANCH  17  19
HETATM   19  O3  UNK     1       8.327   7.843  10.099  1.00  0.00    -0.355 OA
HETATM   20  H8  UNK     1       7.639   8.507   9.934  1.00  0.00     0.218 HD
ENDBRANCH  17  19
ENDBRANCH   2   8
BRANCH   5  21
HETATM   21  O2  UNK     1      12.726   5.341   7.829  1.00  0.00    -0.308 OA
BRANCH  21  22
HETATM   22  C16 UNK     1      13.461   6.313   8.487  1.00  0.00     0.076 A 
HETATM   23  C17 UNK     1      13.432   7.614   8.016  1.00  0.00     0.037 A 
HETATM   24  C19 UNK     1      14.174   8.592   8.678  1.00  0.00     0.003 A 
HETATM   25  C21 UNK     1      14.930   8.254   9.800  1.00  0.00     0.000 A 
HETATM   26  C20 UNK     1      14.946   6.938  10.259  1.00  0.00     0.003 A 
HETATM   27  C18 UNK     1      14.204   5.958   9.597  1.00  0.00     0.037 A 
ENDBRANCH  21  22
ENDBRANCH   5  21
TORSDOF 4
ENDMDL
MODEL 6
REMARK VINA RESULT:      -8.8     28.678     30.754
REMARK  4 active torsions:
REMARK  status: ('A' for Active; 'I' for Inactive)
REMARK    1  A    between atoms: C16_21  and  O2_3 
REMARK    2  A    between atoms: C9_14  and  O2_3 
REMARK    3  A    between atoms: C5_10  and  O3_4 
REMARK    4  A    between atoms: C1_6  and  C2_7 
ROOT
HETATM    1  F1  UNK     1      21.170  -7.252  39.065  1.00  0.00    -0.203 F 
HETATM    2  C2  UNK     1      20.075  -4.230  36.471  1.00  0.00     0.004 A 
HETATM    3  C7  UNK     1      19.495  -5.494  36.352  1.00  0.00     0.054 A 
HETATM    4  C8  UNK     1      21.023  -3.989  37.466  1.00  0.00     0.017 A 
HETATM    5  C9  UNK     1      19.864  -6.516  37.228  1.00  0.00     0.115 A 
HETATM    6  C12 UNK     1      21.392  -5.011  38.340  1.00  0.00     0.046 A 
HETATM    7  C13 UNK     1      20.812  -6.274  38.222  1.00  0.00     0.150 A 
ENDROOT
BRANCH   2   8
HETATM    8  C1  UNK     1      19.685  -3.150  35.547  1.00  0.00     0.123 A 
HETATM    9  O1  UNK     1      20.363  -3.201  34.340  1.00  0.00    -0.306 OA
HETATM   10  C4  UNK     1      20.086  -2.247  33.394  1.00  0.00     0.090 A 
HETATM   11  C11 UNK     1      20.777  -2.332  32.185  1.00  0.00     0.038 A 
HETATM   12  C3  UNK     1      19.162  -1.225  33.600  1.00  0.00     0.051 A 
HETATM   13  C15 UNK     1      20.538  -1.392  31.183  1.00  0.00     0.003 A 
HETATM   14  C14 UNK     1      19.611  -0.368  31.389  1.00  0.00     0.001 A 
HETATM   15  C10 UNK     1      18.922  -0.281  32.599  1.00  0.00     0.018 A 
HETATM   16  C6  UNK     1      18.451  -1.158  34.885  1.00  0.00     0.220 A 
HETATM   17  C5  UNK     1      18.779  -2.212  35.875  1.00  0.00     0.152 A 
HETATM   18  O4  UNK     1      17.634  -0.279  35.126  1.00  0.00    -0.284 OA
BRANCH  17  19
HETATM   19  O3  UNK     1      18.146  -2.172  37.099  1.00  0.00    -0.355 OA
HETATM   20  H8  UNK     1      18.722  -1.749  37.754  1.00  0.00     0.218 HD
ENDBRANCH  17  19
ENDBRANCH   2   8
BRANCH   5  21
HETATM   21  O2  UNK     1      19.296  -7.748  37.110  1.00  0.00    -0.308 OA
BRANCH  21  22
HETATM   22  C16 UNK     1      20.094  -8.782  36.647  1.00  0.00     0.076 A 
HETATM   23  C17 UNK     1      20.802  -8.611  35.471  1.00  0.00     0.037 A 
HETATM   24  C19 UNK     1      21.604  -9.653  35.004  1.00  0.00     0.003 A 
HETATM   25  C21 UNK     1      21.685 -10.846  35.722  1.00  0.00     0.000 A 
HETATM   26  C20 UNK     1      20.962 -10.998  36.905  1.00  0.00     0.003 A 
HETATM   27  C18 UNK     1      20.160  -9.957  37.373  1.00  0.00     0.037 A 
ENDBRANCH  21  22
ENDBRANCH   5  21
TORSDOF 4
ENDMDL
MODEL 7
REMARK VINA RESULT:      -8.7      1.957      7.212
REMARK  4 active torsions:
REMARK  status: ('A' for Active; 'I' for Inactive)
REMARK    1  A    between atoms: C16_21  and  O2_3 
REMARK    2  A    between atoms: C9_14  and  O2_3 
REMARK    3  A    between atoms: C5_10  and  O3_4 
REMARK    4  A    between atoms: C1_6  and  C2_7 
ROOT
HETATM    1  F1  UNK     1      11.897   6.024   5.350  1.00  0.00    -0.203 F 
HETATM    2  C2  UNK     1       9.173   6.006   8.455  1.00  0.00     0.004 A 
HETATM    3  C7  UNK     1      10.514   5.710   8.704  1.00  0.00     0.054 A 
HETATM    4  C8  UNK     1       8.755   6.307   7.159  1.00  0.00     0.017 A 
HETATM    5  C9  UNK     1      11.436   5.716   7.656  1.00  0.00     0.115 A 
HETATM    6  C12 UNK     1       9.676   6.312   6.112  1.00  0.00     0.046 A 
HETATM    7  C13 UNK     1      11.016   6.018   6.361  1.00  0.00     0.150 A 
ENDROOT
BRANCH   2   8
HETATM    8  C1  UNK     1       8.200   6.000   9.562  1.00  0.00     0.123 A 
HETATM    9  O1  UNK     1       7.918   7.269  10.041  1.00  0.00    -0.306 OA
HETATM   10  C4  UNK     1       7.024   7.395  11.073  1.00  0.00     0.090 A 
HETATM   11  C11 UNK     1       6.753   8.686  11.526  1.00  0.00     0.038 A 
HETATM   12  C3  UNK     1       6.396   6.301  11.666  1.00  0.00     0.051 A 
HETATM   13  C15 UNK     1       5.851   8.878  12.572  1.00  0.00     0.003 A 
HETATM   14  C14 UNK     1       5.222   7.783  13.165  1.00  0.00     0.001 A 
HETATM   15  C10 UNK     1       5.493   6.491  12.715  1.00  0.00     0.018 A 
HETATM   16  C6  UNK     1       6.703   4.951  11.171  1.00  0.00     0.220 A 
HETATM   17  C5  UNK     1       7.671   4.863  10.051  1.00  0.00     0.152 A 
HETATM   18  O4  UNK     1       6.188   3.953  11.657  1.00  0.00    -0.284 OA
BRANCH  17  19
HETATM   19  O3  UNK     1       7.998   3.614   9.572  1.00  0.00    -0.355 OA
HETATM   20  H8  UNK     1       8.807   3.296  10.003  1.00  0.00     0.218 HD
ENDBRANCH  17  19
ENDBRANCH   2   8
BRANCH   5  21
HETATM   21  O2  UNK     1      12.744   5.428   7.901  1.00  0.00    -0.308 OA
BRANCH  21  22
HETATM   22  C16 UNK     1      13.505   6.390   8.544  1.00  0.00     0.076 A 
HETATM   23  C17 UNK     1      14.213   6.041   9.680  1.00  0.00     0.037 A 
HETATM   24  C19 UNK     1      14.978   7.011  10.328  1.00  0.00     0.003 A 
HETATM   25  C21 UNK     1      15.023   8.312   9.829  1.00  0.00     0.000 A 
HETATM   26  C20 UNK     1      14.302   8.644   8.682  1.00  0.00     0.003 A 
HETATM   27  C18 UNK     1      13.536   7.675   8.034  1.00  0.00     0.037 A 
ENDBRANCH  21  22
ENDBRANCH   5  21
TORSDOF 4
ENDMDL
MODEL 8
REMARK VINA RESULT:      -8.7      1.229      1.467
REMARK  4 active torsions:
REMARK  status: ('A' for Active; 'I' for Inactive)
REMARK    1  A    between atoms: C16_21  and  O2_3 
REMARK    2  A    between atoms: C9_14  and  O2_3 
REMARK    3  A    between atoms: C5_10  and  O3_4 
REMARK    4  A    between atoms: C1_6  and  C2_7 
ROOT
HETATM    1  F1  UNK     1       8.275   6.188   6.084  1.00  0.00    -0.203 F 
HETATM    2  C2  UNK     1      11.769   7.228   8.026  1.00  0.00     0.004 A 
HETATM    3  C7  UNK     1      10.535   7.545   8.596  1.00  0.00     0.054 A 
HETATM    4  C8  UNK     1      11.820   6.561   6.802  1.00  0.00     0.017 A 
HETATM    5  C9  UNK     1       9.353   7.194   7.941  1.00  0.00     0.115 A 
HETATM    6  C12 UNK     1      10.640   6.211   6.148  1.00  0.00     0.046 A 
HETATM    7  C13 UNK     1       9.406   6.527   6.717  1.00  0.00     0.150 A 
ENDROOT
BRANCH   2   8
HETATM    8  C1  UNK     1      13.016   7.598   8.717  1.00  0.00     0.123 A 
HETATM    9  O1  UNK     1      13.588   8.757   8.217  1.00  0.00    -0.306 OA
HETATM   10  C4  UNK     1      14.756   9.205   8.780  1.00  0.00     0.090 A 
HETATM   11  C11 UNK     1      15.301  10.381   8.262  1.00  0.00     0.038 A 
HETATM   12  C3  UNK     1      15.395   8.541   9.824  1.00  0.00     0.051 A 
HETATM   13  C15 UNK     1      16.486  10.888   8.795  1.00  0.00     0.003 A 
HETATM   14  C14 UNK     1      17.126  10.222   9.841  1.00  0.00     0.001 A 
HETATM   15  C10 UNK     1      16.583   9.045  10.358  1.00  0.00     0.018 A 
HETATM   16  C6  UNK     1      14.800   7.302  10.349  1.00  0.00     0.220 A 
HETATM   17  C5  UNK     1      13.536   6.857   9.713  1.00  0.00     0.152 A 
HETATM   18  O4  UNK     1      15.320   6.671  11.259  1.00  0.00    -0.284 OA
BRANCH  17  19
HETATM   19  O3  UNK     1      12.958   5.691  10.165  1.00  0.00    -0.355 OA
HETATM   20  H8  UNK     1      13.238   4.947   9.609  1.00  0.00     0.218 HD
ENDBRANCH  17  19
ENDBRANCH   2   8
BRANCH   5  21
HETATM   21  O2  UNK     1       8.150   7.504   8.499  1.00  0.00    -0.308 OA
BRANCH  21  22
HETATM   22  C16 UNK     1       7.684   6.688   9.516  1.00  0.00     0.076 A 
HETATM   23  C17 UNK     1       7.851   5.319   9.412  1.00  0.00     0.037 A 
HETATM   24  C19 UNK     1       7.381   4.497  10.437  1.00  0.00     0.003 A 
HETATM   25  C21 UNK     1       6.753   5.059  11.549  1.00  0.00     0.000 A 
HETATM   26  C20 UNK     1       6.594   6.442  11.634  1.00  0.00     0.003 A 
HETATM   27  C18 UNK     1       7.064   7.264  10.610  1.00  0.00     0.037 A 
ENDBRANCH  21  22
ENDBRANCH   5  21
TORSDOF 4
ENDMDL
MODEL 9
REMARK VINA RESULT:      -8.7     24.062     25.875
REMARK  4 active torsions:
REMARK  status: ('A' for Active; 'I' for Inactive)
REMARK    1  A    between atoms: C16_21  and  O2_3 
REMARK    2  A    between atoms: C9_14  and  O2_3 
REMARK    3  A    between atoms: C5_10  and  O3_4 
REMARK    4  A    between atoms: C1_6  and  C2_7 
ROOT
HETATM    1  F1  UNK     1      18.738   6.442  29.734  1.00  0.00    -0.203 F 
HETATM    2  C2  UNK     1      18.426   3.232  32.315  1.00  0.00     0.004 A 
HETATM    3  C7  UNK     1      18.174   4.524  32.778  1.00  0.00     0.054 A 
HETATM    4  C8  UNK     1      18.782   3.026  30.982  1.00  0.00     0.017 A 
HETATM    5  C9  UNK     1      18.280   5.610  31.907  1.00  0.00     0.115 A 
HETATM    6  C12 UNK     1      18.887   4.111  30.112  1.00  0.00     0.046 A 
HETATM    7  C13 UNK     1      18.636   5.403  30.574  1.00  0.00     0.150 A 
ENDROOT
BRANCH   2   8
HETATM    8  C1  UNK     1      18.315   2.086  33.233  1.00  0.00     0.123 A 
HETATM    9  O1  UNK     1      17.995   2.460  34.529  1.00  0.00    -0.306 OA
HETATM   10  C4  UNK     1      17.862   1.479  35.479  1.00  0.00     0.090 A 
HETATM   11  C11 UNK     1      17.528   1.887  36.770  1.00  0.00     0.038 A 
HETATM   12  C3  UNK     1      18.046   0.127  35.199  1.00  0.00     0.051 A 
HETATM   13  C15 UNK     1      17.378   0.936  37.780  1.00  0.00     0.003 A 
HETATM   14  C14 UNK     1      17.562  -0.418  37.499  1.00  0.00     0.001 A 
HETATM   15  C10 UNK     1      17.898  -0.827  36.208  1.00  0.00     0.018 A 
HETATM   16  C6  UNK     1      18.402  -0.274  33.830  1.00  0.00     0.220 A 
HETATM   17  C5  UNK     1      18.530   0.818  32.835  1.00  0.00     0.152 A 
HETATM   18  O4  UNK     1      18.584  -1.446  33.527  1.00  0.00    -0.284 OA
BRANCH  17  19
HETATM   19  O3  UNK     1      18.879   0.484  31.545  1.00  0.00    -0.355 OA
HETATM   20  H8  UNK     1      18.869   1.276  30.985  1.00  0.00     0.218 HD
ENDBRANCH  17  19
ENDBRANCH   2   8
BRANCH   5  21
HETATM   21  O2  UNK     1      18.033   6.870  32.360  1.00  0.00    -0.308 OA
BRANCH  21  22
HETATM   22  C16 UNK     1      16.743   7.167  32.766  1.00  0.00     0.076 A 
HETATM   23  C17 UNK     1      15.700   7.001  31.872  1.00  0.00     0.037 A 
HETATM   24  C19 UNK     1      14.401   7.301  32.281  1.00  0.00     0.003 A 
HETATM   25  C21 UNK     1      14.166   7.759  33.577  1.00  0.00     0.000 A 
HETATM   26  C20 UNK     1      15.231   7.920  34.463  1.00  0.00     0.003 A 
HETATM   27  C18 UNK     1      16.531   7.620  34.055  1.00  0.00     0.037 A 
ENDBRANCH  21  22
ENDBRANCH   5  21
TORSDOF 4
ENDMDL
MODEL 10
REMARK VINA RESULT:      -8.6      2.981      8.129
REMARK  4 active torsions:
REMARK  status: ('A' for Active; 'I' for Inactive)
REMARK    1  A    between atoms: C16_21  and  O2_3 
REMARK    2  A    between atoms: C9_14  and  O2_3 
REMARK    3  A    between atoms: C5_10  and  O3_4 
REMARK    4  A    between atoms: C1_6  and  C2_7 
ROOT
HETATM    1  F1  UNK     1      17.739   7.333  10.840  1.00  0.00    -0.203 F 
HETATM    2  C2  UNK     1      14.086   6.759   9.000  1.00  0.00     0.004 A 
HETATM    3  C7  UNK     1      14.484   8.044   9.371  1.00  0.00     0.054 A 
HETATM    4  C8  UNK     1      14.922   5.671   9.251  1.00  0.00     0.017 A 
HETATM    5  C9  UNK     1      15.719   8.240   9.993  1.00  0.00     0.115 A 
HETATM    6  C12 UNK     1      16.155   5.867   9.872  1.00  0.00     0.046 A 
HETATM    7  C13 UNK     1      16.554   7.151  10.243  1.00  0.00     0.150 A 
ENDROOT
BRANCH   2   8
HETATM    8  C1  UNK     1      12.783   6.552   8.344  1.00  0.00     0.123 A 
HETATM    9  O1  UNK     1      11.749   6.354   9.244  1.00  0.00    -0.306 OA
HETATM   10  C4  UNK     1      10.485   6.151   8.754  1.00  0.00     0.090 A 
HETATM   11  C11 UNK     1       9.463   5.966   9.686  1.00  0.00     0.038 A 
HETATM   12  C3  UNK     1      10.199   6.124   7.391  1.00  0.00     0.051 A 
HETATM   13  C15 UNK     1       8.156   5.756   9.248  1.00  0.00     0.003 A 
HETATM   14  C14 UNK     1       7.869   5.729   7.883  1.00  0.00     0.001 A 
HETATM   15  C10 UNK     1       8.891   5.912   6.949  1.00  0.00     0.018 A 
HETATM   16  C6  UNK     1      11.295   6.318   6.430  1.00  0.00     0.220 A 
HETATM   17  C5  UNK     1      12.644   6.539   7.005  1.00  0.00     0.152 A 
HETATM   18  O4  UNK     1      11.106   6.296   5.221  1.00  0.00    -0.284 OA
BRANCH  17  19
HETATM   19  O3  UNK     1      13.700   6.707   6.137  1.00  0.00    -0.355 OA
HETATM   20  H8  UNK     1      13.767   7.639   5.876  1.00  0.00     0.218 HD
ENDBRANCH  17  19
ENDBRANCH   2   8
BRANCH   5  21
HETATM   21  O2  UNK     1      16.106   9.495  10.353  1.00  0.00    -0.308 OA
BRANCH  21  22
HETATM   22  C16 UNK     1      16.508  10.357   9.348  1.00  0.00     0.076 A 
HETATM   23  C17 UNK     1      17.860  10.560   9.134  1.00  0.00     0.037 A 
HETATM   24  C19 UNK     1      18.265  11.429   8.121  1.00  0.00     0.003 A 
HETATM   25  C21 UNK     1      17.311  12.081   7.339  1.00  0.00     0.000 A 
HETATM   26  C20 UNK     1      15.953  11.863   7.570  1.00  0.00     0.003 A 
HETATM   27  C18 UNK     1      15.548  10.993   8.583  1.00  0.00     0.037 A 
ENDBRANCH  21  22
ENDBRANCH   5  21
TORSDOF 4
ENDMDL
