MODEL 1
REMARK VINA RESULT:      -8.8      0.000      0.000
REMARK  9 active torsions:
REMARK  status: ('A' for Active; 'I' for Inactive)
REMARK    1  A    between atoms: C10_15  and  O1_1 
REMARK    2  A    between atoms: C4_9  and  O1_1 
REMARK    3  A    between atoms: C15_20  and  O2_2 
REMARK    4  A    between atoms: C17_22  and  O2_2 
REMARK    5  A    between atoms: C9_14  and  O3_3 
REMARK    6  A    between atoms: C14_19  and  O4_4 
REMARK    7  A    between atoms: C1_6  and  C3_8 
REMARK    8  A    between atoms: C2_7  and  C5_10 
REMARK    9  A    between atoms: C10_15  and  C15_20 
ROOT
HETATM    1  N1  UNK     1      14.336   6.919  31.707  1.00  0.00    -0.191 NA
HETATM    2  C3  UNK     1      16.297   8.079  32.940  1.00  0.00     0.055 C 
HETATM    3  C5  UNK     1      17.550   7.570  32.824  1.00  0.00     0.034 C 
HETATM    4  C18 UNK     1      15.216   7.438  32.259  1.00  0.00     0.100 C 
ENDROOT
BRANCH   2   5
HETATM    5  C1  UNK     1      15.997   9.275  33.752  1.00  0.00    -0.013 A 
HETATM    6  C6  UNK     1      16.966  10.252  33.900  1.00  0.00     0.052 A 
HETATM    7  C9  UNK     1      16.683  11.382  34.667  1.00  0.00     0.102 A 
HETATM    8  C14 UNK     1      15.435  11.517  35.275  1.00  0.00     0.101 A 
HETATM    9  C16 UNK     1      14.470  10.522  35.116  1.00  0.00     0.040 A 
HETATM   10  C11 UNK     1      14.754   9.392  34.348  1.00  0.00     0.016 A 
BRANCH   7  11
HETATM   11  O3  UNK     1      17.634  12.346  34.815  1.00  0.00    -0.353 OA
HETATM   12  C24 UNK     1      17.753  13.306  33.767  1.00  0.00     0.210 C 
ENDBRANCH   7  11
BRANCH   8  13
HETATM   13  O4  UNK     1      15.146  12.616  36.027  1.00  0.00    -0.353 OA
HETATM   14  C25 UNK     1      13.769  12.872  36.296  1.00  0.00     0.210 C 
ENDBRANCH   8  13
ENDBRANCH   2   5
BRANCH   3  15
HETATM   15  C2  UNK     1      17.950   6.400  32.059  1.00  0.00    -0.035 A 
HETATM   16  C7  UNK     1      18.457   6.550  30.768  1.00  0.00     0.014 A 
HETATM   17  C12 UNK     1      18.840   5.428  30.034  1.00  0.00     0.037 A 
HETATM   18  C4  UNK     1      18.717   4.155  30.591  1.00  0.00     0.068 A 
HETATM   19  C13 UNK     1      18.210   4.005  31.882  1.00  0.00     0.037 A 
HETATM   20  C8  UNK     1      17.827   5.126  32.616  1.00  0.00     0.014 A 
BRANCH  18  21
HETATM   21  O1  UNK     1      19.090   3.060  29.874  1.00  0.00    -0.349 OA
BRANCH  21  22
HETATM   22  C10 UNK     1      18.129   2.520  28.968  1.00  0.00     0.202 C 
BRANCH  22  23
HETATM   23  C15 UNK     1      18.499   1.083  28.653  1.00  0.00     0.202 C 
BRANCH  23  24
HETATM   24  O2  UNK     1      19.802   0.818  29.160  1.00  0.00    -0.349 OA
BRANCH  24  25
HETATM   25  C17 UNK     1      19.930  -0.259  29.997  1.00  0.00     0.068 A 
HETATM   26  C19 UNK     1      20.560  -1.413  29.543  1.00  0.00     0.037 A 
HETATM   27  C21 UNK     1      20.692  -2.509  30.395  1.00  0.00     0.003 A 
HETATM   28  C23 UNK     1      20.193  -2.445  31.696  1.00  0.00     0.000 A 
HETATM   29  C22 UNK     1      19.562  -1.285  32.145  1.00  0.00     0.003 A 
HETATM   30  C20 UNK     1      19.430  -0.188  31.292  1.00  0.00     0.037 A 
ENDBRANCH  24  25
ENDBRANCH  23  24
ENDBRANCH  22  23
ENDBRANCH  21  22
ENDBRANCH  18  21
ENDBRANCH   3  15
TORSDOF 9
ENDMDL
MODEL 2
REMARK VINA RESULT:      -8.6      1.543      2.242
REMARK  9 active torsions:
REMARK  status: ('A' for Active; 'I' for Inactive)
REMARK    1  A    between atoms: C10_15  and  O1_1 
REMARK    2  A    between atoms: C4_9  and  O1_1 
REMARK    3  A    between atoms: C15_20  and  O2_2 
REMARK    4  A    between atoms: C17_22  and  O2_2 
REMARK    5  A    between atoms: C9_14  and  O3_3 
REMARK    6  A    between atoms: C14_19  and  O4_4 
REMARK    7  A    between atoms: C1_6  and  C3_8 
REMARK    8  A    between atoms: C2_7  and  C5_10 
REMARK    9  A    between atoms: C10_15  and  C15_20 
ROOT
HETATM    1  N1  UNK     1      13.515   6.931  32.026  1.00  0.00    -0.191 NA
HETATM    2  C3  UNK     1      15.063   8.623  33.230  1.00  0.00     0.055 C 
HETATM    3  C5  UNK     1      16.402   8.399  33.255  1.00  0.00     0.034 C 
HETATM    4  C18 UNK     1      14.210   7.688  32.565  1.00  0.00     0.100 C 
ENDROOT
BRANCH   2   5
HETATM    5  C1  UNK     1      14.442   9.798  33.871  1.00  0.00    -0.013 A 
HETATM    6  C6  UNK     1      14.782  10.115  35.176  1.00  0.00     0.052 A 
HETATM    7  C9  UNK     1      14.195  11.226  35.782  1.00  0.00     0.102 A 
HETATM    8  C14 UNK     1      13.279  12.003  35.074  1.00  0.00     0.101 A 
HETATM    9  C16 UNK     1      12.947  11.669  33.761  1.00  0.00     0.040 A 
HETATM   10  C11 UNK     1      13.534  10.558  33.155  1.00  0.00     0.016 A 
BRANCH   7  11
HETATM   11  O3  UNK     1      14.526  11.541  37.065  1.00  0.00    -0.353 OA
HETATM   12  C24 UNK     1      13.671  11.050  38.095  1.00  0.00     0.210 C 
ENDBRANCH   7  11
BRANCH   8  13
HETATM   13  O4  UNK     1      12.698  13.091  35.655  1.00  0.00    -0.353 OA
HETATM   14  C25 UNK     1      11.641  13.722  34.936  1.00  0.00     0.210 C 
ENDBRANCH   8  13
ENDBRANCH   2   5
BRANCH   3  15
HETATM   15  C2  UNK     1      17.111   7.276  32.663  1.00  0.00    -0.035 A 
HETATM   16  C7  UNK     1      17.649   7.388  31.380  1.00  0.00     0.014 A 
HETATM   17  C12 UNK     1      18.328   6.311  30.812  1.00  0.00     0.037 A 
HETATM   18  C4  UNK     1      18.470   5.121  31.526  1.00  0.00     0.068 A 
HETATM   19  C13 UNK     1      17.932   5.009  32.808  1.00  0.00     0.037 A 
HETATM   20  C8  UNK     1      17.253   6.086  33.377  1.00  0.00     0.014 A 
BRANCH  18  21
HETATM   21  O1  UNK     1      19.132   4.069  30.972  1.00  0.00    -0.349 OA
BRANCH  21  22
HETATM   22  C10 UNK     1      18.805   3.735  29.623  1.00  0.00     0.202 C 
BRANCH  22  23
HETATM   23  C15 UNK     1      18.362   2.286  29.566  1.00  0.00     0.202 C 
BRANCH  23  24
HETATM   24  O2  UNK     1      19.439   1.491  29.084  1.00  0.00    -0.349 OA
BRANCH  24  25
HETATM   25  C17 UNK     1      19.673   0.309  29.737  1.00  0.00     0.068 A 
HETATM   26  C19 UNK     1      19.359   0.194  31.087  1.00  0.00     0.037 A 
HETATM   27  C21 UNK     1      19.596  -1.009  31.751  1.00  0.00     0.003 A 
HETATM   28  C23 UNK     1      20.147  -2.090  31.062  1.00  0.00     0.000 A 
HETATM   29  C22 UNK     1      20.460  -1.968  29.708  1.00  0.00     0.003 A 
HETATM   30  C20 UNK     1      20.223  -0.764  29.044  1.00  0.00     0.037 A 
ENDBRANCH  24  25
ENDBRANCH  23  24
ENDBRANCH  22  23
ENDBRANCH  21  22
ENDBRANCH  18  21
ENDBRANCH   3  15
TORSDOF 9
ENDMDL
MODEL 3
REMARK VINA RESULT:      -8.5      5.869     12.823
REMARK  9 active torsions:
REMARK  status: ('A' for Active; 'I' for Inactive)
REMARK    1  A    between atoms: C10_15  and  O1_1 
REMARK    2  A    between atoms: C4_9  and  O1_1 
REMARK    3  A    between atoms: C15_20  and  O2_2 
REMARK    4  A    between atoms: C17_22  and  O2_2 
REMARK    5  A    between atoms: C9_14  and  O3_3 
REMARK    6  A    between atoms: C14_19  and  O4_4 
REMARK    7  A    between atoms: C1_6  and  C3_8 
REMARK    8  A    between atoms: C2_7  and  C5_10 
REMARK    9  A    between atoms: C10_15  and  C15_20 
ROOT
HETATM    1  N1  UNK     1      22.212  -1.783  35.286  1.00  0.00    -0.191 NA
HETATM    2  C3  UNK     1      20.057  -2.908  36.181  1.00  0.00     0.055 C 
HETATM    3  C5  UNK     1      18.861  -2.289  36.006  1.00  0.00     0.034 C 
HETATM    4  C18 UNK     1      21.245  -2.286  35.686  1.00  0.00     0.100 C 
ENDROOT
BRANCH   2   5
HETATM    5  C1  UNK     1      20.186  -4.206  36.872  1.00  0.00    -0.013 A 
HETATM    6  C6  UNK     1      19.195  -5.159  36.712  1.00  0.00     0.052 A 
HETATM    7  C9  UNK     1      19.317  -6.386  37.365  1.00  0.00     0.102 A 
HETATM    8  C14 UNK     1      20.429  -6.639  38.168  1.00  0.00     0.101 A 
HETATM    9  C16 UNK     1      21.418  -5.668  38.319  1.00  0.00     0.040 A 
HETATM   10  C11 UNK     1      21.296  -4.441  37.665  1.00  0.00     0.016 A 
BRANCH   7  11
HETATM   11  O3  UNK     1      18.345  -7.326  37.210  1.00  0.00    -0.353 OA
HETATM   12  C24 UNK     1      18.315  -8.031  35.971  1.00  0.00     0.210 C 
ENDBRANCH   7  11
BRANCH   8  13
HETATM   13  O4  UNK     1      20.560  -7.834  38.811  1.00  0.00    -0.353 OA
HETATM   14  C25 UNK     1      21.378  -8.820  38.186  1.00  0.00     0.210 C 
ENDBRANCH   8  13
ENDBRANCH   2   5
BRANCH   3  15
HETATM   15  C2  UNK     1      18.626  -1.014  35.349  1.00  0.00    -0.035 A 
HETATM   16  C7  UNK     1      18.526  -0.953  33.959  1.00  0.00     0.014 A 
HETATM   17  C12 UNK     1      18.301   0.271  33.329  1.00  0.00     0.037 A 
HETATM   18  C4  UNK     1      18.174   1.434  34.088  1.00  0.00     0.068 A 
HETATM   19  C13 UNK     1      18.275   1.373  35.478  1.00  0.00     0.037 A 
HETATM   20  C8  UNK     1      18.500   0.150  36.109  1.00  0.00     0.014 A 
BRANCH  18  21
HETATM   21  O1  UNK     1      17.956   2.628  33.473  1.00  0.00    -0.349 OA
BRANCH  21  22
HETATM   22  C10 UNK     1      18.302   2.719  32.092  1.00  0.00     0.202 C 
BRANCH  22  23
HETATM   23  C15 UNK     1      18.187   4.165  31.647  1.00  0.00     0.202 C 
BRANCH  23  24
HETATM   24  O2  UNK     1      17.445   4.891  32.619  1.00  0.00    -0.349 OA
BRANCH  24  25
HETATM   25  C17 UNK     1      18.077   5.954  33.210  1.00  0.00     0.068 A 
HETATM   26  C19 UNK     1      19.395   6.243  32.877  1.00  0.00     0.037 A 
HETATM   27  C21 UNK     1      20.038   7.325  33.476  1.00  0.00     0.003 A 
HETATM   28  C23 UNK     1      19.359   8.112  34.406  1.00  0.00     0.000 A 
HETATM   29  C22 UNK     1      18.035   7.817  34.736  1.00  0.00     0.003 A 
HETATM   30  C20 UNK     1      17.393   6.734  34.136  1.00  0.00     0.037 A 
ENDBRANCH  24  25
ENDBRANCH  23  24
ENDBRANCH  22  23
ENDBRANCH  21  22
ENDBRANCH  18  21
ENDBRANCH   3  15
TORSDOF 9
ENDMDL
MODEL 4
REMARK VINA RESULT:      -8.5      1.058      2.165
REMARK  9 active torsions:
REMARK  status: ('A' for Active; 'I' for Inactive)
REMARK    1  A    between atoms: C10_15  and  O1_1 
REMARK    2  A    between atoms: C4_9  and  O1_1 
REMARK    3  A    between atoms: C15_20  and  O2_2 
REMARK    4  A    between atoms: C17_22  and  O2_2 
REMARK    5  A    between atoms: C9_14  and  O3_3 
REMARK    6  A    between atoms: C14_19  and  O4_4 
REMARK    7  A    between atoms: C1_6  and  C3_8 
REMARK    8  A    between atoms: C2_7  and  C5_10 
REMARK    9  A    between atoms: C10_15  and  C15_20 
ROOT
HETATM    1  N1  UNK     1      14.077   6.917  31.769  1.00  0.00    -0.191 NA
HETATM    2  C3  UNK     1      15.938   8.336  32.878  1.00  0.00     0.055 C 
HETATM    3  C5  UNK     1      17.224   7.905  32.825  1.00  0.00     0.034 C 
HETATM    4  C18 UNK     1      14.912   7.551  32.265  1.00  0.00     0.100 C 
ENDROOT
BRANCH   2   5
HETATM    5  C1  UNK     1      15.547   9.589  33.553  1.00  0.00    -0.013 A 
HETATM    6  C6  UNK     1      14.210   9.945  33.599  1.00  0.00     0.052 A 
HETATM    7  C9  UNK     1      13.841  11.129  34.237  1.00  0.00     0.102 A 
HETATM    8  C14 UNK     1      14.815  11.939  34.820  1.00  0.00     0.101 A 
HETATM    9  C16 UNK     1      16.158  11.566  34.763  1.00  0.00     0.040 A 
HETATM   10  C11 UNK     1      16.527  10.382  34.126  1.00  0.00     0.016 A 
BRANCH   7  11
HETATM   11  O3  UNK     1      12.526  11.482  34.285  1.00  0.00    -0.353 OA
HETATM   12  C24 UNK     1      11.939  11.958  33.076  1.00  0.00     0.210 C 
ENDBRANCH   7  11
BRANCH   8  13
HETATM   13  O4  UNK     1      14.468  13.098  35.446  1.00  0.00    -0.353 OA
HETATM   14  C25 UNK     1      14.842  13.231  36.816  1.00  0.00     0.210 C 
ENDBRANCH   8  13
ENDBRANCH   2   5
BRANCH   3  15
HETATM   15  C2  UNK     1      17.713   6.690  32.194  1.00  0.00    -0.035 A 
HETATM   16  C7  UNK     1      17.656   5.476  32.880  1.00  0.00     0.014 A 
HETATM   17  C12 UNK     1      18.126   4.311  32.276  1.00  0.00     0.037 A 
HETATM   18  C4  UNK     1      18.652   4.357  30.985  1.00  0.00     0.068 A 
HETATM   19  C13 UNK     1      18.710   5.571  30.299  1.00  0.00     0.037 A 
HETATM   20  C8  UNK     1      18.240   6.737  30.903  1.00  0.00     0.014 A 
BRANCH  18  21
HETATM   21  O1  UNK     1      19.112   3.221  30.395  1.00  0.00    -0.349 OA
BRANCH  21  22
HETATM   22  C10 UNK     1      18.569   2.888  29.117  1.00  0.00     0.202 C 
BRANCH  22  23
HETATM   23  C15 UNK     1      18.341   1.390  29.051  1.00  0.00     0.202 C 
BRANCH  23  24
HETATM   24  O2  UNK     1      19.598   0.733  28.952  1.00  0.00    -0.349 OA
BRANCH  24  25
HETATM   25  C17 UNK     1      19.838  -0.277  29.846  1.00  0.00     0.068 A 
HETATM   26  C19 UNK     1      19.416  -0.145  31.164  1.00  0.00     0.037 A 
HETATM   27  C21 UNK     1      19.659  -1.173  32.075  1.00  0.00     0.003 A 
HETATM   28  C23 UNK     1      20.324  -2.328  31.661  1.00  0.00     0.000 A 
HETATM   29  C22 UNK     1      20.744  -2.454  30.337  1.00  0.00     0.003 A 
HETATM   30  C20 UNK     1      20.502  -1.425  29.427  1.00  0.00     0.037 A 
ENDBRANCH  24  25
ENDBRANCH  23  24
ENDBRANCH  22  23
ENDBRANCH  21  22
ENDBRANCH  18  21
ENDBRANCH   3  15
TORSDOF 9
ENDMDL
MODEL 5
REMARK VINA RESULT:      -8.4      2.903      4.221
REMARK  9 active torsions:
REMARK  status: ('A' for Active; 'I' for Inactive)
REMARK    1  A    between atoms: C10_15  and  O1_1 
REMARK    2  A    between atoms: C4_9  and  O1_1 
REMARK    3  A    between atoms: C15_20  and  O2_2 
REMARK    4  A    between atoms: C17_22  and  O2_2 
REMARK    5  A    between atoms: C9_14  and  O3_3 
REMARK    6  A    between atoms: C14_19  and  O4_4 
REMARK    7  A    between atoms: C1_6  and  C3_8 
REMARK    8  A    between atoms: C2_7  and  C5_10 
REMARK    9  A    between atoms: C10_15  and  C15_20 
ROOT
HETATM    1  N1  UNK     1      21.269   6.311  32.753  1.00  0.00    -0.191 NA
HETATM    2  C3  UNK     1      18.749   6.875  32.962  1.00  0.00     0.055 C 
HETATM    3  C5  UNK     1      17.828   5.922  32.669  1.00  0.00     0.034 C 
HETATM    4  C18 UNK     1      20.140   6.562  32.846  1.00  0.00     0.100 C 
ENDROOT
BRANCH   2   5
HETATM    5  C1  UNK     1      18.375   8.236  33.393  1.00  0.00    -0.013 A 
HETATM    6  C6  UNK     1      17.055   8.639  33.290  1.00  0.00     0.052 A 
HETATM    7  C9  UNK     1      16.701   9.925  33.697  1.00  0.00     0.102 A 
HETATM    8  C14 UNK     1      17.673  10.788  34.202  1.00  0.00     0.101 A 
HETATM    9  C16 UNK     1      18.999  10.366  34.298  1.00  0.00     0.040 A 
HETATM   10  C11 UNK     1      19.353   9.080  33.891  1.00  0.00     0.016 A 
BRANCH   7  11
HETATM   11  O3  UNK     1      15.403  10.325  33.597  1.00  0.00    -0.353 OA
HETATM   12  C24 UNK     1      14.413   9.303  33.518  1.00  0.00     0.210 C 
ENDBRANCH   7  11
BRANCH   8  13
HETATM   13  O4  UNK     1      17.341  12.047  34.603  1.00  0.00    -0.353 OA
HETATM   14  C25 UNK     1      18.155  13.116  34.125  1.00  0.00     0.210 C 
ENDBRANCH   8  13
ENDBRANCH   2   5
BRANCH   3  15
HETATM   15  C2  UNK     1      18.088   4.560  32.232  1.00  0.00    -0.035 A 
HETATM   16  C7  UNK     1      18.366   4.298  30.890  1.00  0.00     0.014 A 
HETATM   17  C12 UNK     1      18.614   2.991  30.471  1.00  0.00     0.037 A 
HETATM   18  C4  UNK     1      18.587   1.946  31.394  1.00  0.00     0.068 A 
HETATM   19  C13 UNK     1      18.308   2.207  32.735  1.00  0.00     0.037 A 
HETATM   20  C8  UNK     1      18.060   3.513  33.155  1.00  0.00     0.014 A 
BRANCH  18  21
HETATM   21  O1  UNK     1      18.828   0.670  30.985  1.00  0.00    -0.349 OA
BRANCH  21  22
HETATM   22  C10 UNK     1      19.667  -0.129  31.817  1.00  0.00     0.202 C 
BRANCH  22  23
HETATM   23  C15 UNK     1      18.816  -1.160  32.533  1.00  0.00     0.202 C 
BRANCH  23  24
HETATM   24  O2  UNK     1      19.146  -1.154  33.917  1.00  0.00    -0.349 OA
BRANCH  24  25
HETATM   25  C17 UNK     1      18.244  -0.562  34.762  1.00  0.00     0.068 A 
HETATM   26  C19 UNK     1      18.700   0.149  35.866  1.00  0.00     0.037 A 
HETATM   27  C21 UNK     1      17.784   0.752  36.727  1.00  0.00     0.003 A 
HETATM   28  C23 UNK     1      16.415   0.641  36.478  1.00  0.00     0.000 A 
HETATM   29  C22 UNK     1      15.964  -0.074  35.368  1.00  0.00     0.003 A 
HETATM   30  C20 UNK     1      16.882  -0.678  34.508  1.00  0.00     0.037 A 
ENDBRANCH  24  25
ENDBRANCH  23  24
ENDBRANCH  22  23
ENDBRANCH  21  22
ENDBRANCH  18  21
ENDBRANCH   3  15
TORSDOF 9
ENDMDL
MODEL 6
REMARK VINA RESULT:      -8.3      2.154      4.024
REMARK  9 active torsions:
REMARK  status: ('A' for Active; 'I' for Inactive)
REMARK    1  A    between atoms: C10_15  and  O1_1 
REMARK    2  A    between atoms: C4_9  and  O1_1 
REMARK    3  A    between atoms: C15_20  and  O2_2 
REMARK    4  A    between atoms: C17_22  and  O2_2 
REMARK    5  A    between atoms: C9_14  and  O3_3 
REMARK    6  A    between atoms: C14_19  and  O4_4 
REMARK    7  A    between atoms: C1_6  and  C3_8 
REMARK    8  A    between atoms: C2_7  and  C5_10 
REMARK    9  A    between atoms: C10_15  and  C15_20 
ROOT
HETATM    1  N1  UNK     1      20.978   5.804  30.563  1.00  0.00    -0.191 NA
HETATM    2  C3  UNK     1      18.655   5.581  31.686  1.00  0.00     0.055 C 
HETATM    3  C5  UNK     1      17.945   4.435  31.524  1.00  0.00     0.034 C 
HETATM    4  C18 UNK     1      19.937   5.702  31.065  1.00  0.00     0.100 C 
ENDROOT
BRANCH   2   5
HETATM    5  C1  UNK     1      18.152   6.721  32.476  1.00  0.00    -0.013 A 
HETATM    6  C6  UNK     1      16.880   7.207  32.230  1.00  0.00     0.052 A 
HETATM    7  C9  UNK     1      16.405   8.284  32.977  1.00  0.00     0.102 A 
HETATM    8  C14 UNK     1      17.210   8.859  33.960  1.00  0.00     0.101 A 
HETATM    9  C16 UNK     1      18.490   8.359  34.195  1.00  0.00     0.040 A 
HETATM   10  C11 UNK     1      18.965   7.280  33.447  1.00  0.00     0.016 A 
BRANCH   7  11
HETATM   11  O3  UNK     1      15.153   8.765  32.738  1.00  0.00    -0.353 OA
HETATM   12  C24 UNK     1      14.071   7.844  32.853  1.00  0.00     0.210 C 
ENDBRANCH   7  11
BRANCH   8  13
HETATM   13  O4  UNK     1      16.758   9.913  34.697  1.00  0.00    -0.353 OA
HETATM   14  C25 UNK     1      17.054  11.219  34.209  1.00  0.00     0.210 C 
ENDBRANCH   8  13
ENDBRANCH   2   5
BRANCH   3  15
HETATM   15  C2  UNK     1      18.343   3.261  30.765  1.00  0.00    -0.035 A 
HETATM   16  C7  UNK     1      17.956   3.127  29.431  1.00  0.00     0.014 A 
HETATM   17  C12 UNK     1      18.337   2.001  28.703  1.00  0.00     0.037 A 
HETATM   18  C4  UNK     1      19.106   1.006  29.308  1.00  0.00     0.068 A 
HETATM   19  C13 UNK     1      19.493   1.139  30.642  1.00  0.00     0.037 A 
HETATM   20  C8  UNK     1      19.112   2.265  31.370  1.00  0.00     0.014 A 
BRANCH  18  21
HETATM   21  O1  UNK     1      19.477  -0.094  28.598  1.00  0.00    -0.349 OA
BRANCH  21  22
HETATM   22  C10 UNK     1      20.557  -0.868  29.119  1.00  0.00     0.202 C 
BRANCH  22  23
HETATM   23  C15 UNK     1      19.995  -2.082  29.833  1.00  0.00     0.202 C 
BRANCH  23  24
HETATM   24  O2  UNK     1      20.806  -2.371  30.965  1.00  0.00    -0.349 OA
BRANCH  24  25
HETATM   25  C17 UNK     1      20.259  -2.121  32.197  1.00  0.00     0.068 A 
HETATM   26  C19 UNK     1      19.100  -1.358  32.293  1.00  0.00     0.037 A 
HETATM   27  C21 UNK     1      18.542  -1.103  33.545  1.00  0.00     0.003 A 
HETATM   28  C23 UNK     1      19.147  -1.613  34.695  1.00  0.00     0.000 A 
HETATM   29  C22 UNK     1      20.309  -2.378  34.591  1.00  0.00     0.003 A 
HETATM   30  C20 UNK     1      20.867  -2.632  33.338  1.00  0.00     0.037 A 
ENDBRANCH  24  25
ENDBRANCH  23  24
ENDBRANCH  22  23
ENDBRANCH  21  22
ENDBRANCH  18  21
ENDBRANCH   3  15
TORSDOF 9
ENDMDL
MODEL 7
REMARK VINA RESULT:      -8.2      2.814      4.740
REMARK  9 active torsions:
REMARK  status: ('A' for Active; 'I' for Inactive)
REMARK    1  A    between atoms: C10_15  and  O1_1 
REMARK    2  A    between atoms: C4_9  and  O1_1 
REMARK    3  A    between atoms: C15_20  and  O2_2 
REMARK    4  A    between atoms: C17_22  and  O2_2 
REMARK    5  A    between atoms: C9_14  and  O3_3 
REMARK    6  A    between atoms: C14_19  and  O4_4 
REMARK    7  A    between atoms: C1_6  and  C3_8 
REMARK    8  A    between atoms: C2_7  and  C5_10 
REMARK    9  A    between atoms: C10_15  and  C15_20 
ROOT
HETATM    1  N1  UNK     1      18.417   3.536  31.193  1.00  0.00    -0.191 NA
HETATM    2  C3  UNK     1      18.308   4.732  33.488  1.00  0.00     0.055 C 
HETATM    3  C5  UNK     1      18.354   3.993  34.626  1.00  0.00     0.034 C 
HETATM    4  C18 UNK     1      18.368   4.070  32.222  1.00  0.00     0.100 C 
ENDROOT
BRANCH   2   5
HETATM    5  C1  UNK     1      18.189   6.203  33.500  1.00  0.00    -0.013 A 
HETATM    6  C6  UNK     1      17.207   6.809  32.737  1.00  0.00     0.052 A 
HETATM    7  C9  UNK     1      17.095   8.199  32.749  1.00  0.00     0.102 A 
HETATM    8  C14 UNK     1      17.968   8.961  33.524  1.00  0.00     0.101 A 
HETATM    9  C16 UNK     1      18.953   8.335  34.287  1.00  0.00     0.040 A 
HETATM   10  C11 UNK     1      19.064   6.944  34.275  1.00  0.00     0.016 A 
BRANCH   7  11
HETATM   11  O3  UNK     1      16.129   8.799  31.999  1.00  0.00    -0.353 OA
HETATM   12  C24 UNK     1      14.830   8.902  32.577  1.00  0.00     0.210 C 
ENDBRANCH   7  11
BRANCH   8  13
HETATM   13  O4  UNK     1      17.869  10.320  33.545  1.00  0.00    -0.353 OA
HETATM   14  C25 UNK     1      19.015  11.046  33.984  1.00  0.00     0.210 C 
ENDBRANCH   8  13
ENDBRANCH   2   5
BRANCH   3  15
HETATM   15  C2  UNK     1      18.463   2.546  34.725  1.00  0.00    -0.035 A 
HETATM   16  C7  UNK     1      17.910   1.735  33.733  1.00  0.00     0.014 A 
HETATM   17  C12 UNK     1      18.013   0.348  33.828  1.00  0.00     0.037 A 
HETATM   18  C4  UNK     1      18.671  -0.230  34.915  1.00  0.00     0.068 A 
HETATM   19  C13 UNK     1      19.223   0.581  35.907  1.00  0.00     0.037 A 
HETATM   20  C8  UNK     1      19.119   1.968  35.812  1.00  0.00     0.014 A 
BRANCH  18  21
HETATM   21  O1  UNK     1      18.771  -1.584  35.008  1.00  0.00    -0.349 OA
BRANCH  21  22
HETATM   22  C10 UNK     1      20.056  -2.156  34.772  1.00  0.00     0.202 C 
BRANCH  22  23
HETATM   23  C15 UNK     1      20.170  -2.528  33.306  1.00  0.00     0.202 C 
BRANCH  23  24
HETATM   24  O2  UNK     1      20.978  -1.562  32.644  1.00  0.00    -0.349 OA
BRANCH  24  25
HETATM   25  C17 UNK     1      20.632  -1.247  31.356  1.00  0.00     0.068 A 
HETATM   26  C19 UNK     1      20.532  -2.255  30.404  1.00  0.00     0.037 A 
HETATM   27  C21 UNK     1      20.179  -1.934  29.093  1.00  0.00     0.003 A 
HETATM   28  C23 UNK     1      19.928  -0.607  28.743  1.00  0.00     0.000 A 
HETATM   29  C22 UNK     1      20.029   0.399  29.704  1.00  0.00     0.003 A 
HETATM   30  C20 UNK     1      20.384   0.078  31.015  1.00  0.00     0.037 A 
ENDBRANCH  24  25
ENDBRANCH  23  24
ENDBRANCH  22  23
ENDBRANCH  21  22
ENDBRANCH  18  21
ENDBRANCH   3  15
TORSDOF 9
ENDMDL
MODEL 8
REMARK VINA RESULT:      -8.1      6.800     14.294
REMARK  9 active torsions:
REMARK  status: ('A' for Active; 'I' for Inactive)
REMARK    1  A    between atoms: C10_15  and  O1_1 
REMARK    2  A    between atoms: C4_9  and  O1_1 
REMARK    3  A    between atoms: C15_20  and  O2_2 
REMARK    4  A    between atoms: C17_22  and  O2_2 
REMARK    5  A    between atoms: C9_14  and  O3_3 
REMARK    6  A    between atoms: C14_19  and  O4_4 
REMARK    7  A    between atoms: C1_6  and  C3_8 
REMARK    8  A    between atoms: C2_7  and  C5_10 
REMARK    9  A    between atoms: C10_15  and  C15_20 
ROOT
HETATM    1  N1  UNK     1      17.299  -5.813  36.588  1.00  0.00    -0.191 NA
HETATM    2  C3  UNK     1      19.863  -5.548  36.334  1.00  0.00     0.055 C 
HETATM    3  C5  UNK     1      20.391  -4.309  36.163  1.00  0.00     0.034 C 
HETATM    4  C18 UNK     1      18.448  -5.692  36.474  1.00  0.00     0.100 C 
ENDROOT
BRANCH   2   5
HETATM    5  C1  UNK     1      20.695  -6.766  36.375  1.00  0.00    -0.013 A 
HETATM    6  C6  UNK     1      21.498  -7.001  37.478  1.00  0.00     0.052 A 
HETATM    7  C9  UNK     1      22.284  -8.152  37.517  1.00  0.00     0.102 A 
HETATM    8  C14 UNK     1      22.255  -9.051  36.452  1.00  0.00     0.101 A 
HETATM    9  C16 UNK     1      21.442  -8.799  35.347  1.00  0.00     0.040 A 
HETATM   10  C11 UNK     1      20.656  -7.648  35.308  1.00  0.00     0.016 A 
BRANCH   7  11
HETATM   11  O3  UNK     1      23.074  -8.387  38.601  1.00  0.00    -0.353 OA
HETATM   12  C24 UNK     1      22.482  -8.210  39.886  1.00  0.00     0.210 C 
ENDBRANCH   7  11
BRANCH   8  13
HETATM   13  O4  UNK     1      23.019 -10.180  36.477  1.00  0.00    -0.353 OA
HETATM   14  C25 UNK     1      22.573 -11.281  35.689  1.00  0.00     0.210 C 
ENDBRANCH   8  13
ENDBRANCH   2   5
BRANCH   3  15
HETATM   15  C2  UNK     1      19.664  -3.051  36.102  1.00  0.00    -0.035 A 
HETATM   16  C7  UNK     1      19.614  -2.330  34.908  1.00  0.00     0.014 A 
HETATM   17  C12 UNK     1      18.918  -1.123  34.850  1.00  0.00     0.037 A 
HETATM   18  C4  UNK     1      18.270  -0.637  35.985  1.00  0.00     0.068 A 
HETATM   19  C13 UNK     1      18.320  -1.357  37.179  1.00  0.00     0.037 A 
HETATM   20  C8  UNK     1      19.016  -2.563  37.237  1.00  0.00     0.014 A 
BRANCH  18  21
HETATM   21  O1  UNK     1      17.591   0.542  35.929  1.00  0.00    -0.349 OA
BRANCH  21  22
HETATM   22  C10 UNK     1      17.122   0.959  34.647  1.00  0.00     0.202 C 
BRANCH  22  23
HETATM   23  C15 UNK     1      18.018   2.068  34.130  1.00  0.00     0.202 C 
BRANCH  23  24
HETATM   24  O2  UNK     1      17.773   2.252  32.741  1.00  0.00    -0.349 OA
BRANCH  24  25
HETATM   25  C17 UNK     1      18.221   3.422  32.186  1.00  0.00     0.068 A 
HETATM   26  C19 UNK     1      18.287   4.573  32.963  1.00  0.00     0.037 A 
HETATM   27  C21 UNK     1      18.744   5.763  32.399  1.00  0.00     0.003 A 
HETATM   28  C23 UNK     1      19.132   5.796  31.059  1.00  0.00     0.000 A 
HETATM   29  C22 UNK     1      19.063   4.638  30.284  1.00  0.00     0.003 A 
HETATM   30  C20 UNK     1      18.605   3.447  30.849  1.00  0.00     0.037 A 
ENDBRANCH  24  25
ENDBRANCH  23  24
ENDBRANCH  22  23
ENDBRANCH  21  22
ENDBRANCH  18  21
ENDBRANCH   3  15
TORSDOF 9
ENDMDL
MODEL 9
REMARK VINA RESULT:      -8.1      7.674     14.493
REMARK  9 active torsions:
REMARK  status: ('A' for Active; 'I' for Inactive)
REMARK    1  A    between atoms: C10_15  and  O1_1 
REMARK    2  A    between atoms: C4_9  and  O1_1 
REMARK    3  A    between atoms: C15_20  and  O2_2 
REMARK    4  A    between atoms: C17_22  and  O2_2 
REMARK    5  A    between atoms: C9_14  and  O3_3 
REMARK    6  A    between atoms: C14_19  and  O4_4 
REMARK    7  A    between atoms: C1_6  and  C3_8 
REMARK    8  A    between atoms: C2_7  and  C5_10 
REMARK    9  A    between atoms: C10_15  and  C15_20 
ROOT
HETATM    1  N1  UNK     1      22.294  -4.802  37.957  1.00  0.00    -0.191 NA
HETATM    2  C3  UNK     1      20.113  -5.933  37.135  1.00  0.00     0.055 C 
HETATM    3  C5  UNK     1      19.156  -5.177  36.538  1.00  0.00     0.034 C 
HETATM    4  C18 UNK     1      21.316  -5.307  37.588  1.00  0.00     0.100 C 
ENDROOT
BRANCH   2   5
HETATM    5  C1  UNK     1      19.961  -7.386  37.345  1.00  0.00    -0.013 A 
HETATM    6  C6  UNK     1      20.617  -8.264  36.499  1.00  0.00     0.052 A 
HETATM    7  C9  UNK     1      20.473  -9.637  36.698  1.00  0.00     0.102 A 
HETATM    8  C14 UNK     1      19.677 -10.110  37.740  1.00  0.00     0.101 A 
HETATM    9  C16 UNK     1      19.022  -9.212  38.583  1.00  0.00     0.040 A 
HETATM   10  C11 UNK     1      19.166  -7.839  38.384  1.00  0.00     0.016 A 
BRANCH   7  11
HETATM   11  O3  UNK     1      21.116 -10.504  35.868  1.00  0.00    -0.353 OA
HETATM   12  C24 UNK     1      22.525 -10.640  36.037  1.00  0.00     0.210 C 
ENDBRANCH   7  11
BRANCH   8  13
HETATM   13  O4  UNK     1      19.528 -11.449  37.945  1.00  0.00    -0.353 OA
HETATM   14  C25 UNK     1      19.341 -11.882  39.291  1.00  0.00     0.210 C 
ENDBRANCH   8  13
ENDBRANCH   2   5
BRANCH   3  15
HETATM   15  C2  UNK     1      19.202  -3.745  36.290  1.00  0.00    -0.035 A 
HETATM   16  C7  UNK     1      20.027  -3.237  35.285  1.00  0.00     0.014 A 
HETATM   17  C12 UNK     1      20.072  -1.864  35.047  1.00  0.00     0.037 A 
HETATM   18  C4  UNK     1      19.292  -0.997  35.813  1.00  0.00     0.068 A 
HETATM   19  C13 UNK     1      18.468  -1.505  36.818  1.00  0.00     0.037 A 
HETATM   20  C8  UNK     1      18.423  -2.878  37.056  1.00  0.00     0.014 A 
BRANCH  18  21
HETATM   21  O1  UNK     1      19.337   0.343  35.582  1.00  0.00    -0.349 OA
BRANCH  21  22
HETATM   22  C10 UNK     1      18.233   0.917  34.882  1.00  0.00     0.202 C 
BRANCH  22  23
HETATM   23  C15 UNK     1      18.640   1.175  33.444  1.00  0.00     0.202 C 
BRANCH  23  24
HETATM   24  O2  UNK     1      18.282   0.048  32.652  1.00  0.00    -0.349 OA
BRANCH  24  25
HETATM   25  C17 UNK     1      19.057  -0.202  31.550  1.00  0.00     0.068 A 
HETATM   26  C19 UNK     1      19.763  -1.396  31.461  1.00  0.00     0.037 A 
HETATM   27  C21 UNK     1      20.550  -1.651  30.339  1.00  0.00     0.003 A 
HETATM   28  C23 UNK     1      20.627  -0.710  29.312  1.00  0.00     0.000 A 
HETATM   29  C22 UNK     1      19.916   0.487  29.408  1.00  0.00     0.003 A 
HETATM   30  C20 UNK     1      19.129   0.742  30.531  1.00  0.00     0.037 A 
ENDBRANCH  24  25
ENDBRANCH  23  24
ENDBRANCH  22  23
ENDBRANCH  21  22
ENDBRANCH  18  21
ENDBRANCH   3  15
TORSDOF 9
ENDMDL
MODEL 10
REMARK VINA RESULT:      -7.9      1.805      2.763
REMARK  9 active torsions:
REMARK  status: ('A' for Active; 'I' for Inactive)
REMARK    1  A    between atoms: C10_15  and  O1_1 
REMARK    2  A    between atoms: C4_9  and  O1_1 
REMARK    3  A    between atoms: C15_20  and  O2_2 
REMARK    4  A    between atoms: C17_22  and  O2_2 
REMARK    5  A    between atoms: C9_14  and  O3_3 
REMARK    6  A    between atoms: C14_19  and  O4_4 
REMARK    7  A    between atoms: C1_6  and  C3_8 
REMARK    8  A    between atoms: C2_7  and  C5_10 
REMARK    9  A    between atoms: C10_15  and  C15_20 
ROOT
HETATM    1  N1  UNK     1      19.772   9.368  34.371  1.00  0.00    -0.191 NA
HETATM    2  C3  UNK     1      17.256   9.603  33.806  1.00  0.00     0.055 C 
HETATM    3  C5  UNK     1      16.641   8.627  33.090  1.00  0.00     0.034 C 
HETATM    4  C18 UNK     1      18.645   9.472  34.117  1.00  0.00     0.100 C 
ENDROOT
BRANCH   2   5
HETATM    5  C1  UNK     1      16.548  10.810  34.276  1.00  0.00    -0.013 A 
HETATM    6  C6  UNK     1      15.174  10.766  34.442  1.00  0.00     0.052 A 
HETATM    7  C9  UNK     1      14.504  11.906  34.886  1.00  0.00     0.102 A 
HETATM    8  C14 UNK     1      15.220  13.072  35.158  1.00  0.00     0.101 A 
HETATM    9  C16 UNK     1      16.603  13.100  34.984  1.00  0.00     0.040 A 
HETATM   10  C11 UNK     1      17.273  11.959  34.540  1.00  0.00     0.016 A 
BRANCH   7  11
HETATM   11  O3  UNK     1      13.153  11.868  35.051  1.00  0.00    -0.353 OA
HETATM   12  C24 UNK     1      12.352  12.120  33.898  1.00  0.00     0.210 C 
ENDBRANCH   7  11
BRANCH   8  13
HETATM   13  O4  UNK     1      14.578  14.193  35.592  1.00  0.00    -0.353 OA
HETATM   14  C25 UNK     1      14.428  15.258  34.656  1.00  0.00     0.210 C 
ENDBRANCH   8  13
ENDBRANCH   2   5
BRANCH   3  15
HETATM   15  C2  UNK     1      17.244   7.409  32.576  1.00  0.00    -0.035 A 
HETATM   16  C7  UNK     1      17.326   6.275  33.385  1.00  0.00     0.014 A 
HETATM   17  C12 UNK     1      17.906   5.106  32.893  1.00  0.00     0.037 A 
HETATM   18  C4  UNK     1      18.404   5.070  31.590  1.00  0.00     0.068 A 
HETATM   19  C13 UNK     1      18.323   6.204  30.781  1.00  0.00     0.037 A 
HETATM   20  C8  UNK     1      17.743   7.372  31.273  1.00  0.00     0.014 A 
BRANCH  18  21
HETATM   21  O1  UNK     1      18.971   3.930  31.110  1.00  0.00    -0.349 OA
BRANCH  21  22
HETATM   22  C10 UNK     1      18.794   3.654  29.721  1.00  0.00     0.202 C 
BRANCH  22  23
HETATM   23  C15 UNK     1      18.139   2.294  29.566  1.00  0.00     0.202 C 
BRANCH  23  24
HETATM   24  O2  UNK     1      18.473   1.489  30.690  1.00  0.00    -0.349 OA
BRANCH  24  25
HETATM   25  C17 UNK     1      19.240   0.379  30.448  1.00  0.00     0.068 A 
HETATM   26  C19 UNK     1      19.816   0.201  29.195  1.00  0.00     0.037 A 
HETATM   27  C21 UNK     1      20.597  -0.928  28.948  1.00  0.00     0.003 A 
HETATM   28  C23 UNK     1      20.797  -1.872  29.956  1.00  0.00     0.000 A 
HETATM   29  C22 UNK     1      20.217  -1.686  31.211  1.00  0.00     0.003 A 
HETATM   30  C20 UNK     1      19.434  -0.557  31.457  1.00  0.00     0.037 A 
ENDBRANCH  24  25
ENDBRANCH  23  24
ENDBRANCH  22  23
ENDBRANCH  21  22
ENDBRANCH  18  21
ENDBRANCH   3  15
TORSDOF 9
ENDMDL
