MODEL 1
REMARK VINA RESULT:      -8.1      0.000      0.000
REMARK  3 active torsions:
REMARK  status: ('A' for Active; 'I' for Inactive)
REMARK    1  A    between atoms: C5_11  and  N1_6 
REMARK       I    between atoms: C6_12  and  N1_6 
REMARK    2  A    between atoms: C2_8  and  C6_12 
REMARK    3  A    between atoms: C5_11  and  C7_13 
ROOT
HETATM    1 Cl1  UNK     1      18.281   2.327  28.982  1.00  0.00    -0.084 Cl
HETATM    2  O1  UNK     1      20.822  -2.673  30.806  1.00  0.00    -0.274 OA
HETATM    3  O3  UNK     1      21.401  -4.104  32.492  1.00  0.00    -0.259 OA
HETATM    4  C1  UNK     1      19.621  -0.625  31.332  1.00  0.00     0.001 A 
HETATM    5  C2  UNK     1      20.235  -2.140  33.120  1.00  0.00     0.108 A 
HETATM    6  C3  UNK     1      20.208  -1.473  30.398  1.00  0.00     0.089 A 
HETATM    7  C4  UNK     1      19.651  -0.998  32.738  1.00  0.00     0.037 A 
HETATM    8  C8  UNK     1      19.022   0.556  30.887  1.00  0.00     0.038 A 
HETATM    9  C9  UNK     1      20.865  -3.057  32.145  1.00  0.00     0.304 A 
HETATM   10  C10 UNK     1      20.213  -1.174  29.037  1.00  0.00     0.040 A 
HETATM   11  C11 UNK     1      19.019   0.869  29.525  1.00  0.00     0.035 A 
HETATM   12  C12 UNK     1      19.614   0.006  28.602  1.00  0.00     0.026 A 
ENDROOT
BRANCH   5  13
HETATM   13  C6  UNK     1      20.215  -2.429  34.559  1.00  0.00     0.258 C 
HETATM   14  O2  UNK     1      20.430  -1.544  35.384  1.00  0.00    -0.267 OA
HETATM   15  N1  UNK     1      19.939  -3.756  34.837  1.00  0.00    -0.352 N 
HETATM   16  H4  UNK     1      19.792  -4.416  34.082  1.00  0.00     0.163 HD
BRANCH  15  17
HETATM   17  C5  UNK     1      19.868  -4.280  36.183  1.00  0.00     0.169 C 
BRANCH  17  18
HETATM   18  C7  UNK     1      20.158  -5.756  36.189  1.00  0.00     0.000 A 
HETATM   19  C13 UNK     1      19.798  -6.679  35.255  1.00  0.00     0.017 A 
HETATM   20  C14 UNK     1      20.256  -7.980  35.611  1.00  0.00     0.008 A 
HETATM   21  C15 UNK     1      20.944  -7.978  36.804  1.00  0.00     0.050 A 
HETATM   22  S1  UNK     1      21.036  -6.412  37.489  1.00  0.00    -0.105 SA
ENDBRANCH  17  18
ENDBRANCH  15  17
ENDBRANCH   5  13
TORSDOF 3
ENDMDL
MODEL 2
REMARK VINA RESULT:      -7.9      5.205      8.452
REMARK  3 active torsions:
REMARK  status: ('A' for Active; 'I' for Inactive)
REMARK    1  A    between atoms: C5_11  and  N1_6 
REMARK       I    between atoms: C6_12  and  N1_6 
REMARK    2  A    between atoms: C2_8  and  C6_12 
REMARK    3  A    between atoms: C5_11  and  C7_13 
ROOT
HETATM    1 Cl1  UNK     1      20.154  -3.143  35.337  1.00  0.00    -0.084 Cl
HETATM    2  O1  UNK     1      20.193  -0.913  29.877  1.00  0.00    -0.274 OA
HETATM    3  O3  UNK     1      19.666   0.762  28.414  1.00  0.00    -0.259 OA
HETATM    4  C1  UNK     1      19.586  -0.692  32.221  1.00  0.00     0.001 A 
HETATM    5  C2  UNK     1      19.026   1.084  30.672  1.00  0.00     0.108 A 
HETATM    6  C3  UNK     1      20.170  -1.421  31.190  1.00  0.00     0.089 A 
HETATM    7  C4  UNK     1      19.001   0.605  31.922  1.00  0.00     0.037 A 
HETATM    8  C8  UNK     1      19.584  -1.231  33.510  1.00  0.00     0.038 A 
HETATM    9  C9  UNK     1      19.641   0.326  29.560  1.00  0.00     0.304 A 
HETATM   10  C10 UNK     1      20.749  -2.670  31.411  1.00  0.00     0.040 A 
HETATM   11  C11 UNK     1      20.161  -2.482  33.747  1.00  0.00     0.035 A 
HETATM   12  C12 UNK     1      20.742  -3.200  32.699  1.00  0.00     0.026 A 
ENDROOT
BRANCH   5  13
HETATM   13  C6  UNK     1      18.409   2.401  30.469  1.00  0.00     0.258 C 
HETATM   14  O2  UNK     1      17.187   2.530  30.455  1.00  0.00    -0.267 OA
HETATM   15  N1  UNK     1      19.340   3.410  30.304  1.00  0.00    -0.352 N 
HETATM   16  H4  UNK     1      20.331   3.198  30.315  1.00  0.00     0.163 HD
BRANCH  15  17
HETATM   17  C5  UNK     1      18.973   4.791  30.087  1.00  0.00     0.169 C 
BRANCH  17  18
HETATM   18  C7  UNK     1      19.052   5.567  31.373  1.00  0.00     0.000 A 
HETATM   19  C13 UNK     1      20.146   6.169  31.916  1.00  0.00     0.017 A 
HETATM   20  C14 UNK     1      19.826   6.810  33.147  1.00  0.00     0.008 A 
HETATM   21  C15 UNK     1      18.497   6.660  33.477  1.00  0.00     0.050 A 
HETATM   22  S1  UNK     1      17.642   5.751  32.306  1.00  0.00    -0.105 SA
ENDBRANCH  17  18
ENDBRANCH  15  17
ENDBRANCH   5  13
TORSDOF 3
ENDMDL
MODEL 3
REMARK VINA RESULT:      -7.8      5.754      8.745
REMARK  3 active torsions:
REMARK  status: ('A' for Active; 'I' for Inactive)
REMARK    1  A    between atoms: C5_11  and  N1_6 
REMARK       I    between atoms: C6_12  and  N1_6 
REMARK    2  A    between atoms: C2_8  and  C6_12 
REMARK    3  A    between atoms: C5_11  and  C7_13 
ROOT
HETATM    1 Cl1  UNK     1      21.278  -3.402  32.036  1.00  0.00    -0.084 Cl
HETATM    2  O1  UNK     1      18.985   0.695  28.467  1.00  0.00    -0.274 OA
HETATM    3  O3  UNK     1      18.056   2.760  28.156  1.00  0.00    -0.259 OA
HETATM    4  C1  UNK     1      19.623  -0.008  30.706  1.00  0.00     0.001 A 
HETATM    5  C2  UNK     1      18.637   2.181  30.379  1.00  0.00     0.108 A 
HETATM    6  C3  UNK     1      19.529  -0.265  29.342  1.00  0.00     0.089 A 
HETATM    7  C4  UNK     1      19.153   1.272  31.214  1.00  0.00     0.037 A 
HETATM    8  C8  UNK     1      20.169  -0.986  31.540  1.00  0.00     0.038 A 
HETATM    9  C9  UNK     1      18.527   1.929  28.924  1.00  0.00     0.304 A 
HETATM   10  C10 UNK     1      19.962  -1.470  28.792  1.00  0.00     0.040 A 
HETATM   11  C11 UNK     1      20.608  -2.199  31.003  1.00  0.00     0.035 A 
HETATM   12  C12 UNK     1      20.505  -2.440  29.631  1.00  0.00     0.026 A 
ENDROOT
BRANCH   5  13
HETATM   13  C6  UNK     1      18.189   3.441  30.986  1.00  0.00     0.258 C 
HETATM   14  O2  UNK     1      17.557   3.443  32.040  1.00  0.00    -0.267 OA
HETATM   15  N1  UNK     1      18.555   4.552  30.250  1.00  0.00    -0.352 N 
HETATM   16  H4  UNK     1      19.065   4.444  29.380  1.00  0.00     0.163 HD
BRANCH  15  17
HETATM   17  C5  UNK     1      18.225   5.903  30.646  1.00  0.00     0.169 C 
BRANCH  17  18
HETATM   18  C7  UNK     1      19.158   6.380  31.724  1.00  0.00     0.000 A 
HETATM   19  C13 UNK     1      18.855   7.147  32.808  1.00  0.00     0.017 A 
HETATM   20  C14 UNK     1      20.009   7.392  33.607  1.00  0.00     0.008 A 
HETATM   21  C15 UNK     1      21.135   6.795  33.085  1.00  0.00     0.050 A 
HETATM   22  S1  UNK     1      20.799   5.944  31.638  1.00  0.00    -0.105 SA
ENDBRANCH  17  18
ENDBRANCH  15  17
ENDBRANCH   5  13
TORSDOF 3
ENDMDL
MODEL 4
REMARK VINA RESULT:      -7.8      5.603      9.099
REMARK  3 active torsions:
REMARK  status: ('A' for Active; 'I' for Inactive)
REMARK    1  A    between atoms: C5_11  and  N1_6 
REMARK       I    between atoms: C6_12  and  N1_6 
REMARK    2  A    between atoms: C2_8  and  C6_12 
REMARK    3  A    between atoms: C5_11  and  C7_13 
ROOT
HETATM    1 Cl1  UNK     1      21.607  -3.890  29.951  1.00  0.00    -0.084 Cl
HETATM    2  O1  UNK     1      18.697   0.465  32.662  1.00  0.00    -0.274 OA
HETATM    3  O3  UNK     1      17.820   2.576  32.647  1.00  0.00    -0.259 OA
HETATM    4  C1  UNK     1      19.842  -0.372  30.686  1.00  0.00     0.001 A 
HETATM    5  C2  UNK     1      18.914   1.866  30.668  1.00  0.00     0.108 A 
HETATM    6  C3  UNK     1      19.394  -0.558  31.991  1.00  0.00     0.089 A 
HETATM    7  C4  UNK     1      19.577   0.897  30.026  1.00  0.00     0.037 A 
HETATM    8  C8  UNK     1      20.529  -1.411  30.055  1.00  0.00     0.038 A 
HETATM    9  C9  UNK     1      18.428   1.690  32.055  1.00  0.00     0.304 A 
HETATM   10  C10 UNK     1      19.614  -1.750  32.678  1.00  0.00     0.040 A 
HETATM   11  C11 UNK     1      20.758  -2.613  30.732  1.00  0.00     0.035 A 
HETATM   12  C12 UNK     1      20.301  -2.781  32.041  1.00  0.00     0.026 A 
ENDROOT
BRANCH   5  13
HETATM   13  C6  UNK     1      18.696   3.110  29.920  1.00  0.00     0.258 C 
HETATM   14  O2  UNK     1      18.174   3.093  28.807  1.00  0.00    -0.267 OA
HETATM   15  N1  UNK     1      19.136   4.231  30.600  1.00  0.00    -0.352 N 
HETATM   16  H4  UNK     1      19.571   4.138  31.511  1.00  0.00     0.163 HD
BRANCH  15  17
HETATM   17  C5  UNK     1      19.030   5.569  30.063  1.00  0.00     0.169 C 
BRANCH  17  18
HETATM   18  C7  UNK     1      18.470   6.508  31.095  1.00  0.00     0.000 A 
HETATM   19  C13 UNK     1      17.332   7.253  31.012  1.00  0.00     0.017 A 
HETATM   20  C14 UNK     1      17.131   8.023  32.194  1.00  0.00     0.008 A 
HETATM   21  C15 UNK     1      18.132   7.821  33.118  1.00  0.00     0.050 A 
HETATM   22  S1  UNK     1      19.307   6.709  32.560  1.00  0.00    -0.105 SA
ENDBRANCH  17  18
ENDBRANCH  15  17
ENDBRANCH   5  13
TORSDOF 3
ENDMDL
MODEL 5
REMARK VINA RESULT:      -7.7      5.158      6.552
REMARK  3 active torsions:
REMARK  status: ('A' for Active; 'I' for Inactive)
REMARK    1  A    between atoms: C5_11  and  N1_6 
REMARK       I    between atoms: C6_12  and  N1_6 
REMARK    2  A    between atoms: C2_8  and  C6_12 
REMARK    3  A    between atoms: C5_11  and  C7_13 
ROOT
HETATM    1 Cl1  UNK     1      18.659   8.511  34.537  1.00  0.00    -0.084 Cl
HETATM    2  O1  UNK     1      18.450   3.838  30.946  1.00  0.00    -0.274 OA
HETATM    3  O3  UNK     1      18.275   1.580  30.635  1.00  0.00    -0.259 OA
HETATM    4  C1  UNK     1      18.411   4.745  33.202  1.00  0.00     0.001 A 
HETATM    5  C2  UNK     1      18.226   2.351  32.875  1.00  0.00     0.108 A 
HETATM    6  C3  UNK     1      18.497   4.936  31.826  1.00  0.00     0.089 A 
HETATM    7  C4  UNK     1      18.271   3.391  33.716  1.00  0.00     0.037 A 
HETATM    8  C8  UNK     1      18.461   5.859  34.041  1.00  0.00     0.038 A 
HETATM    9  C9  UNK     1      18.315   2.531  31.408  1.00  0.00     0.304 A 
HETATM   10  C10 UNK     1      18.631   6.206  31.269  1.00  0.00     0.040 A 
HETATM   11  C11 UNK     1      18.596   7.140  33.498  1.00  0.00     0.035 A 
HETATM   12  C12 UNK     1      18.681   7.313  32.114  1.00  0.00     0.026 A 
ENDROOT
BRANCH   5  13
HETATM   13  C6  UNK     1      18.084   1.025  33.489  1.00  0.00     0.258 C 
HETATM   14  O2  UNK     1      19.002   0.209  33.449  1.00  0.00    -0.267 OA
HETATM   15  N1  UNK     1      16.847   0.836  34.079  1.00  0.00    -0.352 N 
HETATM   16  H4  UNK     1      16.146   1.568  34.043  1.00  0.00     0.163 HD
BRANCH  15  17
HETATM   17  C5  UNK     1      16.472  -0.391  34.744  1.00  0.00     0.169 C 
BRANCH  17  18
HETATM   18  C7  UNK     1      17.074  -0.450  36.121  1.00  0.00     0.000 A 
HETATM   19  C13 UNK     1      17.077   0.528  37.071  1.00  0.00     0.017 A 
HETATM   20  C14 UNK     1      17.747   0.097  38.253  1.00  0.00     0.008 A 
HETATM   21  C15 UNK     1      18.220  -1.191  38.139  1.00  0.00     0.050 A 
HETATM   22  S1  UNK     1      17.857  -1.876  36.613  1.00  0.00    -0.105 SA
ENDBRANCH  17  18
ENDBRANCH  15  17
ENDBRANCH   5  13
TORSDOF 3
ENDMDL
MODEL 6
REMARK VINA RESULT:      -7.7     15.934     18.567
REMARK  3 active torsions:
REMARK  status: ('A' for Active; 'I' for Inactive)
REMARK    1  A    between atoms: C5_11  and  N1_6 
REMARK       I    between atoms: C6_12  and  N1_6 
REMARK    2  A    between atoms: C2_8  and  C6_12 
REMARK    3  A    between atoms: C5_11  and  C7_13 
ROOT
HETATM    1 Cl1  UNK     1      18.876   2.077  21.077  1.00  0.00    -0.084 Cl
HETATM    2  O1  UNK     1      19.258   0.957  15.300  1.00  0.00    -0.274 OA
HETATM    3  O3  UNK     1      19.230  -0.525  13.560  1.00  0.00    -0.259 OA
HETATM    4  C1  UNK     1      18.953   0.145  17.571  1.00  0.00     0.001 A 
HETATM    5  C2  UNK     1      18.924  -1.428  15.729  1.00  0.00     0.108 A 
HETATM    6  C3  UNK     1      19.163   1.196  16.684  1.00  0.00     0.089 A 
HETATM    7  C4  UNK     1      18.833  -1.206  17.045  1.00  0.00     0.037 A 
HETATM    8  C8  UNK     1      18.864   0.423  18.937  1.00  0.00     0.038 A 
HETATM    9  C9  UNK     1      19.146  -0.326  14.767  1.00  0.00     0.304 A 
HETATM   10  C10 UNK     1      19.285   2.512  17.123  1.00  0.00     0.040 A 
HETATM   11  C11 UNK     1      18.985   1.739  19.393  1.00  0.00     0.035 A 
HETATM   12  C12 UNK     1      19.196   2.782  18.487  1.00  0.00     0.026 A 
ENDROOT
BRANCH   5  13
HETATM   13  C6  UNK     1      18.790  -2.824  15.295  1.00  0.00     0.258 C 
HETATM   14  O2  UNK     1      17.761  -3.458  15.517  1.00  0.00    -0.267 OA
HETATM   15  N1  UNK     1      19.916  -3.295  14.645  1.00  0.00    -0.352 N 
HETATM   16  H4  UNK     1      20.726  -2.696  14.525  1.00  0.00     0.163 HD
BRANCH  15  17
HETATM   17  C5  UNK     1      20.022  -4.641  14.128  1.00  0.00     0.169 C 
BRANCH  17  18
HETATM   18  C7  UNK     1      19.550  -4.698  12.702  1.00  0.00     0.000 A 
HETATM   19  C13 UNK     1      19.370  -3.656  11.842  1.00  0.00     0.017 A 
HETATM   20  C14 UNK     1      18.911  -4.108  10.571  1.00  0.00     0.008 A 
HETATM   21  C15 UNK     1      18.765  -5.476  10.531  1.00  0.00     0.050 A 
HETATM   22  S1  UNK     1      19.180  -6.211  12.020  1.00  0.00    -0.105 SA
ENDBRANCH  17  18
ENDBRANCH  15  17
ENDBRANCH   5  13
TORSDOF 3
ENDMDL
MODEL 7
REMARK VINA RESULT:      -7.7      1.970      2.684
REMARK  3 active torsions:
REMARK  status: ('A' for Active; 'I' for Inactive)
REMARK    1  A    between atoms: C5_11  and  N1_6 
REMARK       I    between atoms: C6_12  and  N1_6 
REMARK    2  A    between atoms: C2_8  and  C6_12 
REMARK    3  A    between atoms: C5_11  and  C7_13 
ROOT
HETATM    1 Cl1  UNK     1      20.902  -0.911  28.733  1.00  0.00    -0.084 Cl
HETATM    2  O1  UNK     1      18.665  -0.345  34.161  1.00  0.00    -0.274 OA
HETATM    3  O3  UNK     1      18.459  -1.094  36.310  1.00  0.00    -0.259 OA
HETATM    4  C1  UNK     1      20.055  -1.575  32.590  1.00  0.00     0.001 A 
HETATM    5  C2  UNK     1      19.836  -2.372  34.867  1.00  0.00     0.108 A 
HETATM    6  C3  UNK     1      19.214  -0.504  32.873  1.00  0.00     0.089 A 
HETATM    7  C4  UNK     1      20.360  -2.528  33.645  1.00  0.00     0.037 A 
HETATM    8  C8  UNK     1      20.578  -1.698  31.301  1.00  0.00     0.038 A 
HETATM    9  C9  UNK     1      18.940  -1.241  35.192  1.00  0.00     0.304 A 
HETATM   10  C10 UNK     1      18.883   0.445  31.908  1.00  0.00     0.040 A 
HETATM   11  C11 UNK     1      20.255  -0.754  30.321  1.00  0.00     0.035 A 
HETATM   12  C12 UNK     1      19.409   0.315  30.624  1.00  0.00     0.026 A 
ENDROOT
BRANCH   5  13
HETATM   13  C6  UNK     1      20.202  -3.386  35.864  1.00  0.00     0.258 C 
HETATM   14  O2  UNK     1      21.277  -3.328  36.458  1.00  0.00    -0.267 OA
HETATM   15  N1  UNK     1      19.229  -4.355  36.028  1.00  0.00    -0.352 N 
HETATM   16  H4  UNK     1      18.379  -4.324  35.476  1.00  0.00     0.163 HD
BRANCH  15  17
HETATM   17  C5  UNK     1      19.364  -5.458  36.953  1.00  0.00     0.169 C 
BRANCH  17  18
HETATM   18  C7  UNK     1      20.120  -6.591  36.315  1.00  0.00     0.000 A 
HETATM   19  C13 UNK     1      20.046  -7.019  35.024  1.00  0.00     0.017 A 
HETATM   20  C14 UNK     1      20.917  -8.123  34.794  1.00  0.00     0.008 A 
HETATM   21  C15 UNK     1      21.611  -8.478  35.929  1.00  0.00     0.050 A 
HETATM   22  S1  UNK     1      21.213  -7.483  37.264  1.00  0.00    -0.105 SA
ENDBRANCH  17  18
ENDBRANCH  15  17
ENDBRANCH   5  13
TORSDOF 3
ENDMDL
MODEL 8
REMARK VINA RESULT:      -7.5      7.127     10.188
REMARK  3 active torsions:
REMARK  status: ('A' for Active; 'I' for Inactive)
REMARK    1  A    between atoms: C5_11  and  N1_6 
REMARK       I    between atoms: C6_12  and  N1_6 
REMARK    2  A    between atoms: C2_8  and  C6_12 
REMARK    3  A    between atoms: C5_11  and  C7_13 
ROOT
HETATM    1 Cl1  UNK     1      18.244  -0.679  37.952  1.00  0.00    -0.084 Cl
HETATM    2  O1  UNK     1      18.273   1.394  32.430  1.00  0.00    -0.274 OA
HETATM    3  O3  UNK     1      18.299   3.153  30.972  1.00  0.00    -0.259 OA
HETATM    4  C1  UNK     1      18.279   1.821  34.824  1.00  0.00     0.001 A 
HETATM    5  C2  UNK     1      18.306   3.688  33.280  1.00  0.00     0.108 A 
HETATM    6  C3  UNK     1      18.267   0.926  33.759  1.00  0.00     0.089 A 
HETATM    7  C4  UNK     1      18.299   3.248  34.544  1.00  0.00     0.037 A 
HETATM    8  C8  UNK     1      18.272   1.318  36.127  1.00  0.00     0.038 A 
HETATM    9  C9  UNK     1      18.293   2.755  32.131  1.00  0.00     0.304 A 
HETATM   10  C10 UNK     1      18.248  -0.452  33.959  1.00  0.00     0.040 A 
HETATM   11  C11 UNK     1      18.253  -0.063  36.344  1.00  0.00     0.035 A 
HETATM   12  C12 UNK     1      18.241  -0.946  35.262  1.00  0.00     0.026 A 
ENDROOT
BRANCH   5  13
HETATM   13  C6  UNK     1      18.326   5.144  33.099  1.00  0.00     0.258 C 
HETATM   14  O2  UNK     1      19.063   5.855  33.780  1.00  0.00    -0.267 OA
HETATM   15  N1  UNK     1      17.453   5.576  32.118  1.00  0.00    -0.352 N 
HETATM   16  H4  UNK     1      16.872   4.910  31.621  1.00  0.00     0.163 HD
BRANCH  15  17
HETATM   17  C5  UNK     1      17.295   6.969  31.762  1.00  0.00     0.169 C 
BRANCH  17  18
HETATM   18  C7  UNK     1      16.242   7.616  32.618  1.00  0.00     0.000 A 
HETATM   19  C13 UNK     1      14.898   7.392  32.597  1.00  0.00     0.017 A 
HETATM   20  C14 UNK     1      14.225   8.197  33.561  1.00  0.00     0.008 A 
HETATM   21  C15 UNK     1      15.097   8.995  34.268  1.00  0.00     0.050 A 
HETATM   22  S1  UNK     1      16.719   8.772  33.769  1.00  0.00    -0.105 SA
ENDBRANCH  17  18
ENDBRANCH  15  17
ENDBRANCH   5  13
TORSDOF 3
ENDMDL
MODEL 9
REMARK VINA RESULT:      -7.5     26.006     27.919
REMARK  3 active torsions:
REMARK  status: ('A' for Active; 'I' for Inactive)
REMARK    1  A    between atoms: C5_11  and  N1_6 
REMARK       I    between atoms: C6_12  and  N1_6 
REMARK    2  A    between atoms: C2_8  and  C6_12 
REMARK    3  A    between atoms: C5_11  and  C7_13 
ROOT
HETATM    1 Cl1  UNK     1      16.955  13.249   6.866  1.00  0.00    -0.084 Cl
HETATM    2  O1  UNK     1      16.514   8.439  10.251  1.00  0.00    -0.274 OA
HETATM    3  O3  UNK     1      15.281   6.702  11.079  1.00  0.00    -0.259 OA
HETATM    4  C1  UNK     1      15.483  10.016   8.713  1.00  0.00     0.001 A 
HETATM    5  C2  UNK     1      14.173   8.176   9.591  1.00  0.00     0.108 A 
HETATM    6  C3  UNK     1      16.591   9.584   9.434  1.00  0.00     0.089 A 
HETATM    7  C4  UNK     1      14.241   9.264   8.814  1.00  0.00     0.037 A 
HETATM    8  C8  UNK     1      15.600  11.156   7.915  1.00  0.00     0.038 A 
HETATM    9  C9  UNK     1      15.339   7.699  10.367  1.00  0.00     0.304 A 
HETATM   10  C10 UNK     1      17.809  10.259   9.380  1.00  0.00     0.040 A 
HETATM   11  C11 UNK     1      16.815  11.844   7.850  1.00  0.00     0.035 A 
HETATM   12  C12 UNK     1      17.918  11.396   8.582  1.00  0.00     0.026 A 
ENDROOT
BRANCH   5  13
HETATM   13  C6  UNK     1      12.878   7.485   9.628  1.00  0.00     0.258 C 
HETATM   14  O2  UNK     1      11.912   7.986  10.199  1.00  0.00    -0.267 OA
HETATM   15  N1  UNK     1      12.900   6.267   8.974  1.00  0.00    -0.352 N 
HETATM   16  H4  UNK     1      13.756   5.932   8.546  1.00  0.00     0.163 HD
BRANCH  15  17
HETATM   17  C5  UNK     1      11.744   5.404   8.879  1.00  0.00     0.169 C 
BRANCH  17  18
HETATM   18  C7  UNK     1      10.843   5.849   7.760  1.00  0.00     0.000 A 
HETATM   19  C13 UNK     1      11.184   6.090   6.463  1.00  0.00     0.017 A 
HETATM   20  C14 UNK     1      10.052   6.496   5.699  1.00  0.00     0.008 A 
HETATM   21  C15 UNK     1       8.905   6.544   6.460  1.00  0.00     0.050 A 
HETATM   22  S1  UNK     1       9.194   6.100   8.087  1.00  0.00    -0.105 SA
ENDBRANCH  17  18
ENDBRANCH  15  17
ENDBRANCH   5  13
TORSDOF 3
ENDMDL
MODEL 10
REMARK VINA RESULT:      -7.4     25.945     27.583
REMARK  3 active torsions:
REMARK  status: ('A' for Active; 'I' for Inactive)
REMARK    1  A    between atoms: C5_11  and  N1_6 
REMARK       I    between atoms: C6_12  and  N1_6 
REMARK    2  A    between atoms: C2_8  and  C6_12 
REMARK    3  A    between atoms: C5_11  and  C7_13 
ROOT
HETATM    1 Cl1  UNK     1      17.229   9.991  10.128  1.00  0.00    -0.084 Cl
HETATM    2  O1  UNK     1      14.143   5.101   8.968  1.00  0.00    -0.274 OA
HETATM    3  O3  UNK     1      12.271   4.086   8.138  1.00  0.00    -0.259 OA
HETATM    4  C1  UNK     1      14.324   7.525   8.899  1.00  0.00     0.001 A 
HETATM    5  C2  UNK     1      12.338   6.452   8.020  1.00  0.00     0.108 A 
HETATM    6  C3  UNK     1      14.859   6.285   9.233  1.00  0.00     0.089 A 
HETATM    7  C4  UNK     1      13.014   7.579   8.270  1.00  0.00     0.037 A 
HETATM    8  C8  UNK     1      15.065   8.675   9.178  1.00  0.00     0.038 A 
HETATM    9  C9  UNK     1      12.887   5.122   8.366  1.00  0.00     0.304 A 
HETATM   10  C10 UNK     1      16.109   6.164   9.837  1.00  0.00     0.040 A 
HETATM   11  C11 UNK     1      16.321   8.570   9.784  1.00  0.00     0.035 A 
HETATM   12  C12 UNK     1      16.841   7.316  10.112  1.00  0.00     0.026 A 
ENDROOT
BRANCH   5  13
HETATM   13  C6  UNK     1      11.024   6.609   7.383  1.00  0.00     0.258 C 
HETATM   14  O2  UNK     1      10.924   7.079   6.252  1.00  0.00    -0.267 OA
HETATM   15  N1  UNK     1       9.983   6.184   8.187  1.00  0.00    -0.352 N 
HETATM   16  H4  UNK     1      10.169   5.825   9.118  1.00  0.00     0.163 HD
BRANCH  15  17
HETATM   17  C5  UNK     1       8.598   6.243   7.778  1.00  0.00     0.169 C 
BRANCH  17  18
HETATM   18  C7  UNK     1       7.694   5.871   8.921  1.00  0.00     0.000 A 
HETATM   19  C13 UNK     1       7.322   4.621   9.316  1.00  0.00     0.017 A 
HETATM   20  C14 UNK     1       6.454   4.672  10.444  1.00  0.00     0.008 A 
HETATM   21  C15 UNK     1       6.209   5.966  10.849  1.00  0.00     0.050 A 
HETATM   22  S1  UNK     1       7.024   7.110   9.873  1.00  0.00    -0.105 SA
ENDBRANCH  17  18
ENDBRANCH  15  17
ENDBRANCH   5  13
TORSDOF 3
ENDMDL
