MODEL 1
REMARK VINA RESULT:      -8.7      0.000      0.000
REMARK  7 active torsions:
REMARK  status: ('A' for Active; 'I' for Inactive)
REMARK    1  A    between atoms: C12_20  and  O2_2 
REMARK    2  A    between atoms: C19_27  and  O2_2 
REMARK    3  A    between atoms: C26_34  and  N2_8 
REMARK    4  A    between atoms: C1_9  and  C9_17 
REMARK    5  A    between atoms: C11_19  and  C4_12 
REMARK    6  A    between atoms: C12_20  and  C8_16 
REMARK    7  A    between atoms: C13_21  and  C19_27 
ROOT
HETATM    1  O1  UNK     1      28.381  -9.607  36.344  1.00  0.00    -0.293 OA
HETATM    2  N1  UNK     1      27.994  -5.418  38.525  1.00  0.00    -0.362 N 
HETATM    3  C1  UNK     1      25.573  -8.257  38.134  1.00  0.00     0.031 C 
HETATM    4  C2  UNK     1      25.974  -6.776  38.197  1.00  0.00     0.067 C 
HETATM    5  C3  UNK     1      28.250  -7.472  37.376  1.00  0.00     0.024 C 
HETATM    6  C4  UNK     1      29.745  -7.219  37.207  1.00  0.00     0.104 C 
HETATM    7  C5  UNK     1      27.455  -6.575  37.995  1.00  0.00     0.021 C 
HETATM    8  C6  UNK     1      26.160  -8.911  36.882  1.00  0.00     0.093 C 
HETATM    9  C7  UNK     1      27.663  -8.742  36.845  1.00  0.00     0.159 C 
HETATM   10  C8  UNK     1      30.224  -5.975  37.961  1.00  0.00     0.052 C 
HETATM   11  C10 UNK     1      29.350  -5.135  38.562  1.00  0.00     0.018 C 
HETATM   12  C16 UNK     1      29.711  -3.891  39.330  1.00  0.00     0.069 C 
HETATM   13  H7  UNK     1      27.364  -4.774  38.992  1.00  0.00     0.165 HD
ENDROOT
BRANCH   6  14
HETATM   14  C11 UNK     1      30.097  -7.106  35.749  1.00  0.00     0.029 A 
HETATM   15  C18 UNK     1      31.156  -7.993  35.205  1.00  0.00     0.194 A 
HETATM   16  C25 UNK     1      31.464  -7.840  33.770  1.00  0.00     0.048 A 
HETATM   17  O6  UNK     1      31.745  -8.807  35.903  1.00  0.00    -0.287 OA
HETATM   18  C27 UNK     1      30.761  -6.895  33.023  1.00  0.00     0.089 A 
HETATM   19  C28 UNK     1      32.445  -8.629  33.164  1.00  0.00     0.018 A 
HETATM   20  C29 UNK     1      31.035  -6.734  31.664  1.00  0.00     0.038 A 
HETATM   21  O4  UNK     1      29.788  -6.096  33.566  1.00  0.00    -0.321 OA
HETATM   22  C31 UNK     1      32.015  -7.520  31.057  1.00  0.00     0.003 A 
HETATM   23  C30 UNK     1      32.718  -8.466  31.805  1.00  0.00     0.001 A 
HETATM   24  C21 UNK     1      29.512  -6.248  34.903  1.00  0.00     0.154 A 
ENDBRANCH   6  14
BRANCH  10  25
HETATM   25  C12 UNK     1      31.679  -5.752  37.997  1.00  0.00     0.292 C 
HETATM   26  O5  UNK     1      32.439  -6.412  38.680  1.00  0.00    -0.259 OA
BRANCH  25  27
HETATM   27  O2  UNK     1      31.974  -4.724  37.167  1.00  0.00    -0.315 OA
BRANCH  27  28
HETATM   28  C19 UNK     1      33.352  -4.623  36.792  1.00  0.00     0.211 C 
BRANCH  28  29
HETATM   29  C13 UNK     1      33.594  -5.479  35.564  1.00  0.00     0.145 C 
HETATM   30  C17 UNK     1      34.393  -4.773  34.482  1.00  0.00     0.036 C 
HETATM   31  C20 UNK     1      35.019  -5.940  33.761  1.00  0.00     0.029 C 
HETATM   32  C22 UNK     1      35.335  -6.882  34.905  1.00  0.00     0.168 C 
HETATM   33  O3  UNK     1      34.350  -6.647  35.923  1.00  0.00    -0.384 OA
ENDBRANCH  28  29
ENDBRANCH  27  28
ENDBRANCH  25  27
ENDBRANCH  10  25
BRANCH   3  34
HETATM   34  C9  UNK     1      24.071  -8.442  38.231  1.00  0.00    -0.053 A 
HETATM   35  C14 UNK     1      23.396  -8.050  39.385  1.00  0.00     0.010 A 
HETATM   36  C23 UNK     1      22.015  -8.220  39.474  1.00  0.00     0.030 A 
HETATM   37  C26 UNK     1      21.311  -8.781  38.408  1.00  0.00     0.029 A 
HETATM   38  C24 UNK     1      21.989  -9.173  37.254  1.00  0.00     0.030 A 
HETATM   39  C15 UNK     1      23.371  -9.003  37.165  1.00  0.00     0.010 A 
BRANCH  37  40
HETATM   40  N2  UNK     1      19.913  -8.953  38.498  1.00  0.00    -0.390 N 
HETATM   41  C32 UNK     1      19.023  -7.825  38.311  1.00  0.00     0.149 C 
HETATM   42  C33 UNK     1      19.351 -10.261  38.764  1.00  0.00     0.149 C 
ENDBRANCH  37  40
ENDBRANCH   3  34
TORSDOF 7
ENDMDL
MODEL 2
REMARK VINA RESULT:      -8.5      4.744     10.771
REMARK  7 active torsions:
REMARK  status: ('A' for Active; 'I' for Inactive)
REMARK    1  A    between atoms: C12_20  and  O2_2 
REMARK    2  A    between atoms: C19_27  and  O2_2 
REMARK    3  A    between atoms: C26_34  and  N2_8 
REMARK    4  A    between atoms: C1_9  and  C9_17 
REMARK    5  A    between atoms: C11_19  and  C4_12 
REMARK    6  A    between atoms: C12_20  and  C8_16 
REMARK    7  A    between atoms: C13_21  and  C19_27 
ROOT
HETATM    1  O1  UNK     1      32.289  -9.397  35.013  1.00  0.00    -0.293 OA
HETATM    2  N1  UNK     1      32.316  -6.989  30.932  1.00  0.00    -0.362 N 
HETATM    3  C1  UNK     1      34.682  -9.539  32.336  1.00  0.00     0.031 C 
HETATM    4  C2  UNK     1      34.319  -8.255  31.576  1.00  0.00     0.067 C 
HETATM    5  C3  UNK     1      32.255  -8.120  33.011  1.00  0.00     0.024 C 
HETATM    6  C4  UNK     1      30.839  -7.615  33.272  1.00  0.00     0.104 C 
HETATM    7  C5  UNK     1      32.923  -7.779  31.889  1.00  0.00     0.021 C 
HETATM    8  C6  UNK     1      34.361  -9.381  33.823  1.00  0.00     0.093 C 
HETATM    9  C7  UNK     1      32.907  -9.012  34.020  1.00  0.00     0.159 C 
HETATM   10  C8  UNK     1      30.245  -6.872  32.072  1.00  0.00     0.052 C 
HETATM   11  C10 UNK     1      30.992  -6.580  30.982  1.00  0.00     0.018 C 
HETATM   12  C16 UNK     1      30.510  -5.861  29.751  1.00  0.00     0.069 C 
HETATM   13  H7  UNK     1      32.848  -6.763  30.098  1.00  0.00     0.165 HD
ENDROOT
BRANCH   6  14
HETATM   14  C11 UNK     1      30.813  -6.732  34.490  1.00  0.00     0.029 A 
HETATM   15  C18 UNK     1      29.827  -7.029  35.560  1.00  0.00     0.194 A 
HETATM   16  C25 UNK     1      29.842  -6.132  36.730  1.00  0.00     0.048 A 
HETATM   17  O6  UNK     1      29.042  -7.964  35.480  1.00  0.00    -0.287 OA
HETATM   18  C27 UNK     1      30.759  -5.080  36.768  1.00  0.00     0.089 A 
HETATM   19  C28 UNK     1      28.953  -6.328  37.790  1.00  0.00     0.018 A 
HETATM   20  C29 UNK     1      30.792  -4.220  37.866  1.00  0.00     0.038 A 
HETATM   21  O4  UNK     1      31.655  -4.843  35.756  1.00  0.00    -0.321 OA
HETATM   22  C31 UNK     1      29.904  -4.414  38.924  1.00  0.00     0.003 A 
HETATM   23  C30 UNK     1      28.987  -5.466  38.887  1.00  0.00     0.001 A 
HETATM   24  C21 UNK     1      31.630  -5.685  34.672  1.00  0.00     0.154 A 
ENDBRANCH   6  14
BRANCH  10  25
HETATM   25  C12 UNK     1      28.823  -6.502  32.171  1.00  0.00     0.292 C 
HETATM   26  O5  UNK     1      28.440  -5.357  32.323  1.00  0.00    -0.259 OA
BRANCH  25  27
HETATM   27  O2  UNK     1      28.080  -7.628  32.066  1.00  0.00    -0.315 OA
BRANCH  27  28
HETATM   28  C19 UNK     1      27.516  -7.864  30.771  1.00  0.00     0.211 C 
BRANCH  28  29
HETATM   29  C13 UNK     1      28.066  -9.165  30.222  1.00  0.00     0.145 C 
HETATM   30  C17 UNK     1      28.875  -8.991  28.948  1.00  0.00     0.036 C 
HETATM   31  C20 UNK     1      29.784 -10.192  29.002  1.00  0.00     0.029 C 
HETATM   32  C22 UNK     1      30.095 -10.284  30.482  1.00  0.00     0.168 C 
HETATM   33  O3  UNK     1      28.954  -9.763  31.181  1.00  0.00    -0.384 OA
ENDBRANCH  28  29
ENDBRANCH  27  28
ENDBRANCH  25  27
ENDBRANCH  10  25
BRANCH   3  34
HETATM   34  C9  UNK     1      36.122  -9.950  32.098  1.00  0.00    -0.053 A 
HETATM   35  C14 UNK     1      36.535 -10.327  30.822  1.00  0.00     0.010 A 
HETATM   36  C23 UNK     1      37.859 -10.705  30.603  1.00  0.00     0.030 A 
HETATM   37  C26 UNK     1      38.768 -10.705  31.661  1.00  0.00     0.029 A 
HETATM   38  C24 UNK     1      38.353 -10.328  32.938  1.00  0.00     0.030 A 
HETATM   39  C15 UNK     1      37.028  -9.950  33.157  1.00  0.00     0.010 A 
BRANCH  37  40
HETATM   40  N2  UNK     1      40.109 -11.088  31.440  1.00  0.00    -0.390 N 
HETATM   41  C32 UNK     1      40.456 -11.919  30.305  1.00  0.00     0.149 C 
HETATM   42  C33 UNK     1      41.156 -10.643  32.337  1.00  0.00     0.149 C 
ENDBRANCH  37  40
ENDBRANCH   3  34
TORSDOF 7
ENDMDL
MODEL 3
REMARK VINA RESULT:      -8.5      4.773     10.897
REMARK  7 active torsions:
REMARK  status: ('A' for Active; 'I' for Inactive)
REMARK    1  A    between atoms: C12_20  and  O2_2 
REMARK    2  A    between atoms: C19_27  and  O2_2 
REMARK    3  A    between atoms: C26_34  and  N2_8 
REMARK    4  A    between atoms: C1_9  and  C9_17 
REMARK    5  A    between atoms: C11_19  and  C4_12 
REMARK    6  A    between atoms: C12_20  and  C8_16 
REMARK    7  A    between atoms: C13_21  and  C19_27 
ROOT
HETATM    1  O1  UNK     1      33.657  -7.011  30.651  1.00  0.00    -0.293 OA
HETATM    2  N1  UNK     1      34.098  -8.655  35.073  1.00  0.00    -0.362 N 
HETATM    3  C1  UNK     1      36.317  -8.969  32.065  1.00  0.00     0.031 C 
HETATM    4  C2  UNK     1      35.634  -9.478  33.343  1.00  0.00     0.067 C 
HETATM    5  C3  UNK     1      33.784  -7.836  32.874  1.00  0.00     0.024 C 
HETATM    6  C4  UNK     1      32.600  -6.990  33.333  1.00  0.00     0.104 C 
HETATM    7  C5  UNK     1      34.454  -8.628  33.738  1.00  0.00     0.021 C 
HETATM    8  C6  UNK     1      35.278  -8.737  30.967  1.00  0.00     0.093 C 
HETATM    9  C7  UNK     1      34.205  -7.781  31.440  1.00  0.00     0.159 C 
HETATM   10  C8  UNK     1      32.410  -7.011  34.852  1.00  0.00     0.052 C 
HETATM   11  C10 UNK     1      33.137  -7.835  35.643  1.00  0.00     0.018 C 
HETATM   12  C16 UNK     1      33.035  -7.933  37.142  1.00  0.00     0.069 C 
HETATM   13  H7  UNK     1      34.633  -9.255  35.693  1.00  0.00     0.165 HD
ENDROOT
BRANCH   6  14
HETATM   14  C11 UNK     1      31.337  -7.438  32.649  1.00  0.00     0.029 A 
HETATM   15  C18 UNK     1      30.441  -6.407  32.069  1.00  0.00     0.194 A 
HETATM   16  C25 UNK     1      29.216  -6.900  31.412  1.00  0.00     0.048 A 
HETATM   17  O6  UNK     1      30.698  -5.212  32.130  1.00  0.00    -0.287 OA
HETATM   18  C27 UNK     1      28.973  -8.274  31.372  1.00  0.00     0.089 A 
HETATM   19  C28 UNK     1      28.308  -6.008  30.835  1.00  0.00     0.018 A 
HETATM   20  C29 UNK     1      27.821  -8.762  30.754  1.00  0.00     0.038 A 
HETATM   21  O4  UNK     1      29.831  -9.193  31.920  1.00  0.00    -0.321 OA
HETATM   22  C31 UNK     1      26.913  -7.873  30.179  1.00  0.00     0.003 A 
HETATM   23  C30 UNK     1      27.156  -6.500  30.219  1.00  0.00     0.001 A 
HETATM   24  C21 UNK     1      30.967  -8.721  32.529  1.00  0.00     0.154 A 
ENDBRANCH   6  14
BRANCH  10  25
HETATM   25  C12 UNK     1      31.402  -6.087  35.399  1.00  0.00     0.292 C 
HETATM   26  O5  UNK     1      31.612  -4.903  35.584  1.00  0.00    -0.259 OA
BRANCH  25  27
HETATM   27  O2  UNK     1      30.267  -6.786  35.636  1.00  0.00    -0.315 OA
BRANCH  27  28
HETATM   28  C19 UNK     1      29.296  -6.109  36.442  1.00  0.00     0.211 C 
BRANCH  28  29
HETATM   29  C13 UNK     1      28.520  -7.134  37.245  1.00  0.00     0.145 C 
HETATM   30  C17 UNK     1      29.015  -7.287  38.673  1.00  0.00     0.036 C 
HETATM   31  C20 UNK     1      27.775  -7.787  39.370  1.00  0.00     0.029 C 
HETATM   32  C22 UNK     1      26.686  -6.995  38.677  1.00  0.00     0.168 C 
HETATM   33  O3  UNK     1      27.141  -6.739  37.340  1.00  0.00    -0.384 OA
ENDBRANCH  28  29
ENDBRANCH  27  28
ENDBRANCH  25  27
ENDBRANCH  10  25
BRANCH   3  34
HETATM   34  C9  UNK     1      37.435  -9.890  31.616  1.00  0.00    -0.053 A 
HETATM   35  C14 UNK     1      38.417 -10.285  32.522  1.00  0.00     0.010 A 
HETATM   36  C23 UNK     1      39.445 -11.132  32.109  1.00  0.00     0.030 A 
HETATM   37  C26 UNK     1      39.489 -11.582  30.789  1.00  0.00     0.029 A 
HETATM   38  C24 UNK     1      38.506 -11.185  29.883  1.00  0.00     0.030 A 
HETATM   39  C15 UNK     1      37.478 -10.338  30.297  1.00  0.00     0.010 A 
BRANCH  37  40
HETATM   40  N2  UNK     1      40.529 -12.439  30.370  1.00  0.00    -0.390 N 
HETATM   41  C32 UNK     1      40.510 -13.021  29.044  1.00  0.00     0.149 C 
HETATM   42  C33 UNK     1      41.635 -12.737  31.257  1.00  0.00     0.149 C 
ENDBRANCH  37  40
ENDBRANCH   3  34
TORSDOF 7
ENDMDL
MODEL 4
REMARK VINA RESULT:      -8.5      5.417     10.414
REMARK  7 active torsions:
REMARK  status: ('A' for Active; 'I' for Inactive)
REMARK    1  A    between atoms: C12_20  and  O2_2 
REMARK    2  A    between atoms: C19_27  and  O2_2 
REMARK    3  A    between atoms: C26_34  and  N2_8 
REMARK    4  A    between atoms: C1_9  and  C9_17 
REMARK    5  A    between atoms: C11_19  and  C4_12 
REMARK    6  A    between atoms: C12_20  and  C8_16 
REMARK    7  A    between atoms: C13_21  and  C19_27 
ROOT
HETATM    1  O1  UNK     1      33.345  -6.903  30.973  1.00  0.00    -0.293 OA
HETATM    2  N1  UNK     1      33.552  -9.212  35.105  1.00  0.00    -0.362 N 
HETATM    3  C1  UNK     1      35.972  -8.997  32.247  1.00  0.00     0.031 C 
HETATM    4  C2  UNK     1      35.224  -9.716  33.379  1.00  0.00     0.067 C 
HETATM    5  C3  UNK     1      33.354  -8.065  33.044  1.00  0.00     0.024 C 
HETATM    6  C4  UNK     1      32.115  -7.329  33.545  1.00  0.00     0.104 C 
HETATM    7  C5  UNK     1      33.993  -8.966  33.819  1.00  0.00     0.021 C 
HETATM    8  C6  UNK     1      34.999  -8.619  31.129  1.00  0.00     0.093 C 
HETATM    9  C7  UNK     1      33.866  -7.774  31.668  1.00  0.00     0.159 C 
HETATM   10  C8  UNK     1      31.828  -7.593  35.026  1.00  0.00     0.052 C 
HETATM   11  C10 UNK     1      32.529  -8.513  35.727  1.00  0.00     0.018 C 
HETATM   12  C16 UNK     1      32.333  -8.849  37.182  1.00  0.00     0.069 C 
HETATM   13  H7  UNK     1      34.065  -9.889  35.660  1.00  0.00     0.165 HD
ENDROOT
BRANCH   6  14
HETATM   14  C11 UNK     1      30.915  -7.693  32.713  1.00  0.00     0.029 A 
HETATM   15  C18 UNK     1      30.070  -6.599  32.171  1.00  0.00     0.194 A 
HETATM   16  C25 UNK     1      28.906  -7.011  31.365  1.00  0.00     0.048 A 
HETATM   17  O6  UNK     1      30.320  -5.420  32.380  1.00  0.00    -0.287 OA
HETATM   18  C27 UNK     1      28.669  -8.371  31.160  1.00  0.00     0.089 A 
HETATM   19  C28 UNK     1      28.049  -6.056  30.811  1.00  0.00     0.018 A 
HETATM   20  C29 UNK     1      27.574  -8.783  30.400  1.00  0.00     0.038 A 
HETATM   21  O4  UNK     1      29.478  -9.350  31.679  1.00  0.00    -0.321 OA
HETATM   22  C31 UNK     1      26.717  -7.831  29.847  1.00  0.00     0.003 A 
HETATM   23  C30 UNK     1      26.954  -6.472  30.052  1.00  0.00     0.001 A 
HETATM   24  C21 UNK     1      30.558  -8.952  32.428  1.00  0.00     0.154 A 
ENDBRANCH   6  14
BRANCH  10  25
HETATM   25  C12 UNK     1      30.755  -6.790  35.637  1.00  0.00     0.292 C 
HETATM   26  O5  UNK     1      29.701  -7.263  36.017  1.00  0.00    -0.259 OA
BRANCH  25  27
HETATM   27  O2  UNK     1      31.163  -5.500  35.685  1.00  0.00    -0.315 OA
BRANCH  27  28
HETATM   28  C19 UNK     1      31.739  -5.091  36.930  1.00  0.00     0.211 C 
BRANCH  28  29
HETATM   29  C13 UNK     1      33.189  -4.714  36.702  1.00  0.00     0.145 C 
HETATM   30  C17 UNK     1      34.171  -5.778  37.164  1.00  0.00     0.036 C 
HETATM   31  C20 UNK     1      35.361  -5.492  36.283  1.00  0.00     0.029 C 
HETATM   32  C22 UNK     1      34.699  -5.121  34.973  1.00  0.00     0.168 C 
HETATM   33  O3  UNK     1      33.432  -4.529  35.298  1.00  0.00    -0.384 OA
ENDBRANCH  28  29
ENDBRANCH  27  28
ENDBRANCH  25  27
ENDBRANCH  10  25
BRANCH   3  34
HETATM   34  C9  UNK     1      37.147  -9.810  31.738  1.00  0.00    -0.053 A 
HETATM   35  C14 UNK     1      38.166 -10.180  32.613  1.00  0.00     0.010 A 
HETATM   36  C23 UNK     1      39.247 -10.927  32.146  1.00  0.00     0.030 A 
HETATM   37  C26 UNK     1      39.306 -11.303  30.804  1.00  0.00     0.029 A 
HETATM   38  C24 UNK     1      38.285 -10.931  29.929  1.00  0.00     0.030 A 
HETATM   39  C15 UNK     1      37.204 -10.183  30.397  1.00  0.00     0.010 A 
BRANCH  37  40
HETATM   40  N2  UNK     1      40.399 -12.059  30.330  1.00  0.00    -0.390 N 
HETATM   41  C32 UNK     1      40.504 -12.396  28.925  1.00  0.00     0.149 C 
HETATM   42  C33 UNK     1      41.438 -12.497  31.241  1.00  0.00     0.149 C 
ENDBRANCH  37  40
ENDBRANCH   3  34
TORSDOF 7
ENDMDL
MODEL 5
REMARK VINA RESULT:      -8.3      1.353      1.905
REMARK  7 active torsions:
REMARK  status: ('A' for Active; 'I' for Inactive)
REMARK    1  A    between atoms: C12_20  and  O2_2 
REMARK    2  A    between atoms: C19_27  and  O2_2 
REMARK    3  A    between atoms: C26_34  and  N2_8 
REMARK    4  A    between atoms: C1_9  and  C9_17 
REMARK    5  A    between atoms: C11_19  and  C4_12 
REMARK    6  A    between atoms: C12_20  and  C8_16 
REMARK    7  A    between atoms: C13_21  and  C19_27 
ROOT
HETATM    1  O1  UNK     1      29.407 -10.099  35.450  1.00  0.00    -0.293 OA
HETATM    2  N1  UNK     1      29.630  -6.040  37.883  1.00  0.00    -0.362 N 
HETATM    3  C1  UNK     1      26.878  -8.556  37.482  1.00  0.00     0.031 C 
HETATM    4  C2  UNK     1      27.452  -7.137  37.603  1.00  0.00     0.067 C 
HETATM    5  C3  UNK     1      29.583  -8.033  36.606  1.00  0.00     0.024 C 
HETATM    6  C4  UNK     1      31.086  -7.940  36.361  1.00  0.00     0.104 C 
HETATM    7  C5  UNK     1      28.932  -7.092  37.322  1.00  0.00     0.021 C 
HETATM    8  C6  UNK     1      27.316  -9.192  36.161  1.00  0.00     0.093 C 
HETATM    9  C7  UNK     1      28.824  -9.192  36.041  1.00  0.00     0.159 C 
HETATM   10  C8  UNK     1      31.746  -6.808  37.152  1.00  0.00     0.052 C 
HETATM   11  C10 UNK     1      31.010  -5.914  37.852  1.00  0.00     0.018 C 
HETATM   12  C16 UNK     1      31.555  -4.770  38.665  1.00  0.00     0.069 C 
HETATM   13  H7  UNK     1      29.107  -5.359  38.423  1.00  0.00     0.165 HD
ENDROOT
BRANCH   6  14
HETATM   14  C11 UNK     1      31.369  -7.776  34.892  1.00  0.00     0.029 A 
HETATM   15  C18 UNK     1      32.255  -8.764  34.226  1.00  0.00     0.194 A 
HETATM   16  C25 UNK     1      32.501  -8.556  32.787  1.00  0.00     0.048 A 
HETATM   17  O6  UNK     1      32.757  -9.701  34.833  1.00  0.00    -0.287 OA
HETATM   18  C27 UNK     1      31.903  -7.470  32.146  1.00  0.00     0.089 A 
HETATM   19  C28 UNK     1      33.322  -9.431  32.071  1.00  0.00     0.018 A 
HETATM   20  C29 UNK     1      32.122  -7.255  30.785  1.00  0.00     0.038 A 
HETATM   21  O4  UNK     1      31.088  -6.581  32.800  1.00  0.00    -0.321 OA
HETATM   22  C31 UNK     1      32.941  -8.128  30.068  1.00  0.00     0.003 A 
HETATM   23  C30 UNK     1      33.539  -9.213  30.709  1.00  0.00     0.001 A 
HETATM   24  C21 UNK     1      30.868  -6.786  34.140  1.00  0.00     0.154 A 
ENDBRANCH   6  14
BRANCH  10  25
HETATM   25  C12 UNK     1      33.217  -6.753  37.112  1.00  0.00     0.292 C 
HETATM   26  O5  UNK     1      33.931  -7.521  37.729  1.00  0.00    -0.259 OA
BRANCH  25  27
HETATM   27  O2  UNK     1      33.585  -5.735  36.298  1.00  0.00    -0.315 OA
BRANCH  27  28
HETATM   28  C19 UNK     1      34.972  -5.710  35.946  1.00  0.00     0.211 C 
BRANCH  28  29
HETATM   29  C13 UNK     1      35.217  -6.708  34.831  1.00  0.00     0.145 C 
HETATM   30  C17 UNK     1      35.246  -6.077  33.450  1.00  0.00     0.036 C 
HETATM   31  C20 UNK     1      36.104  -7.056  32.689  1.00  0.00     0.029 C 
HETATM   32  C22 UNK     1      37.135  -7.442  33.729  1.00  0.00     0.168 C 
HETATM   33  O3  UNK     1      36.496  -7.337  35.010  1.00  0.00    -0.384 OA
ENDBRANCH  28  29
ENDBRANCH  27  28
ENDBRANCH  25  27
ENDBRANCH  10  25
BRANCH   3  34
HETATM   34  C9  UNK     1      25.372  -8.576  37.660  1.00  0.00    -0.053 A 
HETATM   35  C14 UNK     1      24.574  -9.268  36.753  1.00  0.00     0.010 A 
HETATM   36  C23 UNK     1      23.189  -9.285  36.917  1.00  0.00     0.030 A 
HETATM   37  C26 UNK     1      22.605  -8.610  37.988  1.00  0.00     0.029 A 
HETATM   38  C24 UNK     1      23.406  -7.916  38.896  1.00  0.00     0.030 A 
HETATM   39  C15 UNK     1      24.791  -7.899  38.731  1.00  0.00     0.010 A 
BRANCH  37  40
HETATM   40  N2  UNK     1      21.204  -8.627  38.155  1.00  0.00    -0.390 N 
HETATM   41  C32 UNK     1      20.603  -8.114  39.369  1.00  0.00     0.149 C 
HETATM   42  C33 UNK     1      20.347  -9.146  37.107  1.00  0.00     0.149 C 
ENDBRANCH  37  40
ENDBRANCH   3  34
TORSDOF 7
ENDMDL
MODEL 6
REMARK VINA RESULT:      -8.1      5.140      9.108
REMARK  7 active torsions:
REMARK  status: ('A' for Active; 'I' for Inactive)
REMARK    1  A    between atoms: C12_20  and  O2_2 
REMARK    2  A    between atoms: C19_27  and  O2_2 
REMARK    3  A    between atoms: C26_34  and  N2_8 
REMARK    4  A    between atoms: C1_9  and  C9_17 
REMARK    5  A    between atoms: C11_19  and  C4_12 
REMARK    6  A    between atoms: C12_20  and  C8_16 
REMARK    7  A    between atoms: C13_21  and  C19_27 
ROOT
HETATM    1  O1  UNK     1      31.684 -11.374  35.496  1.00  0.00    -0.293 OA
HETATM    2  N1  UNK     1      29.260 -10.059  31.643  1.00  0.00    -0.362 N 
HETATM    3  C1  UNK     1      30.679 -13.371  32.684  1.00  0.00     0.031 C 
HETATM    4  C2  UNK     1      30.331 -12.268  31.674  1.00  0.00     0.067 C 
HETATM    5  C3  UNK     1      30.504 -10.627  33.575  1.00  0.00     0.024 C 
HETATM    6  C4  UNK     1      30.186  -9.275  34.207  1.00  0.00     0.104 C 
HETATM    7  C5  UNK     1      30.055 -10.946  32.343  1.00  0.00     0.021 C 
HETATM    8  C6  UNK     1      31.762 -12.884  33.647  1.00  0.00     0.093 C 
HETATM    9  C7  UNK     1      31.327 -11.613  34.343  1.00  0.00     0.159 C 
HETATM   10  C8  UNK     1      29.187  -8.457  33.383  1.00  0.00     0.052 C 
HETATM   11  C10 UNK     1      28.785  -8.862  32.157  1.00  0.00     0.018 C 
HETATM   12  C16 UNK     1      27.809  -8.140  31.267  1.00  0.00     0.069 C 
HETATM   13  H7  UNK     1      28.934 -10.340  30.724  1.00  0.00     0.165 HD
ENDROOT
BRANCH   6  14
HETATM   14  C11 UNK     1      31.449  -8.485  34.421  1.00  0.00     0.029 A 
HETATM   15  C18 UNK     1      31.798  -8.067  35.802  1.00  0.00     0.194 A 
HETATM   16  C25 UNK     1      33.044  -7.293  35.955  1.00  0.00     0.048 A 
HETATM   17  O6  UNK     1      31.094  -8.345  36.763  1.00  0.00    -0.287 OA
HETATM   18  C27 UNK     1      33.807  -7.004  34.823  1.00  0.00     0.089 A 
HETATM   19  C28 UNK     1      33.459  -6.853  37.215  1.00  0.00     0.018 A 
HETATM   20  C29 UNK     1      34.990  -6.274  34.945  1.00  0.00     0.038 A 
HETATM   21  O4  UNK     1      33.447  -7.412  33.564  1.00  0.00    -0.321 OA
HETATM   22  C31 UNK     1      35.406  -5.834  36.202  1.00  0.00     0.003 A 
HETATM   23  C30 UNK     1      34.643  -6.123  37.334  1.00  0.00     0.001 A 
HETATM   24  C21 UNK     1      32.284  -8.131  33.435  1.00  0.00     0.154 A 
ENDBRANCH   6  14
BRANCH  10  25
HETATM   25  C12 UNK     1      28.690  -7.216  34.002  1.00  0.00     0.292 C 
HETATM   26  O5  UNK     1      29.100  -6.110  33.703  1.00  0.00    -0.259 OA
BRANCH  25  27
HETATM   27  O2  UNK     1      27.746  -7.543  34.915  1.00  0.00    -0.315 OA
BRANCH  27  28
HETATM   28  C19 UNK     1      27.984  -7.050  36.238  1.00  0.00     0.211 C 
BRANCH  28  29
HETATM   29  C13 UNK     1      27.571  -8.108  37.241  1.00  0.00     0.145 C 
HETATM   30  C17 UNK     1      28.135  -7.877  38.633  1.00  0.00     0.036 C 
HETATM   31  C20 UNK     1      27.121  -8.589  39.491  1.00  0.00     0.029 C 
HETATM   32  C22 UNK     1      25.825  -8.267  38.777  1.00  0.00     0.168 C 
HETATM   33  O3  UNK     1      26.141  -8.114  37.385  1.00  0.00    -0.384 OA
ENDBRANCH  28  29
ENDBRANCH  27  28
ENDBRANCH  25  27
ENDBRANCH  10  25
BRANCH   3  34
HETATM   34  C9  UNK     1      31.059 -14.669  31.997  1.00  0.00    -0.053 A 
HETATM   35  C14 UNK     1      31.184 -15.839  32.742  1.00  0.00     0.010 A 
HETATM   36  C23 UNK     1      31.534 -17.032  32.110  1.00  0.00     0.030 A 
HETATM   37  C26 UNK     1      31.759 -17.051  30.733  1.00  0.00     0.029 A 
HETATM   38  C24 UNK     1      31.634 -15.878  29.989  1.00  0.00     0.030 A 
HETATM   39  C15 UNK     1      31.284 -14.685  30.621  1.00  0.00     0.010 A 
BRANCH  37  40
HETATM   40  N2  UNK     1      32.113 -18.259  30.093  1.00  0.00    -0.390 N 
HETATM   41  C32 UNK     1      32.000 -18.386  28.654  1.00  0.00     0.149 C 
HETATM   42  C33 UNK     1      32.606 -19.381  30.865  1.00  0.00     0.149 C 
ENDBRANCH  37  40
ENDBRANCH   3  34
TORSDOF 7
ENDMDL
MODEL 7
REMARK VINA RESULT:      -8.1      4.659      9.218
REMARK  7 active torsions:
REMARK  status: ('A' for Active; 'I' for Inactive)
REMARK    1  A    between atoms: C12_20  and  O2_2 
REMARK    2  A    between atoms: C19_27  and  O2_2 
REMARK    3  A    between atoms: C26_34  and  N2_8 
REMARK    4  A    between atoms: C1_9  and  C9_17 
REMARK    5  A    between atoms: C11_19  and  C4_12 
REMARK    6  A    between atoms: C12_20  and  C8_16 
REMARK    7  A    between atoms: C13_21  and  C19_27 
ROOT
HETATM    1  O1  UNK     1      28.815 -10.383  33.037  1.00  0.00    -0.293 OA
HETATM    2  N1  UNK     1      33.414  -9.255  33.219  1.00  0.00    -0.362 N 
HETATM    3  C1  UNK     1      31.588 -11.992  31.417  1.00  0.00     0.031 C 
HETATM    4  C2  UNK     1      32.756 -11.399  32.218  1.00  0.00     0.067 C 
HETATM    5  C3  UNK     1      31.105  -9.781  33.215  1.00  0.00     0.024 C 
HETATM    6  C4  UNK     1      30.780  -8.467  33.919  1.00  0.00     0.104 C 
HETATM    7  C5  UNK     1      32.378 -10.119  32.919  1.00  0.00     0.021 C 
HETATM    8  C6  UNK     1      30.334 -12.067  32.288  1.00  0.00     0.093 C 
HETATM    9  C7  UNK     1      29.987 -10.705  32.846  1.00  0.00     0.159 C 
HETATM   10  C8  UNK     1      32.001  -7.554  34.061  1.00  0.00     0.052 C 
HETATM   11  C10 UNK     1      33.242  -7.978  33.729  1.00  0.00     0.018 C 
HETATM   12  C16 UNK     1      34.505  -7.165  33.825  1.00  0.00     0.069 C 
HETATM   13  H7  UNK     1      34.355  -9.542  32.971  1.00  0.00     0.165 HD
ENDROOT
BRANCH   6  14
HETATM   14  C11 UNK     1      30.173  -8.732  35.270  1.00  0.00     0.029 A 
HETATM   15  C18 UNK     1      28.827  -8.178  35.562  1.00  0.00     0.194 A 
HETATM   16  C25 UNK     1      28.279  -8.465  36.902  1.00  0.00     0.048 A 
HETATM   17  O6  UNK     1      28.202  -7.519  34.743  1.00  0.00    -0.287 OA
HETATM   18  C27 UNK     1      29.037  -9.221  37.797  1.00  0.00     0.089 A 
HETATM   19  C28 UNK     1      27.020  -7.987  37.274  1.00  0.00     0.018 A 
HETATM   20  C29 UNK     1      28.537  -9.505  39.069  1.00  0.00     0.038 A 
HETATM   21  O4  UNK     1      30.277  -9.715  37.484  1.00  0.00    -0.321 OA
HETATM   22  C31 UNK     1      27.281  -9.029  39.442  1.00  0.00     0.003 A 
HETATM   23  C30 UNK     1      26.523  -8.273  38.547  1.00  0.00     0.001 A 
HETATM   24  C21 UNK     1      30.775  -9.440  36.234  1.00  0.00     0.154 A 
ENDBRANCH   6  14
BRANCH  10  25
HETATM   25  C12 UNK     1      31.746  -6.196  34.571  1.00  0.00     0.292 C 
HETATM   26  O5  UNK     1      31.248  -5.312  33.899  1.00  0.00    -0.259 OA
BRANCH  25  27
HETATM   27  O2  UNK     1      32.155  -6.140  35.860  1.00  0.00    -0.315 OA
BRANCH  27  28
HETATM   28  C19 UNK     1      31.817  -4.933  36.553  1.00  0.00     0.211 C 
BRANCH  28  29
HETATM   29  C13 UNK     1      30.445  -5.090  37.177  1.00  0.00     0.145 C 
HETATM   30  C17 UNK     1      30.416  -6.069  38.338  1.00  0.00     0.036 C 
HETATM   31  C20 UNK     1      29.236  -5.565  39.129  1.00  0.00     0.029 C 
HETATM   32  C22 UNK     1      29.376  -4.064  38.977  1.00  0.00     0.168 C 
HETATM   33  O3  UNK     1      30.001  -3.830  37.706  1.00  0.00    -0.384 OA
ENDBRANCH  28  29
ENDBRANCH  27  28
ENDBRANCH  25  27
ENDBRANCH  10  25
BRANCH   3  34
HETATM   34  C9  UNK     1      31.946 -13.333  30.803  1.00  0.00    -0.053 A 
HETATM   35  C14 UNK     1      30.990 -14.344  30.740  1.00  0.00     0.010 A 
HETATM   36  C23 UNK     1      31.319 -15.577  30.175  1.00  0.00     0.030 A 
HETATM   37  C26 UNK     1      32.603 -15.795  29.676  1.00  0.00     0.029 A 
HETATM   38  C24 UNK     1      33.559 -14.781  29.742  1.00  0.00     0.030 A 
HETATM   39  C15 UNK     1      33.230 -13.548  30.306  1.00  0.00     0.010 A 
BRANCH  37  40
HETATM   40  N2  UNK     1      32.936 -17.042  29.105  1.00  0.00    -0.390 N 
HETATM   41  C32 UNK     1      31.898 -17.919  28.605  1.00  0.00     0.149 C 
HETATM   42  C33 UNK     1      34.322 -17.453  29.000  1.00  0.00     0.149 C 
ENDBRANCH  37  40
ENDBRANCH   3  34
TORSDOF 7
ENDMDL
MODEL 8
REMARK VINA RESULT:      -8.0     32.380     35.281
REMARK  7 active torsions:
REMARK  status: ('A' for Active; 'I' for Inactive)
REMARK    1  A    between atoms: C12_20  and  O2_2 
REMARK    2  A    between atoms: C19_27  and  O2_2 
REMARK    3  A    between atoms: C26_34  and  N2_8 
REMARK    4  A    between atoms: C1_9  and  C9_17 
REMARK    5  A    between atoms: C11_19  and  C4_12 
REMARK    6  A    between atoms: C12_20  and  C8_16 
REMARK    7  A    between atoms: C13_21  and  C19_27 
ROOT
HETATM    1  O1  UNK     1      18.888  13.134  11.566  1.00  0.00    -0.293 OA
HETATM    2  N1  UNK     1      19.950  12.364   7.013  1.00  0.00    -0.362 N 
HETATM    3  C1  UNK     1      17.187  11.051   9.184  1.00  0.00     0.031 C 
HETATM    4  C2  UNK     1      18.265  10.943   8.095  1.00  0.00     0.067 C 
HETATM    5  C3  UNK     1      19.512  12.765   9.305  1.00  0.00     0.024 C 
HETATM    6  C4  UNK     1      20.545  13.888   9.330  1.00  0.00     0.104 C 
HETATM    7  C5  UNK     1      19.278  12.056   8.180  1.00  0.00     0.021 C 
HETATM    8  C6  UNK     1      17.839  11.242  10.554  1.00  0.00     0.093 C 
HETATM    9  C7  UNK     1      18.746  12.453  10.551  1.00  0.00     0.159 C 
HETATM   10  C8  UNK     1      21.106  14.209   7.942  1.00  0.00     0.052 C 
HETATM   11  C10 UNK     1      20.807  13.443   6.867  1.00  0.00     0.018 C 
HETATM   12  C16 UNK     1      21.298  13.670   5.461  1.00  0.00     0.069 C 
HETATM   13  H7  UNK     1      19.739  11.814   6.187  1.00  0.00     0.165 HD
ENDROOT
BRANCH   6  14
HETATM   14  C11 UNK     1      21.666  13.548  10.274  1.00  0.00     0.029 A 
HETATM   15  C18 UNK     1      21.883  14.417  11.458  1.00  0.00     0.194 A 
HETATM   16  C25 UNK     1      22.997  14.041  12.349  1.00  0.00     0.048 A 
HETATM   17  O6  UNK     1      21.182  15.394  11.686  1.00  0.00    -0.287 OA
HETATM   18  C27 UNK     1      23.765  12.918  12.039  1.00  0.00     0.089 A 
HETATM   19  C28 UNK     1      23.283  14.797  13.490  1.00  0.00     0.018 A 
HETATM   20  C29 UNK     1      24.822  12.544  12.869  1.00  0.00     0.038 A 
HETATM   21  O4  UNK     1      23.527  12.141  10.934  1.00  0.00    -0.321 OA
HETATM   22  C31 UNK     1      25.109  13.297  14.008  1.00  0.00     0.003 A 
HETATM   23  C30 UNK     1      24.342  14.420  14.317  1.00  0.00     0.001 A 
HETATM   24  C21 UNK     1      22.488  12.503  10.113  1.00  0.00     0.154 A 
ENDBRANCH   6  14
BRANCH  10  25
HETATM   25  C12 UNK     1      21.977  15.392   7.846  1.00  0.00     0.292 C 
HETATM   26  O5  UNK     1      23.181  15.323   7.685  1.00  0.00    -0.259 OA
BRANCH  25  27
HETATM   27  O2  UNK     1      21.208  16.499   7.967  1.00  0.00    -0.315 OA
BRANCH  27  28
HETATM   28  C19 UNK     1      20.904  17.165   6.736  1.00  0.00     0.211 C 
BRANCH  28  29
HETATM   29  C13 UNK     1      19.404  17.138   6.518  1.00  0.00     0.145 C 
HETATM   30  C17 UNK     1      18.981  16.310   5.316  1.00  0.00     0.036 C 
HETATM   31  C20 UNK     1      17.576  15.920   5.699  1.00  0.00     0.029 C 
HETATM   32  C22 UNK     1      17.712  15.681   7.189  1.00  0.00     0.168 C 
HETATM   33  O3  UNK     1      18.755  16.549   7.657  1.00  0.00    -0.384 OA
ENDBRANCH  28  29
ENDBRANCH  27  28
ENDBRANCH  25  27
ENDBRANCH  10  25
BRANCH   3  34
HETATM   34  C9  UNK     1      16.236   9.870   9.157  1.00  0.00    -0.053 A 
HETATM   35  C14 UNK     1      15.042   9.956   8.444  1.00  0.00     0.010 A 
HETATM   36  C23 UNK     1      14.167   8.870   8.420  1.00  0.00     0.030 A 
HETATM   37  C26 UNK     1      14.488   7.700   9.109  1.00  0.00     0.029 A 
HETATM   38  C24 UNK     1      15.684   7.617   9.823  1.00  0.00     0.030 A 
HETATM   39  C15 UNK     1      16.559   8.703   9.847  1.00  0.00     0.010 A 
BRANCH  37  40
HETATM   40  N2  UNK     1      13.603   6.601   9.085  1.00  0.00    -0.390 N 
HETATM   41  C32 UNK     1      14.114   5.247   9.145  1.00  0.00     0.149 C 
HETATM   42  C33 UNK     1      12.172   6.814   9.013  1.00  0.00     0.149 C 
ENDBRANCH  37  40
ENDBRANCH   3  34
TORSDOF 7
ENDMDL
MODEL 9
REMARK VINA RESULT:      -8.0      1.378      2.289
REMARK  7 active torsions:
REMARK  status: ('A' for Active; 'I' for Inactive)
REMARK    1  A    between atoms: C12_20  and  O2_2 
REMARK    2  A    between atoms: C19_27  and  O2_2 
REMARK    3  A    between atoms: C26_34  and  N2_8 
REMARK    4  A    between atoms: C1_9  and  C9_17 
REMARK    5  A    between atoms: C11_19  and  C4_12 
REMARK    6  A    between atoms: C12_20  and  C8_16 
REMARK    7  A    between atoms: C13_21  and  C19_27 
ROOT
HETATM    1  O1  UNK     1      28.847 -10.126  35.264  1.00  0.00    -0.293 OA
HETATM    2  N1  UNK     1      29.481  -6.217  37.866  1.00  0.00    -0.362 N 
HETATM    3  C1  UNK     1      26.569  -8.562  37.562  1.00  0.00     0.031 C 
HETATM    4  C2  UNK     1      27.229  -7.183  37.706  1.00  0.00     0.067 C 
HETATM    5  C3  UNK     1      29.225  -8.135  36.502  1.00  0.00     0.024 C 
HETATM    6  C4  UNK     1      30.708  -8.107  36.144  1.00  0.00     0.104 C 
HETATM    7  C5  UNK     1      28.684  -7.201  37.312  1.00  0.00     0.021 C 
HETATM    8  C6  UNK     1      26.869  -9.149  36.181  1.00  0.00     0.093 C 
HETATM    9  C7  UNK     1      28.361  -9.221  35.943  1.00  0.00     0.159 C 
HETATM   10  C8  UNK     1      31.489  -7.055  36.935  1.00  0.00     0.052 C 
HETATM   11  C10 UNK     1      30.860  -6.162  37.733  1.00  0.00     0.018 C 
HETATM   12  C16 UNK     1      31.528  -5.092  38.556  1.00  0.00     0.069 C 
HETATM   13  H7  UNK     1      29.039  -5.539  38.478  1.00  0.00     0.165 HD
ENDROOT
BRANCH   6  14
HETATM   14  C11 UNK     1      30.887  -7.882  34.667  1.00  0.00     0.029 A 
HETATM   15  C18 UNK     1      30.256  -6.688  34.051  1.00  0.00     0.194 A 
HETATM   16  C25 UNK     1      30.461  -6.516  32.600  1.00  0.00     0.048 A 
HETATM   17  O6  UNK     1      29.601  -5.888  34.704  1.00  0.00    -0.287 OA
HETATM   18  C27 UNK     1      31.217  -7.460  31.905  1.00  0.00     0.089 A 
HETATM   19  C28 UNK     1      29.907  -5.424  31.927  1.00  0.00     0.018 A 
HETATM   20  C29 UNK     1      31.424  -7.317  30.532  1.00  0.00     0.038 A 
HETATM   21  O4  UNK     1      31.784  -8.550  32.515  1.00  0.00    -0.321 OA
HETATM   22  C31 UNK     1      30.872  -6.227  29.858  1.00  0.00     0.003 A 
HETATM   23  C30 UNK     1      30.115  -5.283  30.554  1.00  0.00     0.001 A 
HETATM   24  C21 UNK     1      31.585  -8.698  33.866  1.00  0.00     0.154 A 
ENDBRANCH   6  14
BRANCH  10  25
HETATM   25  C12 UNK     1      32.954  -7.075  36.782  1.00  0.00     0.292 C 
HETATM   26  O5  UNK     1      33.674  -7.872  37.353  1.00  0.00    -0.259 OA
BRANCH  25  27
HETATM   27  O2  UNK     1      33.307  -6.085  35.929  1.00  0.00    -0.315 OA
BRANCH  27  28
HETATM   28  C19 UNK     1      34.654  -5.619  36.065  1.00  0.00     0.211 C 
BRANCH  28  29
HETATM   29  C13 UNK     1      35.368  -5.778  34.738  1.00  0.00     0.145 C 
HETATM   30  C17 UNK     1      36.375  -6.915  34.724  1.00  0.00     0.036 C 
HETATM   31  C20 UNK     1      36.419  -7.260  33.256  1.00  0.00     0.029 C 
HETATM   32  C22 UNK     1      34.970  -7.087  32.850  1.00  0.00     0.168 C 
HETATM   33  O3  UNK     1      34.416  -6.074  33.703  1.00  0.00    -0.384 OA
ENDBRANCH  28  29
ENDBRANCH  27  28
ENDBRANCH  25  27
ENDBRANCH  10  25
BRANCH   3  34
HETATM   34  C9  UNK     1      25.082  -8.512  37.857  1.00  0.00    -0.053 A 
HETATM   35  C14 UNK     1      24.179  -9.098  36.973  1.00  0.00     0.010 A 
HETATM   36  C23 UNK     1      22.812  -9.052  37.245  1.00  0.00     0.030 A 
HETATM   37  C26 UNK     1      22.351  -8.419  38.399  1.00  0.00     0.029 A 
HETATM   38  C24 UNK     1      23.258  -7.832  39.282  1.00  0.00     0.030 A 
HETATM   39  C15 UNK     1      24.625  -7.878  39.011  1.00  0.00     0.010 A 
BRANCH  37  40
HETATM   40  N2  UNK     1      20.967  -8.372  38.674  1.00  0.00    -0.390 N 
HETATM   41  C32 UNK     1      20.135  -9.535  38.445  1.00  0.00     0.149 C 
HETATM   42  C33 UNK     1      20.366  -7.165  39.203  1.00  0.00     0.149 C 
ENDBRANCH  37  40
ENDBRANCH   3  34
TORSDOF 7
ENDMDL
MODEL 10
REMARK VINA RESULT:      -7.9      6.451      8.920
REMARK  7 active torsions:
REMARK  status: ('A' for Active; 'I' for Inactive)
REMARK    1  A    between atoms: C12_20  and  O2_2 
REMARK    2  A    between atoms: C19_27  and  O2_2 
REMARK    3  A    between atoms: C26_34  and  N2_8 
REMARK    4  A    between atoms: C1_9  and  C9_17 
REMARK    5  A    between atoms: C11_19  and  C4_12 
REMARK    6  A    between atoms: C12_20  and  C8_16 
REMARK    7  A    between atoms: C13_21  and  C19_27 
ROOT
HETATM    1  O1  UNK     1      31.175 -11.187  29.973  1.00  0.00    -0.293 OA
HETATM    2  N1  UNK     1      34.738 -11.937  33.005  1.00  0.00    -0.362 N 
HETATM    3  C1  UNK     1      32.061 -14.214  31.694  1.00  0.00     0.031 C 
HETATM    4  C2  UNK     1      32.995 -13.651  32.775  1.00  0.00     0.067 C 
HETATM    5  C3  UNK     1      32.956 -11.471  31.517  1.00  0.00     0.024 C 
HETATM    6  C4  UNK     1      33.563 -10.113  31.178  1.00  0.00     0.104 C 
HETATM    7  C5  UNK     1      33.545 -12.296  32.408  1.00  0.00     0.021 C 
HETATM    8  C6  UNK     1      31.018 -13.167  31.300  1.00  0.00     0.093 C 
HETATM    9  C7  UNK     1      31.688 -11.890  30.843  1.00  0.00     0.159 C 
HETATM   10  C8  UNK     1      34.947  -9.910  31.802  1.00  0.00     0.052 C 
HETATM   11  C10 UNK     1      35.461 -10.799  32.682  1.00  0.00     0.018 C 
HETATM   12  C16 UNK     1      36.807 -10.700  33.350  1.00  0.00     0.069 C 
HETATM   13  H7  UNK     1      35.154 -12.589  33.662  1.00  0.00     0.165 HD
ENDROOT
BRANCH   6  14
HETATM   14  C11 UNK     1      32.638  -9.004  31.601  1.00  0.00     0.029 A 
HETATM   15  C18 UNK     1      32.150  -8.055  30.568  1.00  0.00     0.194 A 
HETATM   16  C25 UNK     1      31.249  -6.987  31.036  1.00  0.00     0.048 A 
HETATM   17  O6  UNK     1      32.476  -8.149  29.393  1.00  0.00    -0.287 OA
HETATM   18  C27 UNK     1      30.911  -6.927  32.389  1.00  0.00     0.089 A 
HETATM   19  C28 UNK     1      30.736  -6.043  30.141  1.00  0.00     0.018 A 
HETATM   20  C29 UNK     1      30.058  -5.925  32.854  1.00  0.00     0.038 A 
HETATM   21  O4  UNK     1      31.384  -7.827  33.310  1.00  0.00    -0.321 OA
HETATM   22  C31 UNK     1      29.546  -4.983  31.962  1.00  0.00     0.003 A 
HETATM   23  C30 UNK     1      29.884  -5.042  30.609  1.00  0.00     0.001 A 
HETATM   24  C21 UNK     1      32.223  -8.816  32.861  1.00  0.00     0.154 A 
ENDBRANCH   6  14
BRANCH  10  25
HETATM   25  C12 UNK     1      35.680  -8.702  31.387  1.00  0.00     0.292 C 
HETATM   26  O5  UNK     1      35.925  -8.435  30.226  1.00  0.00    -0.259 OA
BRANCH  25  27
HETATM   27  O2  UNK     1      36.005  -7.997  32.497  1.00  0.00    -0.315 OA
BRANCH  27  28
HETATM   28  C19 UNK     1      35.365  -6.722  32.615  1.00  0.00     0.211 C 
BRANCH  28  29
HETATM   29  C13 UNK     1      34.856  -6.554  34.033  1.00  0.00     0.145 C 
HETATM   30  C17 UNK     1      35.954  -6.617  35.081  1.00  0.00     0.036 C 
HETATM   31  C20 UNK     1      35.347  -5.813  36.202  1.00  0.00     0.029 C 
HETATM   32  C22 UNK     1      34.628  -4.714  35.446  1.00  0.00     0.168 C 
HETATM   33  O3  UNK     1      34.236  -5.266  34.180  1.00  0.00    -0.384 OA
ENDBRANCH  28  29
ENDBRANCH  27  28
ENDBRANCH  25  27
ENDBRANCH  10  25
BRANCH   3  34
HETATM   34  C9  UNK     1      31.429 -15.526  32.118  1.00  0.00    -0.053 A 
HETATM   35  C14 UNK     1      30.826 -15.634  33.369  1.00  0.00     0.010 A 
HETATM   36  C23 UNK     1      30.245 -16.841  33.759  1.00  0.00     0.030 A 
HETATM   37  C26 UNK     1      30.270 -17.937  32.897  1.00  0.00     0.029 A 
HETATM   38  C24 UNK     1      30.876 -17.827  31.645  1.00  0.00     0.030 A 
HETATM   39  C15 UNK     1      31.456 -16.620  31.255  1.00  0.00     0.010 A 
BRANCH  37  40
HETATM   40  N2  UNK     1      29.682 -19.158  33.291  1.00  0.00    -0.390 N 
HETATM   41  C32 UNK     1      30.253 -19.930  34.376  1.00  0.00     0.149 C 
HETATM   42  C33 UNK     1      28.493 -19.649  32.624  1.00  0.00     0.149 C 
ENDBRANCH  37  40
ENDBRANCH   3  34
TORSDOF 7
ENDMDL
