MODEL 1
REMARK VINA RESULT:      -6.9      0.000      0.000
REMARK  6 active torsions:
REMARK  status: ('A' for Active; 'I' for Inactive)
REMARK    1  A    between atoms: C13_16  and  O2_2 
REMARK    2  A    between atoms: C15_18  and  O2_2 
REMARK    3  A    between atoms: C1_4  and  C2_5 
REMARK    4  A    between atoms: C1_4  and  C3_6 
REMARK    5  A    between atoms: C3_6  and  C6_9 
REMARK    6  A    between atoms: C15_18  and  C16_19 
ROOT
HETATM    1  O1  UNK     1      18.258   2.792  33.589  1.00  0.00    -0.274 OA
HETATM    2  O3  UNK     1      18.467   0.538  33.433  1.00  0.00    -0.259 OA
HETATM    3  C2  UNK     1      18.656   1.757  31.396  1.00  0.00     0.024 A 
HETATM    4  C4  UNK     1      18.606   2.960  30.785  1.00  0.00    -0.037 A 
HETATM    5  C5  UNK     1      18.410   4.180  31.596  1.00  0.00     0.005 A 
HETATM    6  C7  UNK     1      18.240   4.052  32.972  1.00  0.00     0.092 A 
HETATM    7  C8  UNK     1      18.460   1.628  32.868  1.00  0.00     0.295 A 
HETATM    8  C9  UNK     1      18.726   3.147  29.293  1.00  0.00     0.050 C 
HETATM    9  C10 UNK     1      18.390   5.480  31.067  1.00  0.00     0.017 A 
HETATM   10  C11 UNK     1      18.049   5.152  33.811  1.00  0.00     0.075 A 
HETATM   11  C13 UNK     1      18.027   6.430  33.265  1.00  0.00     0.071 A 
HETATM   12  C14 UNK     1      18.201   6.594  31.893  1.00  0.00     0.038 A 
ENDROOT
BRANCH   3  13
HETATM   13  C1  UNK     1      18.913   0.447  30.698  1.00  0.00     0.045 C 
BRANCH  13  14
HETATM   14  C3  UNK     1      20.404   0.155  30.596  1.00  0.00     0.004 C 
BRANCH  14  15
HETATM   15  C6  UNK     1      20.724  -0.583  29.295  1.00  0.00    -0.004 C 
HETATM   16  C12 UNK     1      19.561  -0.519  28.318  1.00  0.00     0.005 C 
ENDBRANCH  14  15
ENDBRANCH  13  14
ENDBRANCH   3  13
BRANCH  11  17
HETATM   17  O2  UNK     1      17.843   7.515  34.065  1.00  0.00    -0.347 OA
BRANCH  17  18
HETATM   18  C15 UNK     1      17.863   8.796  33.437  1.00  0.00     0.202 C 
BRANCH  18  19
HETATM   19  C16 UNK     1      18.919   9.630  34.083  1.00  0.00    -0.011 C 
HETATM   20  C17 UNK     1      20.104   9.156  34.483  1.00  0.00     0.009 C 
ENDBRANCH  18  19
ENDBRANCH  17  18
ENDBRANCH  11  17
TORSDOF 6
ENDMDL
MODEL 2
REMARK VINA RESULT:      -6.6      1.567      6.910
REMARK  6 active torsions:
REMARK  status: ('A' for Active; 'I' for Inactive)
REMARK    1  A    between atoms: C13_16  and  O2_2 
REMARK    2  A    between atoms: C15_18  and  O2_2 
REMARK    3  A    between atoms: C1_4  and  C2_5 
REMARK    4  A    between atoms: C1_4  and  C3_6 
REMARK    5  A    between atoms: C3_6  and  C6_9 
REMARK    6  A    between atoms: C15_18  and  C16_19 
ROOT
HETATM    1  O1  UNK     1      17.883   4.052  33.439  1.00  0.00    -0.274 OA
HETATM    2  O3  UNK     1      17.406   6.037  34.431  1.00  0.00    -0.259 OA
HETATM    3  C2  UNK     1      18.043   6.130  32.138  1.00  0.00     0.024 A 
HETATM    4  C4  UNK     1      18.456   5.451  31.046  1.00  0.00    -0.037 A 
HETATM    5  C5  UNK     1      18.566   3.979  31.105  1.00  0.00     0.005 A 
HETATM    6  C7  UNK     1      18.277   3.331  32.303  1.00  0.00     0.092 A 
HETATM    7  C8  UNK     1      17.748   5.429  33.421  1.00  0.00     0.295 A 
HETATM    8  C9  UNK     1      18.836   6.111  29.744  1.00  0.00     0.050 C 
HETATM    9  C10 UNK     1      18.940   3.175  30.017  1.00  0.00     0.017 A 
HETATM   10  C11 UNK     1      18.356   1.943  32.443  1.00  0.00     0.075 A 
HETATM   11  C13 UNK     1      18.734   1.168  31.354  1.00  0.00     0.071 A 
HETATM   12  C14 UNK     1      19.023   1.783  30.140  1.00  0.00     0.038 A 
ENDROOT
BRANCH   3  13
HETATM   13  C1  UNK     1      17.827   7.621  32.195  1.00  0.00     0.045 C 
BRANCH  13  14
HETATM   14  C3  UNK     1      16.567   8.028  31.444  1.00  0.00     0.004 C 
BRANCH  14  15
HETATM   15  C6  UNK     1      15.383   8.158  32.403  1.00  0.00    -0.004 C 
HETATM   16  C12 UNK     1      14.332   7.092  32.138  1.00  0.00     0.005 C 
ENDBRANCH  14  15
ENDBRANCH  13  14
ENDBRANCH   3  13
BRANCH  11  17
HETATM   17  O2  UNK     1      18.817  -0.185  31.471  1.00  0.00    -0.347 OA
BRANCH  17  18
HETATM   18  C15 UNK     1      20.123  -0.759  31.464  1.00  0.00     0.202 C 
BRANCH  18  19
HETATM   19  C16 UNK     1      20.281  -1.578  30.226  1.00  0.00    -0.011 C 
HETATM   20  C17 UNK     1      20.706  -1.088  29.056  1.00  0.00     0.009 C 
ENDBRANCH  18  19
ENDBRANCH  17  18
ENDBRANCH  11  17
TORSDOF 6
ENDMDL
MODEL 3
REMARK VINA RESULT:      -6.5      1.771      2.436
REMARK  6 active torsions:
REMARK  status: ('A' for Active; 'I' for Inactive)
REMARK    1  A    between atoms: C13_16  and  O2_2 
REMARK    2  A    between atoms: C15_18  and  O2_2 
REMARK    3  A    between atoms: C1_4  and  C2_5 
REMARK    4  A    between atoms: C1_4  and  C3_6 
REMARK    5  A    between atoms: C3_6  and  C6_9 
REMARK    6  A    between atoms: C15_18  and  C16_19 
ROOT
HETATM    1  O1  UNK     1      18.534   4.658  29.976  1.00  0.00    -0.274 OA
HETATM    2  O3  UNK     1      18.808   2.855  28.625  1.00  0.00    -0.259 OA
HETATM    3  C2  UNK     1      18.510   2.400  30.944  1.00  0.00     0.024 A 
HETATM    4  C4  UNK     1      18.351   2.902  32.188  1.00  0.00    -0.037 A 
HETATM    5  C5  UNK     1      18.235   4.363  32.372  1.00  0.00     0.005 A 
HETATM    6  C7  UNK     1      18.333   5.191  31.258  1.00  0.00     0.092 A 
HETATM    7  C8  UNK     1      18.628   3.295  29.757  1.00  0.00     0.295 A 
HETATM    8  C9  UNK     1      18.296   2.051  33.433  1.00  0.00     0.050 C 
HETATM    9  C10 UNK     1      18.020   4.983  33.613  1.00  0.00     0.017 A 
HETATM   10  C11 UNK     1      18.234   6.582  31.345  1.00  0.00     0.075 A 
HETATM   11  C13 UNK     1      18.028   7.175  32.584  1.00  0.00     0.071 A 
HETATM   12  C14 UNK     1      17.918   6.375  33.719  1.00  0.00     0.038 A 
ENDROOT
BRANCH   3  13
HETATM   13  C1  UNK     1      18.578   0.932  30.610  1.00  0.00     0.045 C 
BRANCH  13  14
HETATM   14  C3  UNK     1      20.004   0.406  30.709  1.00  0.00     0.004 C 
BRANCH  14  15
HETATM   15  C6  UNK     1      20.020  -1.008  31.291  1.00  0.00    -0.004 C 
HETATM   16  C12 UNK     1      20.288  -2.050  30.217  1.00  0.00     0.005 C 
ENDBRANCH  14  15
ENDBRANCH  13  14
ENDBRANCH   3  13
BRANCH  11  17
HETATM   17  O2  UNK     1      17.929   8.527  32.690  1.00  0.00    -0.347 OA
BRANCH  17  18
HETATM   18  C15 UNK     1      17.983   9.082  34.003  1.00  0.00     0.202 C 
BRANCH  18  19
HETATM   19  C16 UNK     1      19.239   9.878  34.137  1.00  0.00    -0.011 C 
HETATM   20  C17 UNK     1      20.415   9.360  34.511  1.00  0.00     0.009 C 
ENDBRANCH  18  19
ENDBRANCH  17  18
ENDBRANCH  11  17
TORSDOF 6
ENDMDL
MODEL 4
REMARK VINA RESULT:      -6.5      2.150      7.949
REMARK  6 active torsions:
REMARK  status: ('A' for Active; 'I' for Inactive)
REMARK    1  A    between atoms: C13_16  and  O2_2 
REMARK    2  A    between atoms: C15_18  and  O2_2 
REMARK    3  A    between atoms: C1_4  and  C2_5 
REMARK    4  A    between atoms: C1_4  and  C3_6 
REMARK    5  A    between atoms: C3_6  and  C6_9 
REMARK    6  A    between atoms: C15_18  and  C16_19 
ROOT
HETATM    1  O1  UNK     1      15.957   6.562  32.871  1.00  0.00    -0.274 OA
HETATM    2  O3  UNK     1      14.361   7.812  33.890  1.00  0.00    -0.259 OA
HETATM    3  C2  UNK     1      16.600   8.604  34.074  1.00  0.00     0.024 A 
HETATM    4  C4  UNK     1      17.905   8.393  33.798  1.00  0.00    -0.037 A 
HETATM    5  C5  UNK     1      18.294   7.226  32.980  1.00  0.00     0.005 A 
HETATM    6  C7  UNK     1      17.305   6.349  32.546  1.00  0.00     0.092 A 
HETATM    7  C8  UNK     1      15.547   7.652  33.617  1.00  0.00     0.295 A 
HETATM    8  C9  UNK     1      19.020   9.281  34.293  1.00  0.00     0.050 C 
HETATM    9  C10 UNK     1      19.615   6.942  32.597  1.00  0.00     0.017 A 
HETATM   10  C11 UNK     1      17.588   5.223  31.769  1.00  0.00     0.075 A 
HETATM   11  C13 UNK     1      18.902   4.957  31.407  1.00  0.00     0.071 A 
HETATM   12  C14 UNK     1      19.916   5.818  31.818  1.00  0.00     0.038 A 
ENDROOT
BRANCH   3  13
HETATM   13  C1  UNK     1      16.062   9.785  34.841  1.00  0.00     0.045 C 
BRANCH  13  14
HETATM   14  C3  UNK     1      15.832  10.982  33.928  1.00  0.00     0.004 C 
BRANCH  14  15
HETATM   15  C6  UNK     1      16.359  12.264  34.573  1.00  0.00    -0.004 C 
HETATM   16  C12 UNK     1      17.716  12.654  34.010  1.00  0.00     0.005 C 
ENDBRANCH  14  15
ENDBRANCH  13  14
ENDBRANCH   3  13
BRANCH  11  17
HETATM   17  O2  UNK     1      19.198   3.866  30.651  1.00  0.00    -0.347 OA
BRANCH  17  18
HETATM   18  C15 UNK     1      18.362   2.720  30.808  1.00  0.00     0.202 C 
BRANCH  18  19
HETATM   19  C16 UNK     1      18.624   1.777  29.681  1.00  0.00    -0.011 C 
HETATM   20  C17 UNK     1      17.869   1.704  28.578  1.00  0.00     0.009 C 
ENDBRANCH  18  19
ENDBRANCH  17  18
ENDBRANCH  11  17
TORSDOF 6
ENDMDL
MODEL 5
REMARK VINA RESULT:      -6.4     22.218     24.426
REMARK  6 active torsions:
REMARK  status: ('A' for Active; 'I' for Inactive)
REMARK    1  A    between atoms: C13_16  and  O2_2 
REMARK    2  A    between atoms: C15_18  and  O2_2 
REMARK    3  A    between atoms: C1_4  and  C2_5 
REMARK    4  A    between atoms: C1_4  and  C3_6 
REMARK    5  A    between atoms: C3_6  and  C6_9 
REMARK    6  A    between atoms: C15_18  and  C16_19 
ROOT
HETATM    1  O1  UNK     1      13.897   5.174   8.785  1.00  0.00    -0.274 OA
HETATM    2  O3  UNK     1      16.041   4.902   9.474  1.00  0.00    -0.259 OA
HETATM    3  C2  UNK     1      14.994   6.955  10.072  1.00  0.00     0.024 A 
HETATM    4  C4  UNK     1      13.895   7.736   9.988  1.00  0.00    -0.037 A 
HETATM    5  C5  UNK     1      12.692   7.223   9.301  1.00  0.00     0.005 A 
HETATM    6  C7  UNK     1      12.736   5.959   8.720  1.00  0.00     0.092 A 
HETATM    7  C8  UNK     1      15.038   5.607   9.436  1.00  0.00     0.295 A 
HETATM    8  C9  UNK     1      13.816   9.134  10.549  1.00  0.00     0.050 C 
HETATM    9  C10 UNK     1      11.485   7.932   9.198  1.00  0.00     0.017 A 
HETATM   10  C11 UNK     1      11.643   5.400   8.052  1.00  0.00     0.075 A 
HETATM   11  C13 UNK     1      10.460   6.123   7.957  1.00  0.00     0.071 A 
HETATM   12  C14 UNK     1      10.380   7.388   8.533  1.00  0.00     0.038 A 
ENDROOT
BRANCH   3  13
HETATM   13  C1  UNK     1      16.262   7.329  10.797  1.00  0.00     0.045 C 
BRANCH  13  14
HETATM   14  C3  UNK     1      17.247   8.027   9.869  1.00  0.00     0.004 C 
BRANCH  14  15
HETATM   15  C6  UNK     1      17.287   9.529  10.153  1.00  0.00    -0.004 C 
HETATM   16  C12 UNK     1      16.976  10.340   8.905  1.00  0.00     0.005 C 
ENDBRANCH  14  15
ENDBRANCH  13  14
ENDBRANCH   3  13
BRANCH  11  17
HETATM   17  O2  UNK     1       9.385   5.596   7.311  1.00  0.00    -0.347 OA
BRANCH  17  18
HETATM   18  C15 UNK     1       8.094   5.973   7.786  1.00  0.00     0.202 C 
BRANCH  18  19
HETATM   19  C16 UNK     1       7.692   5.038   8.878  1.00  0.00    -0.011 C 
HETATM   20  C17 UNK     1       7.617   5.385  10.168  1.00  0.00     0.009 C 
ENDBRANCH  18  19
ENDBRANCH  17  18
ENDBRANCH  11  17
TORSDOF 6
ENDMDL
MODEL 6
REMARK VINA RESULT:      -6.4     13.787     18.001
REMARK  6 active torsions:
REMARK  status: ('A' for Active; 'I' for Inactive)
REMARK    1  A    between atoms: C13_16  and  O2_2 
REMARK    2  A    between atoms: C15_18  and  O2_2 
REMARK    3  A    between atoms: C1_4  and  C2_5 
REMARK    4  A    between atoms: C1_4  and  C3_6 
REMARK    5  A    between atoms: C3_6  and  C6_9 
REMARK    6  A    between atoms: C15_18  and  C16_19 
ROOT
HETATM    1  O1  UNK     1      19.377   1.461  15.212  1.00  0.00    -0.274 OA
HETATM    2  O3  UNK     1      19.359   3.522  16.162  1.00  0.00    -0.259 OA
HETATM    3  C2  UNK     1      19.048   1.679  17.637  1.00  0.00     0.024 A 
HETATM    4  C4  UNK     1      18.918   0.341  17.771  1.00  0.00    -0.037 A 
HETATM    5  C5  UNK     1      19.057  -0.524  16.581  1.00  0.00     0.005 A 
HETATM    6  C7  UNK     1      19.280   0.068  15.342  1.00  0.00     0.092 A 
HETATM    7  C8  UNK     1      19.273   2.306  16.304  1.00  0.00     0.295 A 
HETATM    8  C9  UNK     1      18.618  -0.344  19.081  1.00  0.00     0.050 C 
HETATM    9  C10 UNK     1      18.986  -1.926  16.618  1.00  0.00     0.017 A 
HETATM   10  C11 UNK     1      19.423  -0.677  14.168  1.00  0.00     0.075 A 
HETATM   11  C13 UNK     1      19.343  -2.063  14.227  1.00  0.00     0.071 A 
HETATM   12  C14 UNK     1      19.128  -2.688  15.452  1.00  0.00     0.038 A 
ENDROOT
BRANCH   3  13
HETATM   13  C1  UNK     1      18.992   2.667  18.774  1.00  0.00     0.045 C 
BRANCH  13  14
HETATM   14  C3  UNK     1      20.388   3.037  19.256  1.00  0.00     0.004 C 
BRANCH  14  15
HETATM   15  C6  UNK     1      20.727   2.299  20.552  1.00  0.00    -0.004 C 
HETATM   16  C12 UNK     1      19.504   2.147  21.443  1.00  0.00     0.005 C 
ENDBRANCH  14  15
ENDBRANCH  13  14
ENDBRANCH   3  13
BRANCH  11  17
HETATM   17  O2  UNK     1      19.480  -2.806  13.096  1.00  0.00    -0.347 OA
BRANCH  17  18
HETATM   18  C15 UNK     1      20.440  -2.361  12.138  1.00  0.00     0.202 C 
BRANCH  18  19
HETATM   19  C16 UNK     1      20.408  -3.282  10.964  1.00  0.00    -0.011 C 
HETATM   20  C17 UNK     1      20.914  -2.978   9.763  1.00  0.00     0.009 C 
ENDBRANCH  18  19
ENDBRANCH  17  18
ENDBRANCH  11  17
TORSDOF 6
ENDMDL
MODEL 7
REMARK VINA RESULT:      -6.4     21.998     24.367
REMARK  6 active torsions:
REMARK  status: ('A' for Active; 'I' for Inactive)
REMARK    1  A    between atoms: C13_16  and  O2_2 
REMARK    2  A    between atoms: C15_18  and  O2_2 
REMARK    3  A    between atoms: C1_4  and  C2_5 
REMARK    4  A    between atoms: C1_4  and  C3_6 
REMARK    5  A    between atoms: C3_6  and  C6_9 
REMARK    6  A    between atoms: C15_18  and  C16_19 
ROOT
HETATM    1  O1  UNK     1      12.866   8.114  10.529  1.00  0.00    -0.274 OA
HETATM    2  O3  UNK     1      14.212   9.583  11.617  1.00  0.00    -0.259 OA
HETATM    3  C2  UNK     1      15.293   7.735  10.573  1.00  0.00     0.024 A 
HETATM    4  C4  UNK     1      15.158   6.588   9.874  1.00  0.00    -0.037 A 
HETATM    5  C5  UNK     1      13.815   6.165   9.425  1.00  0.00     0.005 A 
HETATM    6  C7  UNK     1      12.715   6.943   9.772  1.00  0.00     0.092 A 
HETATM    7  C8  UNK     1      14.108   8.556  10.951  1.00  0.00     0.295 A 
HETATM    8  C9  UNK     1      16.311   5.680   9.523  1.00  0.00     0.050 C 
HETATM    9  C10 UNK     1      13.570   5.018   8.655  1.00  0.00     0.017 A 
HETATM   10  C11 UNK     1      11.412   6.615   9.388  1.00  0.00     0.075 A 
HETATM   11  C13 UNK     1      11.192   5.471   8.631  1.00  0.00     0.071 A 
HETATM   12  C14 UNK     1      12.272   4.673   8.261  1.00  0.00     0.038 A 
ENDROOT
BRANCH   3  13
HETATM   13  C1  UNK     1      16.607   8.313  11.034  1.00  0.00     0.045 C 
BRANCH  13  14
HETATM   14  C3  UNK     1      17.343   8.999   9.892  1.00  0.00     0.004 C 
BRANCH  14  15
HETATM   15  C6  UNK     1      17.113  10.510   9.928  1.00  0.00    -0.004 C 
HETATM   16  C12 UNK     1      16.272  10.974   8.749  1.00  0.00     0.005 C 
ENDBRANCH  14  15
ENDBRANCH  13  14
ENDBRANCH   3  13
BRANCH  11  17
HETATM   17  O2  UNK     1       9.931   5.134   8.248  1.00  0.00    -0.347 OA
BRANCH  17  18
HETATM   18  C15 UNK     1       9.047   6.202   7.912  1.00  0.00     0.202 C 
BRANCH  18  19
HETATM   19  C16 UNK     1       8.875   6.235   6.430  1.00  0.00    -0.011 C 
HETATM   20  C17 UNK     1       9.859   6.528   5.571  1.00  0.00     0.009 C 
ENDBRANCH  18  19
ENDBRANCH  17  18
ENDBRANCH  11  17
TORSDOF 6
ENDMDL
MODEL 8
REMARK VINA RESULT:      -6.4     22.821     23.911
REMARK  6 active torsions:
REMARK  status: ('A' for Active; 'I' for Inactive)
REMARK    1  A    between atoms: C13_16  and  O2_2 
REMARK    2  A    between atoms: C15_18  and  O2_2 
REMARK    3  A    between atoms: C1_4  and  C2_5 
REMARK    4  A    between atoms: C1_4  and  C3_6 
REMARK    5  A    between atoms: C3_6  and  C6_9 
REMARK    6  A    between atoms: C15_18  and  C16_19 
ROOT
HETATM    1  O1  UNK     1      16.337   6.422   9.786  1.00  0.00    -0.274 OA
HETATM    2  O3  UNK     1      15.368   4.370   9.741  1.00  0.00    -0.259 OA
HETATM    3  C2  UNK     1      13.896   6.236   9.578  1.00  0.00     0.024 A 
HETATM    4  C4  UNK     1      13.762   7.579   9.578  1.00  0.00    -0.037 A 
HETATM    5  C5  UNK     1      14.969   8.429   9.646  1.00  0.00     0.005 A 
HETATM    6  C7  UNK     1      16.216   7.819   9.750  1.00  0.00     0.092 A 
HETATM    7  C8  UNK     1      15.234   5.590   9.704  1.00  0.00     0.295 A 
HETATM    8  C9  UNK     1      12.432   8.289   9.525  1.00  0.00     0.050 C 
HETATM    9  C10 UNK     1      14.945   9.832   9.605  1.00  0.00     0.017 A 
HETATM   10  C11 UNK     1      17.406   8.549   9.820  1.00  0.00     0.075 A 
HETATM   11  C13 UNK     1      17.357   9.936   9.784  1.00  0.00     0.071 A 
HETATM   12  C14 UNK     1      16.127  10.579   9.673  1.00  0.00     0.038 A 
ENDROOT
BRANCH   3  13
HETATM   13  C1  UNK     1      12.757   5.257   9.450  1.00  0.00     0.045 C 
BRANCH  13  14
HETATM   14  C3  UNK     1      12.497   4.896   7.993  1.00  0.00     0.004 C 
BRANCH  14  15
HETATM   15  C6  UNK     1      11.247   5.607   7.474  1.00  0.00    -0.004 C 
HETATM   16  C12 UNK     1      11.502   6.276   6.133  1.00  0.00     0.005 C 
ENDBRANCH  14  15
ENDBRANCH  13  14
ENDBRANCH   3  13
BRANCH  11  17
HETATM   17  O2  UNK     1      18.504  10.665   9.850  1.00  0.00    -0.347 OA
BRANCH  17  18
HETATM   18  C15 UNK     1      18.572  11.845   9.051  1.00  0.00     0.202 C 
BRANCH  18  19
HETATM   19  C16 UNK     1      19.073  11.478   7.694  1.00  0.00    -0.011 C 
HETATM   20  C17 UNK     1      18.701  12.098   6.568  1.00  0.00     0.009 C 
ENDBRANCH  18  19
ENDBRANCH  17  18
ENDBRANCH  11  17
TORSDOF 6
ENDMDL
MODEL 9
REMARK VINA RESULT:      -6.3     15.517     18.014
REMARK  6 active torsions:
REMARK  status: ('A' for Active; 'I' for Inactive)
REMARK    1  A    between atoms: C13_16  and  O2_2 
REMARK    2  A    between atoms: C15_18  and  O2_2 
REMARK    3  A    between atoms: C1_4  and  C2_5 
REMARK    4  A    between atoms: C1_4  and  C3_6 
REMARK    5  A    between atoms: C3_6  and  C6_9 
REMARK    6  A    between atoms: C15_18  and  C16_19 
ROOT
HETATM    1  O1  UNK     1      30.841  -4.868  38.500  1.00  0.00    -0.274 OA
HETATM    2  O3  UNK     1      28.790  -4.409  39.355  1.00  0.00    -0.259 OA
HETATM    3  C2  UNK     1      29.254  -6.701  38.901  1.00  0.00     0.024 A 
HETATM    4  C4  UNK     1      30.129  -7.606  38.413  1.00  0.00    -0.037 A 
HETATM    5  C5  UNK     1      31.464  -7.159  37.966  1.00  0.00     0.005 A 
HETATM    6  C7  UNK     1      31.772  -5.803  38.023  1.00  0.00     0.092 A 
HETATM    7  C8  UNK     1      29.587  -5.248  38.947  1.00  0.00     0.295 A 
HETATM    8  C9  UNK     1      29.822  -9.077  38.276  1.00  0.00     0.050 C 
HETATM    9  C10 UNK     1      32.462  -8.022  37.487  1.00  0.00     0.017 A 
HETATM   10  C11 UNK     1      33.011  -5.296  37.621  1.00  0.00     0.075 A 
HETATM   11  C13 UNK     1      33.982  -6.168  37.144  1.00  0.00     0.071 A 
HETATM   12  C14 UNK     1      33.709  -7.532  37.080  1.00  0.00     0.038 A 
ENDROOT
BRANCH   3  13
HETATM   13  C1  UNK     1      27.889  -7.030  39.447  1.00  0.00     0.045 C 
BRANCH  13  14
HETATM   14  C3  UNK     1      26.847  -7.092  38.338  1.00  0.00     0.004 C 
BRANCH  14  15
HETATM   15  C6  UNK     1      25.893  -8.267  38.557  1.00  0.00    -0.004 C 
HETATM   16  C12 UNK     1      26.468  -9.277  39.538  1.00  0.00     0.005 C 
ENDBRANCH  14  15
ENDBRANCH  13  14
ENDBRANCH   3  13
BRANCH  11  17
HETATM   17  O2  UNK     1      35.194  -5.695  36.748  1.00  0.00    -0.347 OA
BRANCH  17  18
HETATM   18  C15 UNK     1      35.629  -6.043  35.434  1.00  0.00     0.202 C 
BRANCH  18  19
HETATM   19  C16 UNK     1      34.814  -5.280  34.442  1.00  0.00    -0.011 C 
HETATM   20  C17 UNK     1      34.610  -3.959  34.501  1.00  0.00     0.009 C 
ENDBRANCH  18  19
ENDBRANCH  17  18
ENDBRANCH  11  17
TORSDOF 6
ENDMDL
MODEL 10
REMARK VINA RESULT:      -6.3      2.313      8.584
REMARK  6 active torsions:
REMARK  status: ('A' for Active; 'I' for Inactive)
REMARK    1  A    between atoms: C13_16  and  O2_2 
REMARK    2  A    between atoms: C15_18  and  O2_2 
REMARK    3  A    between atoms: C1_4  and  C2_5 
REMARK    4  A    between atoms: C1_4  and  C3_6 
REMARK    5  A    between atoms: C3_6  and  C6_9 
REMARK    6  A    between atoms: C15_18  and  C16_19 
ROOT
HETATM    1  O1  UNK     1      16.328   8.519  33.073  1.00  0.00    -0.274 OA
HETATM    2  O3  UNK     1      15.527  10.557  33.669  1.00  0.00    -0.259 OA
HETATM    3  C2  UNK     1      17.849  10.185  34.046  1.00  0.00     0.024 A 
HETATM    4  C4  UNK     1      18.884   9.320  33.988  1.00  0.00    -0.037 A 
HETATM    5  C5  UNK     1      18.676   7.977  33.410  1.00  0.00     0.005 A 
HETATM    6  C7  UNK     1      17.402   7.622  32.974  1.00  0.00     0.092 A 
HETATM    7  C8  UNK     1      16.485   9.793  33.589  1.00  0.00     0.295 A 
HETATM    8  C9  UNK     1      20.268   9.635  34.499  1.00  0.00     0.050 C 
HETATM    9  C10 UNK     1      19.692   7.020  33.259  1.00  0.00     0.017 A 
HETATM   10  C11 UNK     1      17.120   6.373  32.416  1.00  0.00     0.075 A 
HETATM   11  C13 UNK     1      18.140   5.439  32.282  1.00  0.00     0.071 A 
HETATM   12  C14 UNK     1      19.428   5.764  32.701  1.00  0.00     0.038 A 
ENDROOT
BRANCH   3  13
HETATM   13  C1  UNK     1      17.939  11.603  34.551  1.00  0.00     0.045 C 
BRANCH  13  14
HETATM   14  C3  UNK     1      18.430  12.549  33.464  1.00  0.00     0.004 C 
BRANCH  14  15
HETATM   15  C6  UNK     1      18.499  13.985  33.987  1.00  0.00    -0.004 C 
HETATM   16  C12 UNK     1      19.164  14.912  32.982  1.00  0.00     0.005 C 
ENDBRANCH  14  15
ENDBRANCH  13  14
ENDBRANCH   3  13
BRANCH  11  17
HETATM   17  O2  UNK     1      17.886   4.218  31.741  1.00  0.00    -0.347 OA
BRANCH  17  18
HETATM   18  C15 UNK     1      18.698   3.814  30.639  1.00  0.00     0.202 C 
BRANCH  18  19
HETATM   19  C16 UNK     1      18.257   2.460  30.190  1.00  0.00    -0.011 C 
HETATM   20  C17 UNK     1      18.073   2.122  28.908  1.00  0.00     0.009 C 
ENDBRANCH  18  19
ENDBRANCH  17  18
ENDBRANCH  11  17
TORSDOF 6
ENDMDL
