MODEL 1
REMARK VINA RESULT:      -8.1      0.000      0.000
REMARK  4 active torsions:
REMARK  status: ('A' for Active; 'I' for Inactive)
REMARK    1  A    between atoms: C9_12  and  O1_1 
REMARK    2  A    between atoms: C12_15  and  O2_2 
REMARK    3  A    between atoms: C1_4  and  C3_6 
REMARK    4  A    between atoms: C2_5  and  C4_7 
ROOT
HETATM    1  N1  UNK     1      17.691   2.518  28.115  1.00  0.00    -0.191 NA
HETATM    2  C3  UNK     1      18.939   1.845  30.282  1.00  0.00     0.055 C 
HETATM    3  C4  UNK     1      19.077   2.755  31.280  1.00  0.00     0.034 C 
HETATM    4  C15 UNK     1      18.250   2.219  29.087  1.00  0.00     0.100 C 
ENDROOT
BRANCH   2   5
HETATM    5  C1  UNK     1      19.482   0.477  30.376  1.00  0.00    -0.015 A 
HETATM    6  C5  UNK     1      19.331  -0.233  31.554  1.00  0.00     0.015 A 
HETATM    7  C10 UNK     1      19.844  -1.527  31.641  1.00  0.00     0.037 A 
HETATM    8  C9  UNK     1      20.501  -2.092  30.548  1.00  0.00     0.068 A 
HETATM    9  C11 UNK     1      20.645  -1.362  29.367  1.00  0.00     0.037 A 
HETATM   10  C6  UNK     1      20.132  -0.068  29.281  1.00  0.00     0.015 A 
BRANCH   8  11
HETATM   11  O1  UNK     1      21.002  -3.354  30.634  1.00  0.00    -0.356 OA
HETATM   12  C16 UNK     1      21.236  -3.872  31.944  1.00  0.00     0.210 C 
ENDBRANCH   8  11
ENDBRANCH   2   5
BRANCH   3  13
HETATM   13  C2  UNK     1      18.589   4.126  31.287  1.00  0.00    -0.035 A 
HETATM   14  C7  UNK     1      19.055   5.038  30.340  1.00  0.00     0.014 A 
HETATM   15  C13 UNK     1      18.586   6.351  30.348  1.00  0.00     0.037 A 
HETATM   16  C12 UNK     1      17.651   6.754  31.301  1.00  0.00     0.068 A 
HETATM   17  C14 UNK     1      17.185   5.841  32.248  1.00  0.00     0.037 A 
HETATM   18  C8  UNK     1      17.654   4.527  32.241  1.00  0.00     0.014 A 
BRANCH  16  19
HETATM   19  O2  UNK     1      17.194   8.035  31.308  1.00  0.00    -0.356 OA
HETATM   20  C17 UNK     1      15.839   8.240  31.708  1.00  0.00     0.210 C 
ENDBRANCH  16  19
ENDBRANCH   3  13
TORSDOF 4
ENDMDL
MODEL 2
REMARK VINA RESULT:      -8.0      2.263      8.100
REMARK  4 active torsions:
REMARK  status: ('A' for Active; 'I' for Inactive)
REMARK    1  A    between atoms: C9_12  and  O1_1 
REMARK    2  A    between atoms: C12_15  and  O2_2 
REMARK    3  A    between atoms: C1_4  and  C3_6 
REMARK    4  A    between atoms: C2_5  and  C4_7 
ROOT
HETATM    1  N1  UNK     1      20.217   5.799  30.111  1.00  0.00    -0.191 NA
HETATM    2  C3  UNK     1      18.347   5.081  31.753  1.00  0.00     0.055 C 
HETATM    3  C4  UNK     1      17.888   3.804  31.720  1.00  0.00     0.034 C 
HETATM    4  C15 UNK     1      19.380   5.475  30.846  1.00  0.00     0.100 C 
ENDROOT
BRANCH   2   5
HETATM    5  C1  UNK     1      17.817   6.092  32.688  1.00  0.00    -0.015 A 
HETATM    6  C5  UNK     1      18.650   6.618  33.660  1.00  0.00     0.015 A 
HETATM    7  C10 UNK     1      18.148   7.574  34.543  1.00  0.00     0.037 A 
HETATM    8  C9  UNK     1      16.820   7.989  34.441  1.00  0.00     0.068 A 
HETATM    9  C11 UNK     1      15.994   7.448  33.455  1.00  0.00     0.037 A 
HETATM   10  C6  UNK     1      16.497   6.492  32.572  1.00  0.00     0.015 A 
BRANCH   8  11
HETATM   11  O1  UNK     1      16.331   8.922  35.303  1.00  0.00    -0.356 OA
HETATM   12  C16 UNK     1      15.266   9.747  34.830  1.00  0.00     0.210 C 
ENDBRANCH   8  11
ENDBRANCH   2   5
BRANCH   3  13
HETATM   13  C2  UNK     1      18.333   2.737  30.838  1.00  0.00    -0.035 A 
HETATM   14  C7  UNK     1      19.173   1.735  31.322  1.00  0.00     0.014 A 
HETATM   15  C13 UNK     1      19.598   0.711  30.476  1.00  0.00     0.037 A 
HETATM   16  C12 UNK     1      19.183   0.689  29.144  1.00  0.00     0.068 A 
HETATM   17  C14 UNK     1      18.341   1.691  28.660  1.00  0.00     0.037 A 
HETATM   18  C8  UNK     1      17.916   2.715  29.507  1.00  0.00     0.014 A 
BRANCH  16  19
HETATM   19  O2  UNK     1      19.597  -0.309  28.319  1.00  0.00    -0.356 OA
HETATM   20  C17 UNK     1      20.363  -1.362  28.905  1.00  0.00     0.210 C 
ENDBRANCH  16  19
ENDBRANCH   3  13
TORSDOF 4
ENDMDL
MODEL 3
REMARK VINA RESULT:      -7.6      2.013      3.149
REMARK  4 active torsions:
REMARK  status: ('A' for Active; 'I' for Inactive)
REMARK    1  A    between atoms: C9_12  and  O1_1 
REMARK    2  A    between atoms: C12_15  and  O2_2 
REMARK    3  A    between atoms: C1_4  and  C3_6 
REMARK    4  A    between atoms: C2_5  and  C4_7 
ROOT
HETATM    1  N1  UNK     1      19.567   6.128  29.740  1.00  0.00    -0.191 NA
HETATM    2  C3  UNK     1      18.595   4.086  31.005  1.00  0.00     0.055 C 
HETATM    3  C4  UNK     1      17.899   4.285  32.152  1.00  0.00     0.034 C 
HETATM    4  C15 UNK     1      19.131   5.215  30.308  1.00  0.00     0.100 C 
ENDROOT
BRANCH   2   5
HETATM    5  C1  UNK     1      18.833   2.743  30.443  1.00  0.00    -0.015 A 
HETATM    6  C5  UNK     1      18.426   2.468  29.150  1.00  0.00     0.015 A 
HETATM    7  C10 UNK     1      18.652   1.198  28.619  1.00  0.00     0.037 A 
HETATM    8  C9  UNK     1      19.282   0.221  29.391  1.00  0.00     0.068 A 
HETATM    9  C11 UNK     1      19.686   0.516  30.694  1.00  0.00     0.037 A 
HETATM   10  C6  UNK     1      19.459   1.786  31.224  1.00  0.00     0.015 A 
BRANCH   8  11
HETATM   11  O1  UNK     1      19.502  -1.018  28.873  1.00  0.00    -0.356 OA
HETATM   12  C16 UNK     1      20.325  -1.902  29.634  1.00  0.00     0.210 C 
ENDBRANCH   8  11
ENDBRANCH   2   5
BRANCH   3  13
HETATM   13  C2  UNK     1      17.615   5.560  32.794  1.00  0.00    -0.035 A 
HETATM   14  C7  UNK     1      18.483   6.064  33.761  1.00  0.00     0.014 A 
HETATM   15  C13 UNK     1      18.210   7.286  34.374  1.00  0.00     0.037 A 
HETATM   16  C12 UNK     1      17.069   8.005  34.021  1.00  0.00     0.068 A 
HETATM   17  C14 UNK     1      16.200   7.501  33.053  1.00  0.00     0.037 A 
HETATM   18  C8  UNK     1      16.473   6.278  32.439  1.00  0.00     0.014 A 
BRANCH  16  19
HETATM   19  O2  UNK     1      16.803   9.197  34.619  1.00  0.00    -0.356 OA
HETATM   20  C17 UNK     1      15.432   9.576  34.735  1.00  0.00     0.210 C 
ENDBRANCH  16  19
ENDBRANCH   3  13
TORSDOF 4
ENDMDL
MODEL 4
REMARK VINA RESULT:      -7.6      2.015      3.155
REMARK  4 active torsions:
REMARK  status: ('A' for Active; 'I' for Inactive)
REMARK    1  A    between atoms: C9_12  and  O1_1 
REMARK    2  A    between atoms: C12_15  and  O2_2 
REMARK    3  A    between atoms: C1_4  and  C3_6 
REMARK    4  A    between atoms: C2_5  and  C4_7 
ROOT
HETATM    1  N1  UNK     1      19.701   6.115  29.787  1.00  0.00    -0.191 NA
HETATM    2  C3  UNK     1      18.623   4.084  30.979  1.00  0.00     0.055 C 
HETATM    3  C4  UNK     1      17.884   4.285  32.099  1.00  0.00     0.034 C 
HETATM    4  C15 UNK     1      19.217   5.206  30.322  1.00  0.00     0.100 C 
ENDROOT
BRANCH   2   5
HETATM    5  C1  UNK     1      18.847   2.742  30.407  1.00  0.00    -0.015 A 
HETATM    6  C5  UNK     1      18.396   2.467  29.128  1.00  0.00     0.015 A 
HETATM    7  C10 UNK     1      18.609   1.199  28.588  1.00  0.00     0.037 A 
HETATM    8  C9  UNK     1      19.270   0.224  29.335  1.00  0.00     0.068 A 
HETATM    9  C11 UNK     1      19.719   0.519  30.623  1.00  0.00     0.037 A 
HETATM   10  C6  UNK     1      19.505   1.787  31.163  1.00  0.00     0.015 A 
BRANCH   8  11
HETATM   11  O1  UNK     1      19.478  -1.013  28.808  1.00  0.00    -0.356 OA
HETATM   12  C16 UNK     1      20.320  -1.899  29.545  1.00  0.00     0.210 C 
ENDBRANCH   8  11
ENDBRANCH   2   5
BRANCH   3  13
HETATM   13  C2  UNK     1      17.609   5.558  32.748  1.00  0.00    -0.035 A 
HETATM   14  C7  UNK     1      16.487   6.300  32.381  1.00  0.00     0.014 A 
HETATM   15  C13 UNK     1      16.223   7.520  33.005  1.00  0.00     0.037 A 
HETATM   16  C12 UNK     1      17.081   7.997  33.996  1.00  0.00     0.068 A 
HETATM   17  C14 UNK     1      18.204   7.254  34.362  1.00  0.00     0.037 A 
HETATM   18  C8  UNK     1      18.467   6.034  33.739  1.00  0.00     0.014 A 
BRANCH  16  19
HETATM   19  O2  UNK     1      16.824   9.186  34.603  1.00  0.00    -0.356 OA
HETATM   20  C17 UNK     1      15.455   9.570  34.729  1.00  0.00     0.210 C 
ENDBRANCH  16  19
ENDBRANCH   3  13
TORSDOF 4
ENDMDL
MODEL 5
REMARK VINA RESULT:      -7.3      3.734      9.632
REMARK  4 active torsions:
REMARK  status: ('A' for Active; 'I' for Inactive)
REMARK    1  A    between atoms: C9_12  and  O1_1 
REMARK    2  A    between atoms: C12_15  and  O2_2 
REMARK    3  A    between atoms: C1_4  and  C3_6 
REMARK    4  A    between atoms: C2_5  and  C4_7 
ROOT
HETATM    1  N1  UNK     1      14.619   6.920  31.529  1.00  0.00    -0.191 NA
HETATM    2  C3  UNK     1      16.685   7.968  32.688  1.00  0.00     0.055 C 
HETATM    3  C4  UNK     1      17.892   7.357  32.576  1.00  0.00     0.034 C 
HETATM    4  C15 UNK     1      15.546   7.388  32.047  1.00  0.00     0.100 C 
ENDROOT
BRANCH   2   5
HETATM    5  C1  UNK     1      16.494   9.214  33.455  1.00  0.00    -0.015 A 
HETATM    6  C5  UNK     1      15.235   9.528  33.933  1.00  0.00     0.015 A 
HETATM    7  C10 UNK     1      15.056  10.706  34.659  1.00  0.00     0.037 A 
HETATM    8  C9  UNK     1      16.140  11.552  34.896  1.00  0.00     0.068 A 
HETATM    9  C11 UNK     1      17.403  11.219  34.407  1.00  0.00     0.037 A 
HETATM   10  C6  UNK     1      17.582  10.041  33.680  1.00  0.00     0.015 A 
BRANCH   8  11
HETATM   11  O1  UNK     1      15.964  12.700  35.604  1.00  0.00    -0.356 OA
HETATM   12  C16 UNK     1      14.711  12.869  36.267  1.00  0.00     0.210 C 
ENDBRANCH   8  11
ENDBRANCH   2   5
BRANCH   3  13
HETATM   13  C2  UNK     1      18.187   6.129  31.854  1.00  0.00    -0.035 A 
HETATM   14  C7  UNK     1      18.783   6.185  30.595  1.00  0.00     0.014 A 
HETATM   15  C13 UNK     1      19.066   5.007  29.904  1.00  0.00     0.037 A 
HETATM   16  C12 UNK     1      18.753   3.772  30.472  1.00  0.00     0.068 A 
HETATM   17  C14 UNK     1      18.157   3.716  31.733  1.00  0.00     0.037 A 
HETATM   18  C8  UNK     1      17.874   4.895  32.424  1.00  0.00     0.014 A 
BRANCH  16  19
HETATM   19  O2  UNK     1      19.030   2.623  29.799  1.00  0.00    -0.356 OA
HETATM   20  C17 UNK     1      18.002   2.098  28.959  1.00  0.00     0.210 C 
ENDBRANCH  16  19
ENDBRANCH   3  13
TORSDOF 4
ENDMDL
MODEL 6
REMARK VINA RESULT:      -7.3      3.750      9.745
REMARK  4 active torsions:
REMARK  status: ('A' for Active; 'I' for Inactive)
REMARK    1  A    between atoms: C9_12  and  O1_1 
REMARK    2  A    between atoms: C12_15  and  O2_2 
REMARK    3  A    between atoms: C1_4  and  C3_6 
REMARK    4  A    between atoms: C2_5  and  C4_7 
ROOT
HETATM    1  N1  UNK     1      14.608   6.928  31.542  1.00  0.00    -0.191 NA
HETATM    2  C3  UNK     1      16.659   7.966  32.735  1.00  0.00     0.055 C 
HETATM    3  C4  UNK     1      17.867   7.356  32.633  1.00  0.00     0.034 C 
HETATM    4  C15 UNK     1      15.528   7.391  32.076  1.00  0.00     0.100 C 
ENDROOT
BRANCH   2   5
HETATM    5  C1  UNK     1      16.459   9.205  33.511  1.00  0.00    -0.015 A 
HETATM    6  C5  UNK     1      17.515  10.084  33.668  1.00  0.00     0.015 A 
HETATM    7  C10 UNK     1      17.324  11.255  34.402  1.00  0.00     0.037 A 
HETATM    8  C9  UNK     1      16.078  11.529  34.967  1.00  0.00     0.068 A 
HETATM    9  C11 UNK     1      15.023  10.632  34.798  1.00  0.00     0.037 A 
HETATM   10  C6  UNK     1      15.215   9.460  34.065  1.00  0.00     0.015 A 
BRANCH   8  11
HETATM   11  O1  UNK     1      15.892  12.672  35.682  1.00  0.00    -0.356 OA
HETATM   12  C16 UNK     1      16.321  13.893  35.078  1.00  0.00     0.210 C 
ENDBRANCH   8  11
ENDBRANCH   2   5
BRANCH   3  13
HETATM   13  C2  UNK     1      18.172   6.134  31.904  1.00  0.00    -0.035 A 
HETATM   14  C7  UNK     1      17.888   4.893  32.473  1.00  0.00     0.014 A 
HETATM   15  C13 UNK     1      18.179   3.722  31.772  1.00  0.00     0.037 A 
HETATM   16  C12 UNK     1      18.754   3.793  30.503  1.00  0.00     0.068 A 
HETATM   17  C14 UNK     1      19.037   5.035  29.935  1.00  0.00     0.037 A 
HETATM   18  C8  UNK     1      18.746   6.206  30.636  1.00  0.00     0.014 A 
BRANCH  16  19
HETATM   19  O2  UNK     1      19.038   2.651  29.821  1.00  0.00    -0.356 OA
HETATM   20  C17 UNK     1      18.033   2.154  28.938  1.00  0.00     0.210 C 
ENDBRANCH  16  19
ENDBRANCH   3  13
TORSDOF 4
ENDMDL
MODEL 7
REMARK VINA RESULT:      -7.2      2.536      3.909
REMARK  4 active torsions:
REMARK  status: ('A' for Active; 'I' for Inactive)
REMARK    1  A    between atoms: C9_12  and  O1_1 
REMARK    2  A    between atoms: C12_15  and  O2_2 
REMARK    3  A    between atoms: C1_4  and  C3_6 
REMARK    4  A    between atoms: C2_5  and  C4_7 
ROOT
HETATM    1  N1  UNK     1      18.332   3.573  34.528  1.00  0.00    -0.191 NA
HETATM    2  C3  UNK     1      18.150   4.086  31.996  1.00  0.00     0.055 C 
HETATM    3  C4  UNK     1      17.791   5.332  31.594  1.00  0.00     0.034 C 
HETATM    4  C15 UNK     1      18.250   3.805  33.394  1.00  0.00     0.100 C 
ENDROOT
BRANCH   2   5
HETATM    5  C1  UNK     1      18.436   2.996  31.043  1.00  0.00    -0.015 A 
HETATM    6  C5  UNK     1      18.129   3.168  29.706  1.00  0.00     0.015 A 
HETATM    7  C10 UNK     1      18.400   2.137  28.806  1.00  0.00     0.037 A 
HETATM    8  C9  UNK     1      18.975   0.950  29.258  1.00  0.00     0.068 A 
HETATM    9  C11 UNK     1      19.280   0.794  30.611  1.00  0.00     0.037 A 
HETATM   10  C6  UNK     1      19.007   1.824  31.510  1.00  0.00     0.015 A 
BRANCH   8  11
HETATM   11  O1  UNK     1      19.240  -0.055  28.380  1.00  0.00    -0.356 OA
HETATM   12  C16 UNK     1      20.344  -0.908  28.684  1.00  0.00     0.210 C 
ENDBRANCH   8  11
ENDBRANCH   2   5
BRANCH   3  13
HETATM   13  C2  UNK     1      17.481   6.471  32.445  1.00  0.00    -0.035 A 
HETATM   14  C7  UNK     1      16.159   6.741  32.795  1.00  0.00     0.014 A 
HETATM   15  C13 UNK     1      15.864   7.832  33.612  1.00  0.00     0.037 A 
HETATM   16  C12 UNK     1      16.890   8.653  34.079  1.00  0.00     0.068 A 
HETATM   17  C14 UNK     1      18.213   8.381  33.729  1.00  0.00     0.037 A 
HETATM   18  C8  UNK     1      18.509   7.290  32.912  1.00  0.00     0.014 A 
BRANCH  16  19
HETATM   19  O2  UNK     1      16.601   9.717  34.876  1.00  0.00    -0.356 OA
HETATM   20  C17 UNK     1      15.224  10.052  35.040  1.00  0.00     0.210 C 
ENDBRANCH  16  19
ENDBRANCH   3  13
TORSDOF 4
ENDMDL
MODEL 8
REMARK VINA RESULT:      -7.2      2.414      8.437
REMARK  4 active torsions:
REMARK  status: ('A' for Active; 'I' for Inactive)
REMARK    1  A    between atoms: C9_12  and  O1_1 
REMARK    2  A    between atoms: C12_15  and  O2_2 
REMARK    3  A    between atoms: C1_4  and  C3_6 
REMARK    4  A    between atoms: C2_5  and  C4_7 
ROOT
HETATM    1  N1  UNK     1      21.006   5.765  31.095  1.00  0.00    -0.191 NA
HETATM    2  C3  UNK     1      18.564   5.714  31.956  1.00  0.00     0.055 C 
HETATM    3  C4  UNK     1      17.856   4.559  31.878  1.00  0.00     0.034 C 
HETATM    4  C15 UNK     1      19.912   5.740  31.480  1.00  0.00     0.100 C 
ENDROOT
BRANCH   2   5
HETATM    5  C1  UNK     1      17.996   6.958  32.510  1.00  0.00    -0.015 A 
HETATM    6  C5  UNK     1      16.698   7.311  32.188  1.00  0.00     0.015 A 
HETATM    7  C10 UNK     1      16.161   8.488  32.712  1.00  0.00     0.037 A 
HETATM    8  C9  UNK     1      16.932   9.293  33.551  1.00  0.00     0.068 A 
HETATM    9  C11 UNK     1      18.240   8.921  33.865  1.00  0.00     0.037 A 
HETATM   10  C6  UNK     1      18.776   7.745  33.340  1.00  0.00     0.015 A 
BRANCH   8  11
HETATM   11  O1  UNK     1      16.408  10.440  34.062  1.00  0.00    -0.356 OA
HETATM   12  C16 UNK     1      17.293  11.553  34.198  1.00  0.00     0.210 C 
ENDBRANCH   8  11
ENDBRANCH   2   5
BRANCH   3  13
HETATM   13  C2  UNK     1      18.315   3.285  31.346  1.00  0.00    -0.035 A 
HETATM   14  C7  UNK     1      18.506   3.129  29.974  1.00  0.00     0.014 A 
HETATM   15  C13 UNK     1      18.947   1.908  29.466  1.00  0.00     0.037 A 
HETATM   16  C12 UNK     1      19.199   0.842  30.330  1.00  0.00     0.068 A 
HETATM   17  C14 UNK     1      19.008   0.999  31.703  1.00  0.00     0.037 A 
HETATM   18  C8  UNK     1      18.567   2.220  32.211  1.00  0.00     0.014 A 
BRANCH  16  19
HETATM   19  O2  UNK     1      19.629  -0.349  29.833  1.00  0.00    -0.356 OA
HETATM   20  C17 UNK     1      19.638  -0.497  28.414  1.00  0.00     0.210 C 
ENDBRANCH  16  19
ENDBRANCH   3  13
TORSDOF 4
ENDMDL
MODEL 9
REMARK VINA RESULT:      -7.1      3.663      5.983
REMARK  4 active torsions:
REMARK  status: ('A' for Active; 'I' for Inactive)
REMARK    1  A    between atoms: C9_12  and  O1_1 
REMARK    2  A    between atoms: C12_15  and  O2_2 
REMARK    3  A    between atoms: C1_4  and  C3_6 
REMARK    4  A    between atoms: C2_5  and  C4_7 
ROOT
HETATM    1  N1  UNK     1      16.435   8.110  30.731  1.00  0.00    -0.191 NA
HETATM    2  C3  UNK     1      17.640   6.911  32.686  1.00  0.00     0.055 C 
HETATM    3  C4  UNK     1      18.015   7.628  33.775  1.00  0.00     0.034 C 
HETATM    4  C15 UNK     1      16.975   7.575  31.608  1.00  0.00     0.100 C 
ENDROOT
BRANCH   2   5
HETATM    5  C1  UNK     1      17.897   5.464  32.560  1.00  0.00    -0.015 A 
HETATM    6  C5  UNK     1      18.086   4.915  31.305  1.00  0.00     0.015 A 
HETATM    7  C10 UNK     1      18.330   3.547  31.187  1.00  0.00     0.037 A 
HETATM    8  C9  UNK     1      18.381   2.747  32.329  1.00  0.00     0.068 A 
HETATM    9  C11 UNK     1      18.188   3.317  33.588  1.00  0.00     0.037 A 
HETATM   10  C6  UNK     1      17.944   4.685  33.704  1.00  0.00     0.015 A 
BRANCH   8  11
HETATM   11  O1  UNK     1      18.618   1.412  32.214  1.00  0.00    -0.356 OA
HETATM   12  C16 UNK     1      19.176   0.956  30.981  1.00  0.00     0.210 C 
ENDBRANCH   8  11
ENDBRANCH   2   5
BRANCH   3  13
HETATM   13  C2  UNK     1      17.818   9.052  33.996  1.00  0.00    -0.035 A 
HETATM   14  C7  UNK     1      16.558   9.537  34.345  1.00  0.00     0.014 A 
HETATM   15  C13 UNK     1      16.371  10.903  34.557  1.00  0.00     0.037 A 
HETATM   16  C12 UNK     1      17.444  11.784  34.420  1.00  0.00     0.068 A 
HETATM   17  C14 UNK     1      18.704  11.298  34.071  1.00  0.00     0.037 A 
HETATM   18  C8  UNK     1      18.891   9.932  33.859  1.00  0.00     0.014 A 
BRANCH  16  19
HETATM   19  O2  UNK     1      17.261  13.116  34.627  1.00  0.00    -0.356 OA
HETATM   20  C17 UNK     1      18.270  13.996  34.133  1.00  0.00     0.210 C 
ENDBRANCH  16  19
ENDBRANCH   3  13
TORSDOF 4
ENDMDL
MODEL 10
REMARK VINA RESULT:      -7.0      2.360      3.514
REMARK  4 active torsions:
REMARK  status: ('A' for Active; 'I' for Inactive)
REMARK    1  A    between atoms: C9_12  and  O1_1 
REMARK    2  A    between atoms: C12_15  and  O2_2 
REMARK    3  A    between atoms: C1_4  and  C3_6 
REMARK    4  A    between atoms: C2_5  and  C4_7 
ROOT
HETATM    1  N1  UNK     1      19.034   5.728  30.007  1.00  0.00    -0.191 NA
HETATM    2  C3  UNK     1      18.378   4.425  32.147  1.00  0.00     0.055 C 
HETATM    3  C4  UNK     1      17.933   5.109  33.232  1.00  0.00     0.034 C 
HETATM    4  C15 UNK     1      18.739   5.146  30.967  1.00  0.00     0.100 C 
ENDROOT
BRANCH   2   5
HETATM    5  C1  UNK     1      18.513   2.956  32.136  1.00  0.00    -0.015 A 
HETATM    6  C5  UNK     1      18.271   2.244  33.297  1.00  0.00     0.015 A 
HETATM    7  C10 UNK     1      18.398   0.855  33.285  1.00  0.00     0.037 A 
HETATM    8  C9  UNK     1      18.766   0.198  32.110  1.00  0.00     0.068 A 
HETATM    9  C11 UNK     1      19.006   0.932  30.948  1.00  0.00     0.037 A 
HETATM   10  C6  UNK     1      18.879   2.321  30.961  1.00  0.00     0.015 A 
BRANCH   8  11
HETATM   11  O1  UNK     1      18.890  -1.157  32.099  1.00  0.00    -0.356 OA
HETATM   12  C16 UNK     1      19.951  -1.705  31.315  1.00  0.00     0.210 C 
ENDBRANCH   8  11
ENDBRANCH   2   5
BRANCH   3  13
HETATM   13  C2  UNK     1      17.770   6.550  33.352  1.00  0.00    -0.035 A 
HETATM   14  C7  UNK     1      16.563   7.148  32.994  1.00  0.00     0.014 A 
HETATM   15  C13 UNK     1      16.408   8.530  33.110  1.00  0.00     0.037 A 
HETATM   16  C12 UNK     1      17.460   9.313  33.584  1.00  0.00     0.068 A 
HETATM   17  C14 UNK     1      18.668   8.713  33.943  1.00  0.00     0.037 A 
HETATM   18  C8  UNK     1      18.823   7.331  33.826  1.00  0.00     0.014 A 
BRANCH  16  19
HETATM   19  O2  UNK     1      17.309  10.659  33.697  1.00  0.00    -0.356 OA
HETATM   20  C17 UNK     1      18.471  11.419  34.025  1.00  0.00     0.210 C 
ENDBRANCH  16  19
ENDBRANCH   3  13
TORSDOF 4
ENDMDL
