MODEL 1
REMARK VINA RESULT:      -7.9      0.000      0.000
REMARK  3 active torsions:
REMARK  status: ('A' for Active; 'I' for Inactive)
REMARK    1  A    between atoms: C1_4  and  C3_6 
REMARK    2  A    between atoms: C2_5  and  C4_7 
REMARK    3  A    between atoms: C3_6  and  C5_8 
ROOT
HETATM    1  O1  UNK     1      17.974   2.766  28.232  1.00  0.00    -0.288 OA
HETATM    2  C3  UNK     1      18.369   2.502  29.362  1.00  0.00     0.182 C 
ENDROOT
BRANCH   2   3
HETATM    3  C1  UNK     1      18.557   3.595  30.347  1.00  0.00     0.014 A 
HETATM    4  C6  UNK     1      18.079   3.427  31.631  1.00  0.00     0.017 A 
HETATM    5  C10 UNK     1      18.257   4.455  32.558  1.00  0.00     0.019 A 
HETATM    6  C14 UNK     1      18.906   5.630  32.181  1.00  0.00     0.006 A 
HETATM    7  C11 UNK     1      19.381   5.777  30.878  1.00  0.00     0.019 A 
HETATM    8  I1  UNK     1      19.170   7.160  33.560  1.00  0.00    -0.045 I 
HETATM    9  C7  UNK     1      19.204   4.749  29.951  1.00  0.00     0.017 A 
ENDBRANCH   2   3
BRANCH   2  10
HETATM   10  C5  UNK     1      18.647   1.109  29.813  1.00  0.00     0.056 C 
HETATM   11  C4  UNK     1      19.907   0.749  30.041  1.00  0.00     0.015 C 
BRANCH  11  12
HETATM   12  C2  UNK     1      20.278  -0.594  30.461  1.00  0.00    -0.036 A 
HETATM   13  C8  UNK     1      20.558  -1.570  29.507  1.00  0.00     0.014 A 
HETATM   14  C12 UNK     1      20.913  -2.858  29.910  1.00  0.00     0.043 A 
HETATM   15  C15 UNK     1      20.988  -3.168  31.268  1.00  0.00     0.116 A 
HETATM   16  C13 UNK     1      20.708  -2.190  32.223  1.00  0.00     0.043 A 
HETATM   17  F1  UNK     1      21.327  -4.403  31.655  1.00  0.00    -0.206 F 
HETATM   18  C9  UNK     1      20.352  -0.902  31.819  1.00  0.00     0.014 A 
ENDBRANCH  11  12
ENDBRANCH   2  10
TORSDOF 3
ENDMDL
MODEL 2
REMARK VINA RESULT:      -7.9      0.049      1.611
REMARK  3 active torsions:
REMARK  status: ('A' for Active; 'I' for Inactive)
REMARK    1  A    between atoms: C1_4  and  C3_6 
REMARK    2  A    between atoms: C2_5  and  C4_7 
REMARK    3  A    between atoms: C3_6  and  C5_8 
ROOT
HETATM    1  O1  UNK     1      17.927   2.778  28.224  1.00  0.00    -0.288 OA
HETATM    2  C3  UNK     1      18.336   2.519  29.350  1.00  0.00     0.182 C 
ENDROOT
BRANCH   2   3
HETATM    3  C1  UNK     1      18.533   3.614  30.330  1.00  0.00     0.014 A 
HETATM    4  C6  UNK     1      19.187   4.761  29.928  1.00  0.00     0.017 A 
HETATM    5  C10 UNK     1      19.373   5.792  30.850  1.00  0.00     0.019 A 
HETATM    6  C14 UNK     1      18.903   5.653  32.155  1.00  0.00     0.006 A 
HETATM    7  C11 UNK     1      18.245   4.485  32.539  1.00  0.00     0.019 A 
HETATM    8  I1  UNK     1      19.180   7.187  33.528  1.00  0.00    -0.045 I 
HETATM    9  C7  UNK     1      18.059   3.455  31.617  1.00  0.00     0.017 A 
ENDBRANCH   2   3
BRANCH   2  10
HETATM   10  C5  UNK     1      18.621   1.127  29.801  1.00  0.00     0.056 C 
HETATM   11  C4  UNK     1      19.884   0.769  30.012  1.00  0.00     0.015 C 
BRANCH  11  12
HETATM   12  C2  UNK     1      20.262  -0.573  30.431  1.00  0.00    -0.036 A 
HETATM   13  C8  UNK     1      20.285  -0.900  31.786  1.00  0.00     0.014 A 
HETATM   14  C12 UNK     1      20.647  -2.187  32.186  1.00  0.00     0.043 A 
HETATM   15  C15 UNK     1      20.987  -3.145  31.231  1.00  0.00     0.116 A 
HETATM   16  C13 UNK     1      20.964  -2.817  29.875  1.00  0.00     0.043 A 
HETATM   17  F1  UNK     1      21.337  -4.379  31.616  1.00  0.00    -0.206 F 
HETATM   18  C9  UNK     1      20.601  -1.530  29.475  1.00  0.00     0.014 A 
ENDBRANCH  11  12
ENDBRANCH   2  10
TORSDOF 3
ENDMDL
MODEL 3
REMARK VINA RESULT:      -7.5      4.263      7.474
REMARK  3 active torsions:
REMARK  status: ('A' for Active; 'I' for Inactive)
REMARK    1  A    between atoms: C1_4  and  C3_6 
REMARK    2  A    between atoms: C2_5  and  C4_7 
REMARK    3  A    between atoms: C3_6  and  C5_8 
ROOT
HETATM    1  O1  UNK     1      18.256   2.753  28.432  1.00  0.00    -0.288 OA
HETATM    2  C3  UNK     1      18.507   2.608  29.623  1.00  0.00     0.182 C 
ENDROOT
BRANCH   2   3
HETATM    3  C1  UNK     1      19.051   1.316  30.106  1.00  0.00     0.014 A 
HETATM    4  C6  UNK     1      19.747   0.512  29.226  1.00  0.00     0.017 A 
HETATM    5  C10 UNK     1      20.259  -0.704  29.681  1.00  0.00     0.019 A 
HETATM    6  C14 UNK     1      20.063  -1.091  31.006  1.00  0.00     0.006 A 
HETATM    7  C11 UNK     1      19.358  -0.261  31.878  1.00  0.00     0.019 A 
HETATM    8  I1  UNK     1      20.825  -2.900  31.683  1.00  0.00    -0.045 I 
HETATM    9  C7  UNK     1      18.846   0.954  31.423  1.00  0.00     0.017 A 
ENDBRANCH   2   3
BRANCH   2  10
HETATM   10  C5  UNK     1      18.317   3.696  30.624  1.00  0.00     0.056 C 
HETATM   11  C4  UNK     1      19.161   4.724  30.620  1.00  0.00     0.015 C 
BRANCH  11  12
HETATM   12  C2  UNK     1      19.069   5.820  31.573  1.00  0.00    -0.036 A 
HETATM   13  C8  UNK     1      17.903   6.579  31.654  1.00  0.00     0.014 A 
HETATM   14  C12 UNK     1      17.816   7.630  32.568  1.00  0.00     0.043 A 
HETATM   15  C15 UNK     1      18.897   7.922  33.399  1.00  0.00     0.116 A 
HETATM   16  C13 UNK     1      20.065   7.163  33.317  1.00  0.00     0.043 A 
HETATM   17  F1  UNK     1      18.815   8.932  34.274  1.00  0.00    -0.206 F 
HETATM   18  C9  UNK     1      20.151   6.112  32.404  1.00  0.00     0.014 A 
ENDBRANCH  11  12
ENDBRANCH   2  10
TORSDOF 3
ENDMDL
MODEL 4
REMARK VINA RESULT:      -7.3      3.314      4.697
REMARK  3 active torsions:
REMARK  status: ('A' for Active; 'I' for Inactive)
REMARK    1  A    between atoms: C1_4  and  C3_6 
REMARK    2  A    between atoms: C2_5  and  C4_7 
REMARK    3  A    between atoms: C3_6  and  C5_8 
ROOT
HETATM    1  O1  UNK     1      18.867   4.892  34.087  1.00  0.00    -0.288 OA
HETATM    2  C3  UNK     1      18.128   5.134  33.139  1.00  0.00     0.182 C 
ENDROOT
BRANCH   2   3
HETATM    3  C1  UNK     1      17.222   6.307  33.195  1.00  0.00     0.014 A 
HETATM    4  C6  UNK     1      16.528   6.671  32.059  1.00  0.00     0.017 A 
HETATM    5  C10 UNK     1      15.676   7.775  32.111  1.00  0.00     0.019 A 
HETATM    6  C14 UNK     1      15.537   8.493  33.298  1.00  0.00     0.006 A 
HETATM    7  C11 UNK     1      16.248   8.106  34.435  1.00  0.00     0.019 A 
HETATM    8  I1  UNK     1      14.269  10.136  33.377  1.00  0.00    -0.045 I 
HETATM    9  C7  UNK     1      17.100   7.003  34.382  1.00  0.00     0.017 A 
ENDBRANCH   2   3
BRANCH   2  10
HETATM   10  C5  UNK     1      18.115   4.309  31.898  1.00  0.00     0.056 C 
HETATM   11  C4  UNK     1      18.602   3.073  31.945  1.00  0.00     0.015 C 
BRANCH  11  12
HETATM   12  C2  UNK     1      18.654   2.202  30.781  1.00  0.00    -0.036 A 
HETATM   13  C8  UNK     1      17.941   2.533  29.630  1.00  0.00     0.014 A 
HETATM   14  C12 UNK     1      17.990   1.697  28.514  1.00  0.00     0.043 A 
HETATM   15  C15 UNK     1      18.754   0.531  28.549  1.00  0.00     0.116 A 
HETATM   16  C13 UNK     1      19.468   0.200  29.701  1.00  0.00     0.043 A 
HETATM   17  F1  UNK     1      18.800  -0.272  27.479  1.00  0.00    -0.206 F 
HETATM   18  C9  UNK     1      19.418   1.036  30.818  1.00  0.00     0.014 A 
ENDBRANCH  11  12
ENDBRANCH   2  10
TORSDOF 3
ENDMDL
MODEL 5
REMARK VINA RESULT:      -6.9      5.531      8.511
REMARK  3 active torsions:
REMARK  status: ('A' for Active; 'I' for Inactive)
REMARK    1  A    between atoms: C1_4  and  C3_6 
REMARK    2  A    between atoms: C2_5  and  C4_7 
REMARK    3  A    between atoms: C3_6  and  C5_8 
ROOT
HETATM    1  O1  UNK     1      17.728   2.717  31.800  1.00  0.00    -0.288 OA
HETATM    2  C3  UNK     1      18.105   3.010  32.928  1.00  0.00     0.182 C 
ENDROOT
BRANCH   2   3
HETATM    3  C1  UNK     1      18.130   1.972  33.987  1.00  0.00     0.014 A 
HETATM    4  C6  UNK     1      18.023   0.644  33.624  1.00  0.00     0.017 A 
HETATM    5  C10 UNK     1      18.046  -0.333  34.620  1.00  0.00     0.019 A 
HETATM    6  C14 UNK     1      18.173   0.038  35.958  1.00  0.00     0.006 A 
HETATM    7  C11 UNK     1      18.279   1.386  36.301  1.00  0.00     0.019 A 
HETATM    8  I1  UNK     1      18.207  -1.415  37.441  1.00  0.00    -0.045 I 
HETATM    9  C7  UNK     1      18.256   2.363  35.305  1.00  0.00     0.017 A 
ENDBRANCH   2   3
BRANCH   2  10
HETATM   10  C5  UNK     1      18.577   4.377  33.289  1.00  0.00     0.056 C 
HETATM   11  C4  UNK     1      17.733   5.398  33.170  1.00  0.00     0.015 C 
BRANCH  11  12
HETATM   12  C2  UNK     1      18.110   6.770  33.476  1.00  0.00    -0.036 A 
HETATM   13  C8  UNK     1      17.211   7.809  33.243  1.00  0.00     0.014 A 
HETATM   14  C12 UNK     1      17.573   9.124  33.536  1.00  0.00     0.043 A 
HETATM   15  C15 UNK     1      18.835   9.399  34.062  1.00  0.00     0.116 A 
HETATM   16  C13 UNK     1      19.736   8.359  34.295  1.00  0.00     0.043 A 
HETATM   17  F1  UNK     1      19.184  10.661  34.342  1.00  0.00    -0.206 F 
HETATM   18  C9  UNK     1      19.373   7.044  34.002  1.00  0.00     0.014 A 
ENDBRANCH  11  12
ENDBRANCH   2  10
TORSDOF 3
ENDMDL
MODEL 6
REMARK VINA RESULT:      -6.9      4.336      5.181
REMARK  3 active torsions:
REMARK  status: ('A' for Active; 'I' for Inactive)
REMARK    1  A    between atoms: C1_4  and  C3_6 
REMARK    2  A    between atoms: C2_5  and  C4_7 
REMARK    3  A    between atoms: C3_6  and  C5_8 
ROOT
HETATM    1  O1  UNK     1      18.026   3.810  31.955  1.00  0.00    -0.288 OA
HETATM    2  C3  UNK     1      18.195   4.238  33.091  1.00  0.00     0.182 C 
ENDROOT
BRANCH   2   3
HETATM    3  C1  UNK     1      18.294   5.700  33.319  1.00  0.00     0.014 A 
HETATM    4  C6  UNK     1      19.527   6.249  33.613  1.00  0.00     0.017 A 
HETATM    5  C10 UNK     1      19.620   7.624  33.827  1.00  0.00     0.019 A 
HETATM    6  C14 UNK     1      18.479   8.422  33.745  1.00  0.00     0.006 A 
HETATM    7  C11 UNK     1      17.245   7.845  33.447  1.00  0.00     0.019 A 
HETATM    8  I1  UNK     1      18.618  10.469  34.064  1.00  0.00    -0.045 I 
HETATM    9  C7  UNK     1      17.152   6.470  33.232  1.00  0.00     0.017 A 
ENDBRANCH   2   3
BRANCH   2  10
HETATM   10  C5  UNK     1      18.279   3.345  34.283  1.00  0.00     0.056 C 
HETATM   11  C4  UNK     1      18.045   2.046  34.126  1.00  0.00     0.015 C 
BRANCH  11  12
HETATM   12  C2  UNK     1      18.080   1.101  35.233  1.00  0.00    -0.036 A 
HETATM   13  C8  UNK     1      18.518  -0.205  35.022  1.00  0.00     0.014 A 
HETATM   14  C12 UNK     1      18.551  -1.110  36.084  1.00  0.00     0.043 A 
HETATM   15  C15 UNK     1      18.146  -0.707  37.356  1.00  0.00     0.116 A 
HETATM   16  C13 UNK     1      17.707   0.600  37.567  1.00  0.00     0.043 A 
HETATM   17  F1  UNK     1      18.175  -1.575  38.375  1.00  0.00    -0.206 F 
HETATM   18  C9  UNK     1      17.674   1.505  36.505  1.00  0.00     0.014 A 
ENDBRANCH  11  12
ENDBRANCH   2  10
TORSDOF 3
ENDMDL
MODEL 7
REMARK VINA RESULT:      -6.8      5.838      8.751
REMARK  3 active torsions:
REMARK  status: ('A' for Active; 'I' for Inactive)
REMARK    1  A    between atoms: C1_4  and  C3_6 
REMARK    2  A    between atoms: C2_5  and  C4_7 
REMARK    3  A    between atoms: C3_6  and  C5_8 
ROOT
HETATM    1  O1  UNK     1      19.210  -1.995  36.444  1.00  0.00    -0.288 OA
HETATM    2  C3  UNK     1      19.848  -2.789  35.763  1.00  0.00     0.182 C 
ENDROOT
BRANCH   2   3
HETATM    3  C1  UNK     1      20.215  -4.111  36.327  1.00  0.00     0.014 A 
HETATM    4  C6  UNK     1      20.906  -4.160  37.522  1.00  0.00     0.017 A 
HETATM    5  C10 UNK     1      21.251  -5.403  38.052  1.00  0.00     0.019 A 
HETATM    6  C14 UNK     1      20.901  -6.572  37.377  1.00  0.00     0.006 A 
HETATM    7  C11 UNK     1      20.203  -6.498  36.171  1.00  0.00     0.019 A 
HETATM    8  I1  UNK     1      21.415  -8.423  38.166  1.00  0.00    -0.045 I 
HETATM    9  C7  UNK     1      19.858  -5.254  35.641  1.00  0.00     0.017 A 
ENDBRANCH   2   3
BRANCH   2  10
HETATM   10  C5  UNK     1      20.257  -2.499  34.359  1.00  0.00     0.056 C 
HETATM   11  C4  UNK     1      19.425  -1.817  33.578  1.00  0.00     0.015 C 
BRANCH  11  12
HETATM   12  C2  UNK     1      19.726  -1.506  32.189  1.00  0.00    -0.036 A 
HETATM   13  C8  UNK     1      19.405  -0.254  31.668  1.00  0.00     0.014 A 
HETATM   14  C12 UNK     1      19.693   0.043  30.336  1.00  0.00     0.043 A 
HETATM   15  C15 UNK     1      20.304  -0.914  29.525  1.00  0.00     0.116 A 
HETATM   16  C13 UNK     1      20.625  -2.168  30.046  1.00  0.00     0.043 A 
HETATM   17  F1  UNK     1      20.579  -0.630  28.246  1.00  0.00    -0.206 F 
HETATM   18  C9  UNK     1      20.336  -2.464  31.379  1.00  0.00     0.014 A 
ENDBRANCH  11  12
ENDBRANCH   2  10
TORSDOF 3
ENDMDL
MODEL 8
REMARK VINA RESULT:      -6.8      6.182      8.000
REMARK  3 active torsions:
REMARK  status: ('A' for Active; 'I' for Inactive)
REMARK    1  A    between atoms: C1_4  and  C3_6 
REMARK    2  A    between atoms: C2_5  and  C4_7 
REMARK    3  A    between atoms: C3_6  and  C5_8 
ROOT
HETATM    1  O1  UNK     1      14.010   7.122  32.056  1.00  0.00    -0.288 OA
HETATM    2  C3  UNK     1      14.898   7.902  32.377  1.00  0.00     0.182 C 
ENDROOT
BRANCH   2   3
HETATM    3  C1  UNK     1      14.585   9.045  33.269  1.00  0.00     0.014 A 
HETATM    4  C6  UNK     1      13.694  10.007  32.836  1.00  0.00     0.017 A 
HETATM    5  C10 UNK     1      13.399  11.082  33.675  1.00  0.00     0.019 A 
HETATM    6  C14 UNK     1      14.002  11.174  34.929  1.00  0.00     0.006 A 
HETATM    7  C11 UNK     1      14.898  10.190  35.346  1.00  0.00     0.019 A 
HETATM    8  I1  UNK     1      13.563  12.774  36.179  1.00  0.00    -0.045 I 
HETATM    9  C7  UNK     1      15.193   9.115  34.507  1.00  0.00     0.017 A 
ENDBRANCH   2   3
BRANCH   2  10
HETATM   10  C5  UNK     1      16.312   7.741  31.932  1.00  0.00     0.056 C 
HETATM   11  C4  UNK     1      16.989   6.667  32.329  1.00  0.00     0.015 C 
BRANCH  11  12
HETATM   12  C2  UNK     1      18.379   6.435  31.965  1.00  0.00    -0.036 A 
HETATM   13  C8  UNK     1      18.709   6.093  30.654  1.00  0.00     0.014 A 
HETATM   14  C12 UNK     1      20.042   5.871  30.307  1.00  0.00     0.043 A 
HETATM   15  C15 UNK     1      21.044   5.991  31.270  1.00  0.00     0.116 A 
HETATM   16  C13 UNK     1      20.713   6.332  32.581  1.00  0.00     0.043 A 
HETATM   17  F1  UNK     1      22.322   5.775  30.937  1.00  0.00    -0.206 F 
HETATM   18  C9  UNK     1      19.380   6.555  32.929  1.00  0.00     0.014 A 
ENDBRANCH  11  12
ENDBRANCH   2  10
TORSDOF 3
ENDMDL
MODEL 9
REMARK VINA RESULT:      -6.8      6.252      8.391
REMARK  3 active torsions:
REMARK  status: ('A' for Active; 'I' for Inactive)
REMARK    1  A    between atoms: C1_4  and  C3_6 
REMARK    2  A    between atoms: C2_5  and  C4_7 
REMARK    3  A    between atoms: C3_6  and  C5_8 
ROOT
HETATM    1  O1  UNK     1      18.321  -1.507  36.554  1.00  0.00    -0.288 OA
HETATM    2  C3  UNK     1      19.234  -2.140  36.036  1.00  0.00     0.182 C 
ENDROOT
BRANCH   2   3
HETATM    3  C1  UNK     1      19.515  -1.973  34.590  1.00  0.00     0.014 A 
HETATM    4  C6  UNK     1      18.721  -1.122  33.848  1.00  0.00     0.017 A 
HETATM    5  C10 UNK     1      18.985  -0.965  32.487  1.00  0.00     0.019 A 
HETATM    6  C14 UNK     1      20.036  -1.664  31.895  1.00  0.00     0.006 A 
HETATM    7  C11 UNK     1      20.826  -2.519  32.665  1.00  0.00     0.019 A 
HETATM    8  I1  UNK     1      20.430  -1.431  29.870  1.00  0.00    -0.045 I 
HETATM    9  C7  UNK     1      20.561  -2.676  34.026  1.00  0.00     0.017 A 
ENDBRANCH   2   3
BRANCH   2  10
HETATM   10  C5  UNK     1      20.111  -3.065  36.809  1.00  0.00     0.056 C 
HETATM   11  C4  UNK     1      19.657  -4.278  37.109  1.00  0.00     0.015 C 
BRANCH  11  12
HETATM   12  C2  UNK     1      20.430  -5.240  37.879  1.00  0.00    -0.036 A 
HETATM   13  C8  UNK     1      19.788  -6.293  38.528  1.00  0.00     0.014 A 
HETATM   14  C12 UNK     1      20.531  -7.215  39.266  1.00  0.00     0.043 A 
HETATM   15  C15 UNK     1      21.916  -7.083  39.354  1.00  0.00     0.116 A 
HETATM   16  C13 UNK     1      22.559  -6.029  38.705  1.00  0.00     0.043 A 
HETATM   17  F1  UNK     1      22.629  -7.967  40.064  1.00  0.00    -0.206 F 
HETATM   18  C9  UNK     1      21.816  -5.107  37.967  1.00  0.00     0.014 A 
ENDBRANCH  11  12
ENDBRANCH   2  10
TORSDOF 3
ENDMDL
MODEL 10
REMARK VINA RESULT:      -6.8     22.648     24.366
REMARK  3 active torsions:
REMARK  status: ('A' for Active; 'I' for Inactive)
REMARK    1  A    between atoms: C1_4  and  C3_6 
REMARK    2  A    between atoms: C2_5  and  C4_7 
REMARK    3  A    between atoms: C3_6  and  C5_8 
ROOT
HETATM    1  O1  UNK     1      15.068   4.870  10.060  1.00  0.00    -0.288 OA
HETATM    2  C3  UNK     1      14.556   5.947   9.777  1.00  0.00     0.182 C 
ENDROOT
BRANCH   2   3
HETATM    3  C1  UNK     1      15.385   7.176   9.776  1.00  0.00     0.014 A 
HETATM    4  C6  UNK     1      16.738   7.072  10.033  1.00  0.00     0.017 A 
HETATM    5  C10 UNK     1      17.518   8.228  10.032  1.00  0.00     0.019 A 
HETATM    6  C14 UNK     1      16.929   9.466   9.776  1.00  0.00     0.006 A 
HETATM    7  C11 UNK     1      15.561   9.548   9.519  1.00  0.00     0.019 A 
HETATM    8  I1  UNK     1      18.090  11.188   9.775  1.00  0.00    -0.045 I 
HETATM    9  C7  UNK     1      14.781   8.391   9.520  1.00  0.00     0.017 A 
ENDBRANCH   2   3
BRANCH   2  10
HETATM   10  C5  UNK     1      13.121   6.080   9.397  1.00  0.00     0.056 C 
HETATM   11  C4  UNK     1      12.803   6.133   8.107  1.00  0.00     0.015 C 
BRANCH  11  12
HETATM   12  C2  UNK     1      11.433   6.286   7.641  1.00  0.00    -0.036 A 
HETATM   13  C8  UNK     1      11.134   6.126   6.289  1.00  0.00     0.014 A 
HETATM   14  C12 UNK     1       9.820   6.274   5.842  1.00  0.00     0.043 A 
HETATM   15  C15 UNK     1       8.806   6.581   6.749  1.00  0.00     0.116 A 
HETATM   16  C13 UNK     1       9.105   6.742   8.102  1.00  0.00     0.043 A 
HETATM   17  F1  UNK     1       7.546   6.724   6.320  1.00  0.00    -0.206 F 
HETATM   18  C9  UNK     1      10.419   6.594   8.548  1.00  0.00     0.014 A 
ENDBRANCH  11  12
ENDBRANCH   2  10
TORSDOF 3
ENDMDL
