MODEL 1
REMARK VINA RESULT:     -10.3      0.000      0.000
REMARK  3 active torsions:
REMARK  status: ('A' for Active; 'I' for Inactive)
REMARK    1  A    between atoms: C5_9  and  N1_3 
REMARK    2  A    between atoms: C6_10  and  N2_4 
REMARK    3  A    between atoms: C5_9  and  C7_11 
ROOT
HETATM    1  N1  UNK     1      18.071   5.026  32.148  1.00  0.00     0.095 N 
HETATM    2  N2  UNK     1      18.871   2.563  30.944  1.00  0.00    -0.377 N 
HETATM    3  C1  UNK     1      18.198   3.809  32.959  1.00  0.00     0.292 C 
HETATM    4  C2  UNK     1      19.069   5.017  31.072  1.00  0.00     0.292 C 
HETATM    5  C3  UNK     1      17.980   2.555  32.108  1.00  0.00     0.153 C 
HETATM    6  C4  UNK     1      18.880   3.804  30.158  1.00  0.00     0.153 C 
ENDROOT
BRANCH   1   7
HETATM    7  C5  UNK     1      18.228   6.217  32.982  1.00  0.00     0.312 C 
BRANCH   7   8
HETATM    8  C7  UNK     1      17.024   7.113  32.905  1.00  0.00    -0.011 A 
HETATM    9  C11 UNK     1      15.890   6.600  32.406  1.00  0.00     0.092 A 
HETATM   10  C20 UNK     1      14.644   7.375  32.282  1.00  0.00     0.288 A 
HETATM   11  O1  UNK     1      14.684   8.692  32.713  1.00  0.00    -0.275 OA
HETATM   12  O2  UNK     1      13.626   6.872  31.820  1.00  0.00    -0.260 OA
HETATM   13  C12 UNK     1      15.861   9.258  33.242  1.00  0.00     0.091 A 
HETATM   14  C8  UNK     1      17.034   8.512  33.353  1.00  0.00     0.012 A 
HETATM   15  C18 UNK     1      15.785  10.594  33.643  1.00  0.00     0.045 A 
HETATM   16  C13 UNK     1      18.162   9.149  33.889  1.00  0.00    -0.048 A 
HETATM   17  C19 UNK     1      18.102  10.486  34.296  1.00  0.00     0.014 A 
HETATM   18  C22 UNK     1      19.497   8.503  34.077  1.00  0.00     0.049 C 
HETATM   19  C21 UNK     1      16.915  11.208  34.173  1.00  0.00    -0.059 A 
HETATM   20  C24 UNK     1      16.857  12.633  34.608  1.00  0.00     0.048 C 
ENDBRANCH   7   8
ENDBRANCH   1   7
BRANCH   2  21
HETATM   21  C6  UNK     1      19.159   1.364  30.281  1.00  0.00     0.036 A 
HETATM   22  C10 UNK     1      19.921   0.394  30.931  1.00  0.00     0.036 A 
HETATM   23  C14 UNK     1      20.217  -0.807  30.286  1.00  0.00    -0.060 A 
HETATM   24  C17 UNK     1      19.751  -1.037  28.992  1.00  0.00     0.007 A 
HETATM   25  C23 UNK     1      21.031  -1.847  30.980  1.00  0.00     0.048 C 
HETATM   26  C15 UNK     1      18.990  -0.066  28.342  1.00  0.00     0.009 A 
HETATM   27  C9  UNK     1      18.693   1.134  28.986  1.00  0.00    -0.035 A 
HETATM   28  C16 UNK     1      17.876   2.157  28.267  1.00  0.00     0.050 C 
ENDBRANCH   2  21
TORSDOF 3
ENDMDL
MODEL 2
REMARK VINA RESULT:      -9.6     20.489     23.411
REMARK  3 active torsions:
REMARK  status: ('A' for Active; 'I' for Inactive)
REMARK    1  A    between atoms: C5_9  and  N1_3 
REMARK    2  A    between atoms: C6_10  and  N2_4 
REMARK    3  A    between atoms: C5_9  and  C7_11 
ROOT
HETATM    1  N1  UNK     1       6.927   5.460  11.306  1.00  0.00     0.095 N 
HETATM    2  N2  UNK     1       8.810   5.781   9.182  1.00  0.00    -0.377 N 
HETATM    3  C1  UNK     1       6.837   6.612  10.400  1.00  0.00     0.292 C 
HETATM    4  C2  UNK     1       7.430   4.289  10.576  1.00  0.00     0.292 C 
HETATM    5  C3  UNK     1       8.208   6.959   9.813  1.00  0.00     0.153 C 
HETATM    6  C4  UNK     1       8.820   4.559   9.995  1.00  0.00     0.153 C 
ENDROOT
BRANCH   1   7
HETATM    7  C5  UNK     1       5.623   5.172  11.901  1.00  0.00     0.312 C 
BRANCH   7   8
HETATM    8  C7  UNK     1       5.618   5.432  13.381  1.00  0.00    -0.011 A 
HETATM    9  C11 UNK     1       5.730   6.701  13.796  1.00  0.00     0.092 A 
HETATM   10  C20 UNK     1       5.734   7.084  15.218  1.00  0.00     0.288 A 
HETATM   11  O1  UNK     1       5.613   6.056  16.140  1.00  0.00    -0.275 OA
HETATM   12  O2  UNK     1       5.839   8.256  15.560  1.00  0.00    -0.260 OA
HETATM   13  C12 UNK     1       5.494   4.712  15.734  1.00  0.00     0.091 A 
HETATM   14  C8  UNK     1       5.492   4.364  14.383  1.00  0.00     0.012 A 
HETATM   15  C18 UNK     1       5.380   3.760  16.749  1.00  0.00     0.045 A 
HETATM   16  C13 UNK     1       5.370   3.006  14.060  1.00  0.00    -0.048 A 
HETATM   17  C19 UNK     1       5.255   2.040  15.067  1.00  0.00     0.014 A 
HETATM   18  C22 UNK     1       5.353   2.457  12.670  1.00  0.00     0.049 C 
HETATM   19  C21 UNK     1       5.259   2.417  16.409  1.00  0.00    -0.059 A 
HETATM   20  C24 UNK     1       5.137   1.384  17.477  1.00  0.00     0.048 C 
ENDBRANCH   7   8
ENDBRANCH   1   7
BRANCH   2  21
HETATM   21  C6  UNK     1       9.823   5.945   8.230  1.00  0.00     0.036 A 
HETATM   22  C10 UNK     1      11.145   5.683   8.591  1.00  0.00     0.036 A 
HETATM   23  C14 UNK     1      12.167   5.841   7.655  1.00  0.00    -0.060 A 
HETATM   24  C17 UNK     1      11.867   6.261   6.359  1.00  0.00     0.007 A 
HETATM   25  C23 UNK     1      13.581   5.561   8.039  1.00  0.00     0.048 C 
HETATM   26  C15 UNK     1      10.546   6.523   5.999  1.00  0.00     0.009 A 
HETATM   27  C9  UNK     1       9.524   6.365   6.934  1.00  0.00    -0.035 A 
HETATM   28  C16 UNK     1       8.117   6.654   6.521  1.00  0.00     0.050 C 
ENDBRANCH   2  21
TORSDOF 3
ENDMDL
MODEL 3
REMARK VINA RESULT:      -9.6     15.630     18.579
REMARK  3 active torsions:
REMARK  status: ('A' for Active; 'I' for Inactive)
REMARK    1  A    between atoms: C5_9  and  N1_3 
REMARK    2  A    between atoms: C6_10  and  N2_4 
REMARK    3  A    between atoms: C5_9  and  C7_11 
ROOT
HETATM    1  N1  UNK     1      27.609  -8.312  38.141  1.00  0.00     0.095 N 
HETATM    2  N2  UNK     1      25.156  -9.384  37.146  1.00  0.00    -0.377 N 
HETATM    3  C1  UNK     1      26.492  -8.581  39.053  1.00  0.00     0.292 C 
HETATM    4  C2  UNK     1      27.618  -9.301  37.055  1.00  0.00     0.292 C 
HETATM    5  C3  UNK     1      25.150  -8.506  38.318  1.00  0.00     0.153 C 
HETATM    6  C4  UNK     1      26.315  -9.248  36.254  1.00  0.00     0.153 C 
ENDROOT
BRANCH   1   7
HETATM    7  C5  UNK     1      28.880  -8.335  38.865  1.00  0.00     0.312 C 
BRANCH   7   8
HETATM    8  C7  UNK     1      29.588  -7.012  38.786  1.00  0.00    -0.011 A 
HETATM    9  C11 UNK     1      28.931  -5.922  39.206  1.00  0.00     0.092 A 
HETATM   10  C20 UNK     1      29.519  -4.571  39.182  1.00  0.00     0.288 A 
HETATM   11  O1  UNK     1      30.813  -4.464  38.697  1.00  0.00    -0.275 OA
HETATM   12  O2  UNK     1      28.887  -3.597  39.574  1.00  0.00    -0.260 OA
HETATM   13  C12 UNK     1      31.529  -5.592  38.249  1.00  0.00     0.091 A 
HETATM   14  C8  UNK     1      30.959  -6.865  38.277  1.00  0.00     0.012 A 
HETATM   15  C18 UNK     1      32.824  -5.364  37.781  1.00  0.00     0.045 A 
HETATM   16  C13 UNK     1      31.735  -7.936  37.813  1.00  0.00    -0.048 A 
HETATM   17  C19 UNK     1      33.035  -7.724  37.340  1.00  0.00     0.014 A 
HETATM   18  C22 UNK     1      31.284  -9.360  37.769  1.00  0.00     0.049 C 
HETATM   19  C21 UNK     1      33.579  -6.440  37.324  1.00  0.00    -0.059 A 
HETATM   20  C24 UNK     1      34.964  -6.220  36.819  1.00  0.00     0.048 C 
ENDBRANCH   7   8
ENDBRANCH   1   7
BRANCH   2  21
HETATM   21  C6  UNK     1      23.943  -9.805  36.587  1.00  0.00     0.036 A 
HETATM   22  C10 UNK     1      22.866  -8.920  36.553  1.00  0.00     0.036 A 
HETATM   23  C14 UNK     1      21.651  -9.322  36.000  1.00  0.00    -0.060 A 
HETATM   24  C17 UNK     1      21.512 -10.609  35.482  1.00  0.00     0.007 A 
HETATM   25  C23 UNK     1      20.498  -8.375  35.962  1.00  0.00     0.048 C 
HETATM   26  C15 UNK     1      22.589 -11.495  35.517  1.00  0.00     0.009 A 
HETATM   27  C9  UNK     1      23.805 -11.093  36.069  1.00  0.00    -0.035 A 
HETATM   28  C16 UNK     1      24.941 -12.062  36.095  1.00  0.00     0.050 C 
ENDBRANCH   2  21
TORSDOF 3
ENDMDL
MODEL 4
REMARK VINA RESULT:      -9.6      7.704     11.059
REMARK  3 active torsions:
REMARK  status: ('A' for Active; 'I' for Inactive)
REMARK    1  A    between atoms: C5_9  and  N1_3 
REMARK    2  A    between atoms: C6_10  and  N2_4 
REMARK    3  A    between atoms: C5_9  and  C7_11 
ROOT
HETATM    1  N1  UNK     1      20.167  -3.965  36.547  1.00  0.00     0.095 N 
HETATM    2  N2  UNK     1      20.566  -6.790  36.670  1.00  0.00    -0.377 N 
HETATM    3  C1  UNK     1      21.050  -4.547  37.564  1.00  0.00     0.292 C 
HETATM    4  C2  UNK     1      20.233  -4.759  35.314  1.00  0.00     0.292 C 
HETATM    5  C3  UNK     1      20.640  -5.985  37.892  1.00  0.00     0.153 C 
HETATM    6  C4  UNK     1      19.794  -6.204  35.567  1.00  0.00     0.153 C 
ENDROOT
BRANCH   1   7
HETATM    7  C5  UNK     1      20.536  -2.575  36.281  1.00  0.00     0.312 C 
BRANCH   7   8
HETATM    8  C7  UNK     1      19.615  -1.937  35.280  1.00  0.00    -0.011 A 
HETATM    9  C11 UNK     1      19.912  -2.068  33.979  1.00  0.00     0.092 A 
HETATM   10  C20 UNK     1      19.086  -1.492  32.904  1.00  0.00     0.288 A 
HETATM   11  O1  UNK     1      17.957  -0.789  33.296  1.00  0.00    -0.275 OA
HETATM   12  O2  UNK     1      19.389  -1.632  31.725  1.00  0.00    -0.260 OA
HETATM   13  C12 UNK     1      17.618  -0.635  34.655  1.00  0.00     0.091 A 
HETATM   14  C8  UNK     1      18.411  -1.185  35.662  1.00  0.00     0.012 A 
HETATM   15  C18 UNK     1      16.459   0.093  34.931  1.00  0.00     0.045 A 
HETATM   16  C13 UNK     1      18.007  -0.987  36.990  1.00  0.00    -0.048 A 
HETATM   17  C19 UNK     1      16.848  -0.259  37.283  1.00  0.00     0.014 A 
HETATM   18  C22 UNK     1      18.736  -1.502  38.189  1.00  0.00     0.049 C 
HETATM   19  C21 UNK     1      16.075   0.280  36.255  1.00  0.00    -0.059 A 
HETATM   20  C24 UNK     1      14.842   1.054  36.573  1.00  0.00     0.048 C 
ENDBRANCH   7   8
ENDBRANCH   1   7
BRANCH   2  21
HETATM   21  C6  UNK     1      20.637  -8.186  36.753  1.00  0.00     0.036 A 
HETATM   22  C10 UNK     1      21.738  -8.845  36.206  1.00  0.00     0.036 A 
HETATM   23  C14 UNK     1      21.826 -10.235  36.280  1.00  0.00    -0.060 A 
HETATM   24  C17 UNK     1      20.812 -10.966  36.899  1.00  0.00     0.007 A 
HETATM   25  C23 UNK     1      23.003 -10.941  35.696  1.00  0.00     0.048 C 
HETATM   26  C15 UNK     1      19.711 -10.307  37.445  1.00  0.00     0.009 A 
HETATM   27  C9  UNK     1      19.624  -8.917  37.373  1.00  0.00    -0.035 A 
HETATM   28  C16 UNK     1      18.433  -8.236  37.965  1.00  0.00     0.050 C 
ENDBRANCH   2  21
TORSDOF 3
ENDMDL
MODEL 5
REMARK VINA RESULT:      -9.1     21.188     24.098
REMARK  3 active torsions:
REMARK  status: ('A' for Active; 'I' for Inactive)
REMARK    1  A    between atoms: C5_9  and  N1_3 
REMARK    2  A    between atoms: C6_10  and  N2_4 
REMARK    3  A    between atoms: C5_9  and  C7_11 
ROOT
HETATM    1  N1  UNK     1       7.136   6.172  10.537  1.00  0.00     0.095 N 
HETATM    2  N2  UNK     1       9.481   6.395   8.922  1.00  0.00    -0.377 N 
HETATM    3  C1  UNK     1       7.262   7.255   9.555  1.00  0.00     0.292 C 
HETATM    4  C2  UNK     1       7.813   4.967  10.041  1.00  0.00     0.292 C 
HETATM    5  C3  UNK     1       8.732   7.597   9.298  1.00  0.00     0.153 C 
HETATM    6  C4  UNK     1       9.301   5.233   9.801  1.00  0.00     0.153 C 
ENDROOT
BRANCH   1   7
HETATM    7  C5  UNK     1       5.728   5.891  10.814  1.00  0.00     0.312 C 
BRANCH   7   8
HETATM    8  C7  UNK     1       5.541   4.525  11.411  1.00  0.00    -0.011 A 
HETATM    9  C11 UNK     1       5.420   3.484  10.575  1.00  0.00     0.092 A 
HETATM   10  C20 UNK     1       5.236   2.098  11.038  1.00  0.00     0.288 A 
HETATM   11  O1  UNK     1       5.191   1.901  12.409  1.00  0.00    -0.275 OA
HETATM   12  O2  UNK     1       5.129   1.172  10.243  1.00  0.00    -0.260 OA
HETATM   13  C12 UNK     1       5.315   2.974  13.313  1.00  0.00     0.091 A 
HETATM   14  C8  UNK     1       5.488   4.282  12.860  1.00  0.00     0.012 A 
HETATM   15  C18 UNK     1       5.254   2.657  14.672  1.00  0.00     0.045 A 
HETATM   16  C13 UNK     1       5.603   5.295  13.822  1.00  0.00    -0.048 A 
HETATM   17  C19 UNK     1       5.544   4.993  15.188  1.00  0.00     0.014 A 
HETATM   18  C22 UNK     1       5.790   6.746  13.516  1.00  0.00     0.049 C 
HETATM   19  C21 UNK     1       5.370   3.676  15.612  1.00  0.00    -0.059 A 
HETATM   20  C24 UNK     1       5.307   3.360  17.067  1.00  0.00     0.048 C 
ENDBRANCH   7   8
ENDBRANCH   1   7
BRANCH   2  21
HETATM   21  C6  UNK     1      10.696   6.520   8.238  1.00  0.00     0.036 A 
HETATM   22  C10 UNK     1      11.856   6.804   8.958  1.00  0.00     0.036 A 
HETATM   23  C14 UNK     1      13.076   6.932   8.293  1.00  0.00    -0.060 A 
HETATM   24  C17 UNK     1      13.134   6.775   6.908  1.00  0.00     0.007 A 
HETATM   25  C23 UNK     1      14.317   7.235   9.061  1.00  0.00     0.048 C 
HETATM   26  C15 UNK     1      11.974   6.491   6.189  1.00  0.00     0.009 A 
HETATM   27  C9  UNK     1      10.755   6.363   6.853  1.00  0.00    -0.035 A 
HETATM   28  C16 UNK     1       9.528   6.060   6.057  1.00  0.00     0.050 C 
ENDBRANCH   2  21
TORSDOF 3
ENDMDL
MODEL 6
REMARK VINA RESULT:      -9.1      2.846      9.353
REMARK  3 active torsions:
REMARK  status: ('A' for Active; 'I' for Inactive)
REMARK    1  A    between atoms: C5_9  and  N1_3 
REMARK    2  A    between atoms: C6_10  and  N2_4 
REMARK    3  A    between atoms: C5_9  and  C7_11 
ROOT
HETATM    1  N1  UNK     1      18.774   3.583  31.823  1.00  0.00     0.095 N 
HETATM    2  N2  UNK     1      18.549   6.282  32.729  1.00  0.00    -0.377 N 
HETATM    3  C1  UNK     1      17.955   3.907  32.997  1.00  0.00     0.292 C 
HETATM    4  C2  UNK     1      18.722   4.688  30.857  1.00  0.00     0.292 C 
HETATM    5  C3  UNK     1      18.460   5.177  33.687  1.00  0.00     0.153 C 
HETATM    6  C4  UNK     1      19.254   5.983  31.476  1.00  0.00     0.153 C 
ENDROOT
BRANCH   1   7
HETATM    7  C5  UNK     1      18.314   2.340  31.204  1.00  0.00     0.312 C 
BRANCH   7   8
HETATM    8  C7  UNK     1      18.630   1.145  32.058  1.00  0.00    -0.011 A 
HETATM    9  C11 UNK     1      18.259   1.177  33.345  1.00  0.00     0.092 A 
HETATM   10  C20 UNK     1      18.508   0.067  34.282  1.00  0.00     0.288 A 
HETATM   11  O1  UNK     1      19.158  -1.045  33.769  1.00  0.00    -0.275 OA
HETATM   12  O2  UNK     1      18.154   0.132  35.453  1.00  0.00    -0.260 OA
HETATM   13  C12 UNK     1      19.561  -1.107  32.420  1.00  0.00     0.091 A 
HETATM   14  C8  UNK     1      19.318  -0.048  31.546  1.00  0.00     0.012 A 
HETATM   15  C18 UNK     1      20.209  -2.276  32.015  1.00  0.00     0.045 A 
HETATM   16  C13 UNK     1      19.750  -0.187  30.219  1.00  0.00    -0.048 A 
HETATM   17  C19 UNK     1      20.401  -1.353  29.798  1.00  0.00     0.014 A 
HETATM   18  C22 UNK     1      19.575   0.846  29.153  1.00  0.00     0.049 C 
HETATM   19  C21 UNK     1      20.630  -2.395  30.695  1.00  0.00    -0.059 A 
HETATM   20  C24 UNK     1      21.324  -3.634  30.241  1.00  0.00     0.048 C 
ENDBRANCH   7   8
ENDBRANCH   1   7
BRANCH   2  21
HETATM   21  C6  UNK     1      18.565   7.604  33.192  1.00  0.00     0.036 A 
HETATM   22  C10 UNK     1      19.727   8.106  33.777  1.00  0.00     0.036 A 
HETATM   23  C14 UNK     1      19.760   9.420  34.243  1.00  0.00    -0.060 A 
HETATM   24  C17 UNK     1      18.632  10.231  34.126  1.00  0.00     0.007 A 
HETATM   25  C23 UNK     1      21.003   9.959  34.869  1.00  0.00     0.048 C 
HETATM   26  C15 UNK     1      17.470   9.728  33.541  1.00  0.00     0.009 A 
HETATM   27  C9  UNK     1      17.436   8.415  33.074  1.00  0.00    -0.035 A 
HETATM   28  C16 UNK     1      16.178   7.902  32.453  1.00  0.00     0.050 C 
ENDBRANCH   2  21
TORSDOF 3
ENDMDL
MODEL 7
REMARK VINA RESULT:      -9.0     22.629     25.195
REMARK  3 active torsions:
REMARK  status: ('A' for Active; 'I' for Inactive)
REMARK    1  A    between atoms: C5_9  and  N1_3 
REMARK    2  A    between atoms: C6_10  and  N2_4 
REMARK    3  A    between atoms: C5_9  and  C7_11 
ROOT
HETATM    1  N1  UNK     1      15.645   9.610   9.248  1.00  0.00     0.095 N 
HETATM    2  N2  UNK     1      17.147  11.752   8.102  1.00  0.00    -0.377 N 
HETATM    3  C1  UNK     1      16.910  10.041   9.857  1.00  0.00     0.292 C 
HETATM    4  C2  UNK     1      14.958  10.764   8.655  1.00  0.00     0.292 C 
HETATM    5  C3  UNK     1      17.836  10.673   8.814  1.00  0.00     0.153 C 
HETATM    6  C4  UNK     1      15.819  11.419   7.572  1.00  0.00     0.153 C 
ENDROOT
BRANCH   1   7
HETATM    7  C5  UNK     1      14.792   8.961  10.243  1.00  0.00     0.312 C 
BRANCH   7   8
HETATM    8  C7  UNK     1      14.430   7.561   9.836  1.00  0.00    -0.011 A 
HETATM    9  C11 UNK     1      15.393   6.630   9.864  1.00  0.00     0.092 A 
HETATM   10  C20 UNK     1      15.162   5.223   9.491  1.00  0.00     0.288 A 
HETATM   11  O1  UNK     1      13.876   4.886   9.100  1.00  0.00    -0.275 OA
HETATM   12  O2  UNK     1      16.068   4.399   9.529  1.00  0.00    -0.260 OA
HETATM   13  C12 UNK     1      12.842   5.843   9.060  1.00  0.00     0.091 A 
HETATM   14  C8  UNK     1      13.076   7.172   9.415  1.00  0.00     0.012 A 
HETATM   15  C18 UNK     1      11.587   5.391   8.650  1.00  0.00     0.045 A 
HETATM   16  C13 UNK     1      11.996   8.063   9.349  1.00  0.00    -0.048 A 
HETATM   17  C19 UNK     1      10.732   7.625   8.939  1.00  0.00     0.014 A 
HETATM   18  C22 UNK     1      12.068   9.517   9.689  1.00  0.00     0.049 C 
HETATM   19  C21 UNK     1      10.528   6.290   8.590  1.00  0.00    -0.059 A 
HETATM   20  C24 UNK     1       9.179   5.829   8.154  1.00  0.00     0.048 C 
ENDBRANCH   7   8
ENDBRANCH   1   7
BRANCH   2  21
HETATM   21  C6  UNK     1      17.894  12.731   7.435  1.00  0.00     0.036 A 
HETATM   22  C10 UNK     1      18.439  12.437   6.185  1.00  0.00     0.036 A 
HETATM   23  C14 UNK     1      19.185  13.400   5.506  1.00  0.00    -0.060 A 
HETATM   24  C17 UNK     1      19.387  14.656   6.078  1.00  0.00     0.007 A 
HETATM   25  C23 UNK     1      19.769  13.087   4.170  1.00  0.00     0.048 C 
HETATM   26  C15 UNK     1      18.842  14.950   7.327  1.00  0.00     0.009 A 
HETATM   27  C9  UNK     1      18.095  13.987   8.006  1.00  0.00    -0.035 A 
HETATM   28  C16 UNK     1      17.524  14.328   9.344  1.00  0.00     0.050 C 
ENDBRANCH   2  21
TORSDOF 3
ENDMDL
MODEL 8
REMARK VINA RESULT:      -9.0     17.722     19.647
REMARK  3 active torsions:
REMARK  status: ('A' for Active; 'I' for Inactive)
REMARK    1  A    between atoms: C5_9  and  N1_3 
REMARK    2  A    between atoms: C6_10  and  N2_4 
REMARK    3  A    between atoms: C5_9  and  C7_11 
ROOT
HETATM    1  N1  UNK     1      32.136  -7.377  36.021  1.00  0.00     0.095 N 
HETATM    2  N2  UNK     1      33.021  -7.351  33.306  1.00  0.00    -0.377 N 
HETATM    3  C1  UNK     1      32.984  -8.459  35.505  1.00  0.00     0.292 C 
HETATM    4  C2  UNK     1      32.489  -6.110  35.368  1.00  0.00     0.292 C 
HETATM    5  C3  UNK     1      32.803  -8.626  33.994  1.00  0.00     0.153 C 
HETATM    6  C4  UNK     1      32.292  -6.200  33.853  1.00  0.00     0.153 C 
ENDROOT
BRANCH   1   7
HETATM    7  C5  UNK     1      32.277  -7.262  37.472  1.00  0.00     0.312 C 
BRANCH   7   8
HETATM    8  C7  UNK     1      31.021  -6.742  38.113  1.00  0.00    -0.011 A 
HETATM    9  C11 UNK     1      30.905  -5.418  38.284  1.00  0.00     0.092 A 
HETATM   10  C20 UNK     1      29.722  -4.788  38.896  1.00  0.00     0.288 A 
HETATM   11  O1  UNK     1      28.704  -5.637  39.301  1.00  0.00    -0.275 OA
HETATM   12  O2  UNK     1      29.651  -3.572  39.036  1.00  0.00    -0.260 OA
HETATM   13  C12 UNK     1      28.798  -7.033  39.134  1.00  0.00     0.091 A 
HETATM   14  C8  UNK     1      29.925  -7.616  38.554  1.00  0.00     0.012 A 
HETATM   15  C18 UNK     1      27.712  -7.789  39.580  1.00  0.00     0.045 A 
HETATM   16  C13 UNK     1      29.942  -9.011  38.425  1.00  0.00    -0.048 A 
HETATM   17  C19 UNK     1      28.861  -9.783  38.866  1.00  0.00     0.014 A 
HETATM   18  C22 UNK     1      31.065  -9.799  37.830  1.00  0.00     0.049 C 
HETATM   19  C21 UNK     1      27.748  -9.173  39.443  1.00  0.00    -0.059 A 
HETATM   20  C24 UNK     1      26.600 -10.001  39.913  1.00  0.00     0.048 C 
ENDBRANCH   7   8
ENDBRANCH   1   7
BRANCH   2  21
HETATM   21  C6  UNK     1      33.333  -7.343  31.941  1.00  0.00     0.036 A 
HETATM   22  C10 UNK     1      32.301  -7.436  31.007  1.00  0.00     0.036 A 
HETATM   23  C14 UNK     1      32.593  -7.429  29.643  1.00  0.00    -0.060 A 
HETATM   24  C17 UNK     1      33.917  -7.330  29.214  1.00  0.00     0.007 A 
HETATM   25  C23 UNK     1      31.491  -7.528  28.643  1.00  0.00     0.048 C 
HETATM   26  C15 UNK     1      34.948  -7.237  30.148  1.00  0.00     0.009 A 
HETATM   27  C9  UNK     1      34.656  -7.243  31.511  1.00  0.00    -0.035 A 
HETATM   28  C16 UNK     1      35.780  -7.144  32.490  1.00  0.00     0.050 C 
ENDBRANCH   2  21
TORSDOF 3
ENDMDL
MODEL 9
REMARK VINA RESULT:      -9.0     21.998     24.400
REMARK  3 active torsions:
REMARK  status: ('A' for Active; 'I' for Inactive)
REMARK    1  A    between atoms: C5_9  and  N1_3 
REMARK    2  A    between atoms: C6_10  and  N2_4 
REMARK    3  A    between atoms: C5_9  and  C7_11 
ROOT
HETATM    1  N1  UNK     1      15.317   9.114  10.829  1.00  0.00     0.095 N 
HETATM    2  N2  UNK     1      17.268  10.865   9.696  1.00  0.00    -0.377 N 
HETATM    3  C1  UNK     1      15.166  10.569  10.946  1.00  0.00     0.292 C 
HETATM    4  C2  UNK     1      15.964   8.779   9.555  1.00  0.00     0.292 C 
HETATM    5  C3  UNK     1      16.527  11.270  10.894  1.00  0.00     0.153 C 
HETATM    6  C4  UNK     1      17.351   9.419   9.457  1.00  0.00     0.153 C 
ENDROOT
BRANCH   1   7
HETATM    7  C5  UNK     1      14.016   8.453  10.934  1.00  0.00     0.312 C 
BRANCH   7   8
HETATM    8  C7  UNK     1      13.957   7.208  10.094  1.00  0.00    -0.011 A 
HETATM    9  C11 UNK     1      14.888   6.266  10.301  1.00  0.00     0.092 A 
HETATM   10  C20 UNK     1      14.933   5.002   9.546  1.00  0.00     0.288 A 
HETATM   11  O1  UNK     1      13.951   4.815   8.586  1.00  0.00    -0.275 OA
HETATM   12  O2  UNK     1      15.801   4.164   9.763  1.00  0.00    -0.260 OA
HETATM   13  C12 UNK     1      12.959   5.787   8.346  1.00  0.00     0.091 A 
HETATM   14  C8  UNK     1      12.929   6.980   9.069  1.00  0.00     0.012 A 
HETATM   15  C18 UNK     1      12.021   5.491   7.355  1.00  0.00     0.045 A 
HETATM   16  C13 UNK     1      11.912   7.896   8.770  1.00  0.00    -0.048 A 
HETATM   17  C19 UNK     1      10.964   7.614   7.780  1.00  0.00     0.014 A 
HETATM   18  C22 UNK     1      11.731   9.219   9.442  1.00  0.00     0.049 C 
HETATM   19  C21 UNK     1      11.019   6.413   7.073  1.00  0.00    -0.059 A 
HETATM   20  C24 UNK     1      10.007   6.118   6.019  1.00  0.00     0.048 C 
ENDBRANCH   7   8
ENDBRANCH   1   7
BRANCH   2  21
HETATM   21  C6  UNK     1      18.309  11.671   9.219  1.00  0.00     0.036 A 
HETATM   22  C10 UNK     1      19.511  11.717   9.924  1.00  0.00     0.036 A 
HETATM   23  C14 UNK     1      20.559  12.513   9.463  1.00  0.00    -0.060 A 
HETATM   24  C17 UNK     1      20.404  13.264   8.297  1.00  0.00     0.007 A 
HETATM   25  C23 UNK     1      21.846  12.564  10.215  1.00  0.00     0.048 C 
HETATM   26  C15 UNK     1      19.202  13.217   7.593  1.00  0.00     0.009 A 
HETATM   27  C9  UNK     1      18.154  12.421   8.053  1.00  0.00    -0.035 A 
HETATM   28  C16 UNK     1      16.876  12.391   7.279  1.00  0.00     0.050 C 
ENDBRANCH   2  21
TORSDOF 3
ENDMDL
MODEL 10
REMARK VINA RESULT:      -8.9     17.834     20.746
REMARK  3 active torsions:
REMARK  status: ('A' for Active; 'I' for Inactive)
REMARK    1  A    between atoms: C5_9  and  N1_3 
REMARK    2  A    between atoms: C6_10  and  N2_4 
REMARK    3  A    between atoms: C5_9  and  C7_11 
ROOT
HETATM    1  N1  UNK     1      33.261  -7.721  34.047  1.00  0.00     0.095 N 
HETATM    2  N2  UNK     1      31.605  -6.566  36.067  1.00  0.00    -0.377 N 
HETATM    3  C1  UNK     1      33.360  -8.175  35.439  1.00  0.00     0.292 C 
HETATM    4  C2  UNK     1      31.876  -7.341  33.743  1.00  0.00     0.292 C 
HETATM    5  C3  UNK     1      32.937  -7.070  36.411  1.00  0.00     0.153 C 
HETATM    6  C4  UNK     1      31.404  -6.207  34.657  1.00  0.00     0.153 C 
ENDROOT
BRANCH   1   7
HETATM    7  C5  UNK     1      33.718  -8.766  33.132  1.00  0.00     0.312 C 
BRANCH   7   8
HETATM    8  C7  UNK     1      33.727  -8.292  31.706  1.00  0.00    -0.011 A 
HETATM    9  C11 UNK     1      34.663  -7.402  31.347  1.00  0.00     0.092 A 
HETATM   10  C20 UNK     1      34.778  -6.865  29.980  1.00  0.00     0.288 A 
HETATM   11  O1  UNK     1      33.858  -7.326  29.051  1.00  0.00    -0.275 OA
HETATM   12  O2  UNK     1      35.646  -6.052  29.687  1.00  0.00    -0.260 OA
HETATM   13  C12 UNK     1      32.863  -8.261  29.399  1.00  0.00     0.091 A 
HETATM   14  C8  UNK     1      32.766  -8.761  30.699  1.00  0.00     0.012 A 
HETATM   15  C18 UNK     1      31.990  -8.653  28.382  1.00  0.00     0.045 A 
HETATM   16  C13 UNK     1      31.749  -9.687  30.966  1.00  0.00    -0.048 A 
HETATM   17  C19 UNK     1      30.866 -10.090  29.957  1.00  0.00     0.014 A 
HETATM   18  C22 UNK     1      31.499 -10.320  32.297  1.00  0.00     0.049 C 
HETATM   19  C21 UNK     1      30.987  -9.574  28.667  1.00  0.00    -0.059 A 
HETATM   20  C24 UNK     1      30.043 -10.006  27.597  1.00  0.00     0.048 C 
ENDBRANCH   7   8
ENDBRANCH   1   7
BRANCH   2  21
HETATM   21  C6  UNK     1      30.848  -5.888  37.031  1.00  0.00     0.036 A 
HETATM   22  C10 UNK     1      29.884  -6.589  37.755  1.00  0.00     0.036 A 
HETATM   23  C14 UNK     1      29.121  -5.930  38.719  1.00  0.00    -0.060 A 
HETATM   24  C17 UNK     1      29.324  -4.571  38.959  1.00  0.00     0.007 A 
HETATM   25  C23 UNK     1      28.090  -6.677  39.495  1.00  0.00     0.048 C 
HETATM   26  C15 UNK     1      30.288  -3.871  38.235  1.00  0.00     0.009 A 
HETATM   27  C9  UNK     1      31.051  -4.529  37.271  1.00  0.00    -0.035 A 
HETATM   28  C16 UNK     1      32.076  -3.754  36.509  1.00  0.00     0.050 C 
ENDBRANCH   2  21
TORSDOF 3
ENDMDL
