MODEL 1
REMARK VINA RESULT:      -7.4      0.000      0.000
REMARK  1 active torsions:
REMARK  status: ('A' for Active; 'I' for Inactive)
REMARK    1  A    between atoms: C6_10  and  O2_2 
ROOT
HETATM    1  O1  UNK     1      18.767   0.388  32.718  1.00  0.00    -0.273 OA
HETATM    2  O3  UNK     1      17.805   2.028  33.982  1.00  0.00    -0.258 OA
HETATM    3  N1  UNK     1      17.473   5.017  31.988  1.00  0.00    -0.191 NA
HETATM    4  C1  UNK     1      19.375   0.843  30.411  1.00  0.00    -0.000 A 
HETATM    5  C2  UNK     1      19.310  -0.032  31.490  1.00  0.00     0.092 A 
HETATM    6  C3  UNK     1      19.921   0.392  29.207  1.00  0.00     0.017 A 
HETATM    7  C4  UNK     1      18.871   2.197  30.576  1.00  0.00     0.043 A 
HETATM    8  C5  UNK     1      19.774  -1.343  31.399  1.00  0.00     0.074 A 
HETATM    9  C6  UNK     1      20.317  -1.786  30.195  1.00  0.00     0.068 A 
HETATM   10  C7  UNK     1      20.390  -0.921  29.101  1.00  0.00     0.037 A 
HETATM   11  C8  UNK     1      18.354   2.601  31.743  1.00  0.00     0.120 A 
HETATM   12  C9  UNK     1      18.278   1.678  32.905  1.00  0.00     0.309 A 
HETATM   13  C10 UNK     1      17.868   3.932  31.879  1.00  0.00     0.105 C 
ENDROOT
BRANCH   9  14
HETATM   14  O2  UNK     1      20.777  -3.062  30.083  1.00  0.00    -0.361 OA
HETATM   15  H5  UNK     1      21.171  -3.330  30.932  1.00  0.00     0.217 HD
ENDBRANCH   9  14
TORSDOF 1
ENDMDL
MODEL 2
REMARK VINA RESULT:      -7.2     13.535     15.496
REMARK  1 active torsions:
REMARK  status: ('A' for Active; 'I' for Inactive)
REMARK    1  A    between atoms: C6_10  and  O2_2 
ROOT
HETATM    1  O1  UNK     1      19.334   1.000  15.278  1.00  0.00    -0.273 OA
HETATM    2  O3  UNK     1      19.184  -0.614  13.670  1.00  0.00    -0.258 OA
HETATM    3  N1  UNK     1      18.398  -3.771  15.231  1.00  0.00    -0.191 NA
HETATM    4  C1  UNK     1      18.972   0.418  17.609  1.00  0.00    -0.000 A 
HETATM    5  C2  UNK     1      19.262   1.367  16.635  1.00  0.00     0.092 A 
HETATM    6  C3  UNK     1      18.910   0.819  18.945  1.00  0.00     0.017 A 
HETATM    7  C4  UNK     1      18.744  -0.959  17.199  1.00  0.00     0.043 A 
HETATM    8  C5  UNK     1      19.491   2.704  16.959  1.00  0.00     0.074 A 
HETATM    9  C6  UNK     1      19.426   3.096  18.294  1.00  0.00     0.068 A 
HETATM   10  C7  UNK     1      19.136   2.156  19.285  1.00  0.00     0.037 A 
HETATM   11  C8  UNK     1      18.811  -1.312  15.909  1.00  0.00     0.120 A 
HETATM   12  C9  UNK     1      19.120  -0.310  14.857  1.00  0.00     0.309 A 
HETATM   13  C10 UNK     1      18.583  -2.667  15.535  1.00  0.00     0.105 C 
ENDROOT
BRANCH   9  14
HETATM   14  O2  UNK     1      19.647   4.395  18.634  1.00  0.00    -0.361 OA
HETATM   15  H5  UNK     1      18.805   4.880  18.586  1.00  0.00     0.217 HD
ENDBRANCH   9  14
TORSDOF 1
ENDMDL
MODEL 3
REMARK VINA RESULT:      -7.2      5.853      6.399
REMARK  1 active torsions:
REMARK  status: ('A' for Active; 'I' for Inactive)
REMARK    1  A    between atoms: C6_10  and  O2_2 
ROOT
HETATM    1  O1  UNK     1      18.946   7.061  34.043  1.00  0.00    -0.273 OA
HETATM    2  O3  UNK     1      17.216   7.706  35.387  1.00  0.00    -0.258 OA
HETATM    3  N1  UNK     1      14.145   7.605  33.495  1.00  0.00    -0.191 NA
HETATM    4  C1  UNK     1      18.514   6.449  31.732  1.00  0.00    -0.000 A 
HETATM    5  C2  UNK     1      19.405   6.626  32.785  1.00  0.00     0.092 A 
HETATM    6  C3  UNK     1      19.005   6.016  30.498  1.00  0.00     0.017 A 
HETATM    7  C4  UNK     1      17.103   6.720  31.954  1.00  0.00     0.043 A 
HETATM    8  C5  UNK     1      20.770   6.383  32.641  1.00  0.00     0.074 A 
HETATM    9  C6  UNK     1      21.252   5.952  31.407  1.00  0.00     0.068 A 
HETATM   10  C7  UNK     1      20.372   5.768  30.338  1.00  0.00     0.037 A 
HETATM   11  C8  UNK     1      16.662   7.134  33.149  1.00  0.00     0.120 A 
HETATM   12  C9  UNK     1      17.600   7.329  34.284  1.00  0.00     0.309 A 
HETATM   13  C10 UNK     1      15.275   7.394  33.340  1.00  0.00     0.105 C 
ENDROOT
BRANCH   9  14
HETATM   14  O2  UNK     1      22.581   5.709  31.242  1.00  0.00    -0.361 OA
HETATM   15  H5  UNK     1      23.053   5.982  32.048  1.00  0.00     0.217 HD
ENDBRANCH   9  14
TORSDOF 1
ENDMDL
MODEL 4
REMARK VINA RESULT:      -7.1     24.164     25.222
REMARK  1 active torsions:
REMARK  status: ('A' for Active; 'I' for Inactive)
REMARK    1  A    between atoms: C6_10  and  O2_2 
ROOT
HETATM    1  O1  UNK     1      11.360   7.250   9.681  1.00  0.00    -0.273 OA
HETATM    2  O3  UNK     1      13.339   7.229  10.818  1.00  0.00    -0.258 OA
HETATM    3  N1  UNK     1      15.814   5.482   8.857  1.00  0.00    -0.191 NA
HETATM    4  C1  UNK     1      11.210   6.190   7.500  1.00  0.00    -0.000 A 
HETATM    5  C2  UNK     1      10.616   6.897   8.539  1.00  0.00     0.092 A 
HETATM    6  C3  UNK     1      10.441   5.857   6.383  1.00  0.00     0.017 A 
HETATM    7  C4  UNK     1      12.613   5.823   7.615  1.00  0.00     0.043 A 
HETATM    8  C5  UNK     1       9.276   7.280   8.493  1.00  0.00     0.074 A 
HETATM    9  C6  UNK     1       8.516   6.944   7.375  1.00  0.00     0.068 A 
HETATM   10  C7  UNK     1       9.097   6.235   6.322  1.00  0.00     0.037 A 
HETATM   11  C8  UNK     1      13.325   6.157   8.699  1.00  0.00     0.120 A 
HETATM   12  C9  UNK     1      12.704   6.912   9.818  1.00  0.00     0.309 A 
HETATM   13  C10 UNK     1      14.696   5.786   8.786  1.00  0.00     0.105 C 
ENDROOT
BRANCH   9  14
HETATM   14  O2  UNK     1       7.205   7.307   7.308  1.00  0.00    -0.361 OA
HETATM   15  H5  UNK     1       6.684   6.548   6.995  1.00  0.00     0.217 HD
ENDBRANCH   9  14
TORSDOF 1
ENDMDL
MODEL 5
REMARK VINA RESULT:      -7.0      3.666      5.334
REMARK  1 active torsions:
REMARK  status: ('A' for Active; 'I' for Inactive)
REMARK    1  A    between atoms: C6_10  and  O2_2 
ROOT
HETATM    1  O1  UNK     1      20.021  -1.069  32.530  1.00  0.00    -0.273 OA
HETATM    2  O3  UNK     1      20.749  -2.755  33.887  1.00  0.00    -0.258 OA
HETATM    3  N1  UNK     1      21.973  -5.470  31.849  1.00  0.00    -0.191 NA
HETATM    4  C1  UNK     1      20.163  -1.316  30.118  1.00  0.00    -0.000 A 
HETATM    5  C2  UNK     1      19.815  -0.562  31.233  1.00  0.00     0.092 A 
HETATM    6  C3  UNK     1      19.944  -0.781  28.846  1.00  0.00     0.017 A 
HETATM    7  C4  UNK     1      20.743  -2.635  30.316  1.00  0.00     0.043 A 
HETATM    8  C5  UNK     1      19.256   0.709  31.114  1.00  0.00     0.074 A 
HETATM    9  C6  UNK     1      19.041   1.236  29.842  1.00  0.00     0.068 A 
HETATM   10  C7  UNK     1      19.385   0.493  28.711  1.00  0.00     0.037 A 
HETATM   11  C8  UNK     1      20.941  -3.121  31.548  1.00  0.00     0.120 A 
HETATM   12  C9  UNK     1      20.574  -2.328  32.750  1.00  0.00     0.309 A 
HETATM   13  C10 UNK     1      21.510  -4.415  31.715  1.00  0.00     0.105 C 
ENDROOT
BRANCH   9  14
HETATM   14  O2  UNK     1      18.495   2.475  29.702  1.00  0.00    -0.361 OA
HETATM   15  H5  UNK     1      19.197   3.101  29.450  1.00  0.00     0.217 HD
ENDBRANCH   9  14
TORSDOF 1
ENDMDL
MODEL 6
REMARK VINA RESULT:      -6.7      2.440      3.272
REMARK  1 active torsions:
REMARK  status: ('A' for Active; 'I' for Inactive)
REMARK    1  A    between atoms: C6_10  and  O2_2 
ROOT
HETATM    1  O1  UNK     1      18.684   1.277  32.108  1.00  0.00    -0.273 OA
HETATM    2  O3  UNK     1      17.686   2.155  33.964  1.00  0.00    -0.258 OA
HETATM    3  N1  UNK     1      17.347  -0.428  36.460  1.00  0.00    -0.191 NA
HETATM    4  C1  UNK     1      19.325  -1.066  32.077  1.00  0.00    -0.000 A 
HETATM    5  C2  UNK     1      19.253   0.172  31.447  1.00  0.00     0.092 A 
HETATM    6  C3  UNK     1      19.895  -2.141  31.391  1.00  0.00     0.017 A 
HETATM    7  C4  UNK     1      18.803  -1.196  33.428  1.00  0.00     0.043 A 
HETATM    8  C5  UNK     1      19.735   0.365  30.154  1.00  0.00     0.074 A 
HETATM    9  C6  UNK     1      20.303  -0.711  29.476  1.00  0.00     0.068 A 
HETATM   10  C7  UNK     1      20.384  -1.961  30.093  1.00  0.00     0.037 A 
HETATM   11  C8  UNK     1      18.262  -0.147  34.060  1.00  0.00     0.120 A 
HETATM   12  C9  UNK     1      18.177   1.182  33.401  1.00  0.00     0.309 A 
HETATM   13  C10 UNK     1      17.758  -0.302  35.382  1.00  0.00     0.105 C 
ENDROOT
BRANCH   9  14
HETATM   14  O2  UNK     1      20.779  -0.546  28.212  1.00  0.00    -0.361 OA
HETATM   15  H5  UNK     1      20.764   0.402  27.991  1.00  0.00     0.217 HD
ENDBRANCH   9  14
TORSDOF 1
ENDMDL
MODEL 7
REMARK VINA RESULT:      -6.6      2.777      5.940
REMARK  1 active torsions:
REMARK  status: ('A' for Active; 'I' for Inactive)
REMARK    1  A    between atoms: C6_10  and  O2_2 
ROOT
HETATM    1  O1  UNK     1      18.237   2.911  32.979  1.00  0.00    -0.273 OA
HETATM    2  O3  UNK     1      18.401   0.801  32.122  1.00  0.00    -0.258 OA
HETATM    3  N1  UNK     1      19.027   1.009  28.575  1.00  0.00    -0.191 NA
HETATM    4  C1  UNK     1      18.489   4.831  31.513  1.00  0.00    -0.000 A 
HETATM    5  C2  UNK     1      18.267   4.304  32.780  1.00  0.00     0.092 A 
HETATM    6  C3  UNK     1      18.511   6.218  31.353  1.00  0.00     0.017 A 
HETATM    7  C4  UNK     1      18.691   3.918  30.399  1.00  0.00     0.043 A 
HETATM    8  C5  UNK     1      18.067   5.123  33.890  1.00  0.00     0.074 A 
HETATM    9  C6  UNK     1      18.091   6.506  33.723  1.00  0.00     0.068 A 
HETATM   10  C7  UNK     1      18.313   7.052  32.457  1.00  0.00     0.037 A 
HETATM   11  C8  UNK     1      18.664   2.591  30.584  1.00  0.00     0.120 A 
HETATM   12  C9  UNK     1      18.427   2.012  31.932  1.00  0.00     0.309 A 
HETATM   13  C10 UNK     1      18.864   1.719  29.477  1.00  0.00     0.105 C 
ENDROOT
BRANCH   9  14
HETATM   14  O2  UNK     1      17.897   7.325  34.792  1.00  0.00    -0.361 OA
HETATM   15  H5  UNK     1      18.758   7.674  35.081  1.00  0.00     0.217 HD
ENDBRANCH   9  14
TORSDOF 1
ENDMDL
MODEL 8
REMARK VINA RESULT:      -6.5     14.050     15.260
REMARK  1 active torsions:
REMARK  status: ('A' for Active; 'I' for Inactive)
REMARK    1  A    between atoms: C6_10  and  O2_2 
ROOT
HETATM    1  O1  UNK     1      31.095  -4.805  39.001  1.00  0.00    -0.273 OA
HETATM    2  O3  UNK     1      29.371  -3.553  39.822  1.00  0.00    -0.258 OA
HETATM    3  N1  UNK     1      26.243  -5.018  38.775  1.00  0.00    -0.191 NA
HETATM    4  C1  UNK     1      30.626  -6.775  37.660  1.00  0.00    -0.000 A 
HETATM    5  C2  UNK     1      31.540  -5.914  38.258  1.00  0.00     0.092 A 
HETATM    6  C3  UNK     1      31.103  -7.865  36.930  1.00  0.00     0.017 A 
HETATM    7  C4  UNK     1      29.205  -6.507  37.818  1.00  0.00     0.043 A 
HETATM    8  C5  UNK     1      32.915  -6.113  38.147  1.00  0.00     0.074 A 
HETATM    9  C6  UNK     1      33.383  -7.204  37.417  1.00  0.00     0.068 A 
HETATM   10  C7  UNK     1      32.479  -8.078  36.810  1.00  0.00     0.037 A 
HETATM   11  C8  UNK     1      28.778  -5.453  38.524  1.00  0.00     0.120 A 
HETATM   12  C9  UNK     1      29.742  -4.524  39.169  1.00  0.00     0.309 A 
HETATM   13  C10 UNK     1      27.382  -5.213  38.662  1.00  0.00     0.105 C 
ENDROOT
BRANCH   9  14
HETATM   14  O2  UNK     1      34.722  -7.417  37.295  1.00  0.00    -0.361 OA
HETATM   15  H5  UNK     1      35.166  -6.562  37.164  1.00  0.00     0.217 HD
ENDBRANCH   9  14
TORSDOF 1
ENDMDL
MODEL 9
REMARK VINA RESULT:      -6.5     22.535     23.771
REMARK  1 active torsions:
REMARK  status: ('A' for Active; 'I' for Inactive)
REMARK    1  A    between atoms: C6_10  and  O2_2 
ROOT
HETATM    1  O1  UNK     1      13.889   4.712   9.136  1.00  0.00    -0.273 OA
HETATM    2  O3  UNK     1      16.087   4.315   9.613  1.00  0.00    -0.258 OA
HETATM    3  N1  UNK     1      17.742   7.455  10.262  1.00  0.00    -0.191 NA
HETATM    4  C1  UNK     1      13.047   6.990   9.136  1.00  0.00    -0.000 A 
HETATM    5  C2  UNK     1      12.832   5.626   8.970  1.00  0.00     0.092 A 
HETATM    6  C3  UNK     1      11.975   7.868   8.963  1.00  0.00     0.017 A 
HETATM    7  C4  UNK     1      14.381   7.452   9.485  1.00  0.00     0.043 A 
HETATM    8  C5  UNK     1      11.578   5.116   8.638  1.00  0.00     0.074 A 
HETATM    9  C6  UNK     1      10.514   5.998   8.467  1.00  0.00     0.068 A 
HETATM   10  C7  UNK     1      10.711   7.371   8.630  1.00  0.00     0.037 A 
HETATM   11  C8  UNK     1      15.389   6.585   9.644  1.00  0.00     0.120 A 
HETATM   12  C9  UNK     1      15.177   5.125   9.470  1.00  0.00     0.309 A 
HETATM   13  C10 UNK     1      16.686   7.064   9.984  1.00  0.00     0.105 C 
ENDROOT
BRANCH   9  14
HETATM   14  O2  UNK     1       9.281   5.523   8.141  1.00  0.00    -0.361 OA
HETATM   15  H5  UNK     1       9.366   4.598   7.854  1.00  0.00     0.217 HD
ENDBRANCH   9  14
TORSDOF 1
ENDMDL
MODEL 10
REMARK VINA RESULT:      -6.5      9.219     10.837
REMARK  1 active torsions:
REMARK  status: ('A' for Active; 'I' for Inactive)
REMARK    1  A    between atoms: C6_10  and  O2_2 
ROOT
HETATM    1  O1  UNK     1      20.025  -7.722  35.875  1.00  0.00    -0.273 OA
HETATM    2  O3  UNK     1      20.237  -5.781  34.691  1.00  0.00    -0.258 OA
HETATM    3  N1  UNK     1      20.480  -3.012  36.992  1.00  0.00    -0.191 NA
HETATM    4  C1  UNK     1      19.999  -7.657  38.303  1.00  0.00    -0.000 A 
HETATM    5  C2  UNK     1      19.944  -8.380  37.117  1.00  0.00     0.092 A 
HETATM    6  C3  UNK     1      19.915  -8.344  39.517  1.00  0.00     0.017 A 
HETATM    7  C4  UNK     1      20.145  -6.212  38.237  1.00  0.00     0.043 A 
HETATM    8  C5  UNK     1      19.806  -9.767  37.109  1.00  0.00     0.074 A 
HETATM    9  C6  UNK     1      19.722 -10.445  38.323  1.00  0.00     0.068 A 
HETATM   10  C7  UNK     1      19.777  -9.735  39.524  1.00  0.00     0.037 A 
HETATM   11  C8  UNK     1      20.223  -5.582  37.058  1.00  0.00     0.120 A 
HETATM   12  C9  UNK     1      20.165  -6.339  35.782  1.00  0.00     0.309 A 
HETATM   13  C10 UNK     1      20.365  -4.166  37.022  1.00  0.00     0.105 C 
ENDROOT
BRANCH   9  14
HETATM   14  O2  UNK     1      19.587 -11.799  38.339  1.00  0.00    -0.361 OA
HETATM   15  H5  UNK     1      19.385 -12.106  37.439  1.00  0.00     0.217 HD
ENDBRANCH   9  14
TORSDOF 1
ENDMDL
