MODEL 1
REMARK VINA RESULT:     -10.4      0.000      0.000
REMARK  14 active torsions:
REMARK  status: ('A' for Active; 'I' for Inactive)
REMARK    1  A    between atoms: C1_15  and  O1_1 
REMARK    2  A    between atoms: C4_18  and  O1_1 
REMARK    3  A    between atoms: C13_27  and  O4_4 
REMARK    4  A    between atoms: C5_19  and  O4_4 
REMARK    5  A    between atoms: C2_16  and  O5_5 
REMARK    6  A    between atoms: C3_17  and  O6_6 
REMARK    7  A    between atoms: C6_20  and  O7_7 
REMARK    8  A    between atoms: C8_22  and  O8_8 
REMARK    9  A    between atoms: C9_23  and  O9_9 
REMARK   10  A    between atoms: C11_25  and  O10_10 
REMARK   11  A    between atoms: C19_33  and  O12_12 
REMARK   12  A    between atoms: C27_41  and  O14_14 
REMARK   13  A    between atoms: C11_25  and  C7_21 
REMARK   14  A    between atoms: C18_32  and  C22_36 
ROOT
HETATM    1  O2  UNK     1      18.756  -1.135  34.676  1.00  0.00    -0.348 OA
HETATM    2  C1  UNK     1      20.083  -2.796  35.850  1.00  0.00     0.211 C 
HETATM    3  C2  UNK     1      19.130  -2.717  37.044  1.00  0.00     0.183 C 
HETATM    4  C3  UNK     1      18.365  -1.395  37.054  1.00  0.00     0.180 C 
HETATM    5  C5  UNK     1      19.377  -2.413  34.550  1.00  0.00     0.298 C 
HETATM    6  C7  UNK     1      17.744  -1.115  35.684  1.00  0.00     0.179 C 
ENDROOT
BRANCH   5   7
HETATM    7  O4  UNK     1      20.357  -2.372  33.514  1.00  0.00    -0.318 OA
BRANCH   7   8
HETATM    8  C13 UNK     1      20.045  -1.639  32.407  1.00  0.00     0.077 A 
HETATM    9  C14 UNK     1      19.653  -0.307  32.541  1.00  0.00     0.074 A 
HETATM   10  C16 UNK     1      19.344   0.445  31.408  1.00  0.00     0.089 A 
HETATM   11  O11 UNK     1      18.972   1.749  31.616  1.00  0.00    -0.340 OA
HETATM   12  C17 UNK     1      19.396  -0.148  30.144  1.00  0.00     0.076 A 
HETATM   13  C18 UNK     1      19.197   2.585  30.470  1.00  0.00     0.169 C 
HETATM   14  C20 UNK     1      18.481   2.031  29.239  1.00  0.00     0.121 C 
HETATM   15  C21 UNK     1      18.986   0.639  28.961  1.00  0.00     0.167 C 
HETATM   16  O13 UNK     1      19.004   0.156  27.835  1.00  0.00    -0.292 OA
HETATM   17  C19 UNK     1      19.788  -1.482  30.006  1.00  0.00     0.085 A 
HETATM   18  C15 UNK     1      20.116  -2.224  31.142  1.00  0.00     0.074 A 
BRANCH  13  19
HETATM   19  C22 UNK     1      18.719   3.984  30.795  1.00  0.00    -0.028 A 
HETATM   20  C23 UNK     1      19.053   5.047  29.956  1.00  0.00     0.012 A 
HETATM   21  C25 UNK     1      18.613   6.336  30.257  1.00  0.00     0.037 A 
HETATM   22  C27 UNK     1      17.840   6.562  31.396  1.00  0.00     0.065 A 
HETATM   23  C26 UNK     1      17.508   5.498  32.235  1.00  0.00     0.037 A 
HETATM   24  C24 UNK     1      17.947   4.208  31.934  1.00  0.00     0.012 A 
BRANCH  22  25
HETATM   25  O14 UNK     1      17.411   7.820  31.688  1.00  0.00    -0.361 OA
HETATM   26  H32 UNK     1      18.158   8.334  32.039  1.00  0.00     0.217 HD
ENDBRANCH  22  25
ENDBRANCH  13  19
BRANCH  17  27
HETATM   27  O12 UNK     1      19.860  -2.107  28.798  1.00  0.00    -0.360 OA
HETATM   28  H29 UNK     1      19.227  -2.845  28.776  1.00  0.00     0.217 HD
ENDBRANCH  17  27
ENDBRANCH   7   8
ENDBRANCH   5   7
BRANCH   2  29
HETATM   29  O1  UNK     1      20.568  -4.132  35.719  1.00  0.00    -0.346 OA
BRANCH  29  30
HETATM   30  C4  UNK     1      19.611  -5.080  36.179  1.00  0.00     0.292 C 
HETATM   31  O3  UNK     1      19.879  -5.526  37.513  1.00  0.00    -0.351 OA
HETATM   32  C10 UNK     1      21.108  -6.246  37.655  1.00  0.00     0.152 C 
HETATM   33  C9  UNK     1      21.123  -7.494  36.762  1.00  0.00     0.178 C 
HETATM   34  C12 UNK     1      21.250  -6.598  39.133  1.00  0.00     0.042 C 
HETATM   35  C8  UNK     1      20.831  -7.106  35.312  1.00  0.00     0.183 C 
HETATM   36  C6  UNK     1      19.557  -6.266  35.216  1.00  0.00     0.204 C 
BRANCH  33  37
HETATM   37  O9  UNK     1      22.405  -8.116  36.805  1.00  0.00    -0.390 OA
HETATM   38  H20 UNK     1      23.030  -7.482  37.194  1.00  0.00     0.210 HD
ENDBRANCH  33  37
BRANCH  35  39
HETATM   39  O8  UNK     1      20.691  -8.289  34.529  1.00  0.00    -0.390 OA
HETATM   40  H19 UNK     1      20.654  -9.043  35.143  1.00  0.00     0.210 HD
ENDBRANCH  35  39
BRANCH  36  41
HETATM   41  O7  UNK     1      18.421  -7.060  35.567  1.00  0.00    -0.388 OA
HETATM   42  H18 UNK     1      17.759  -6.977  34.860  1.00  0.00     0.210 HD
ENDBRANCH  36  41
ENDBRANCH  29  30
ENDBRANCH   2  29
BRANCH   3  43
HETATM   43  O5  UNK     1      19.881  -2.803  38.257  1.00  0.00    -0.390 OA
HETATM   44  H16 UNK     1      20.468  -2.028  38.291  1.00  0.00     0.210 HD
ENDBRANCH   3  43
BRANCH   6  45
HETATM   45  C11 UNK     1      17.073   0.253  35.636  1.00  0.00     0.198 C 
BRANCH  45  46
HETATM   46  O10 UNK     1      16.625   0.490  34.313  1.00  0.00    -0.398 OA
HETATM   47  H21 UNK     1      15.908  -0.141  34.128  1.00  0.00     0.209 HD
ENDBRANCH  45  46
ENDBRANCH   6  45
BRANCH   4  48
HETATM   48  O6  UNK     1      17.333  -1.455  38.036  1.00  0.00    -0.390 OA
HETATM   49  H17 UNK     1      17.505  -0.761  38.695  1.00  0.00     0.210 HD
ENDBRANCH   4  48
TORSDOF 14
ENDMDL
MODEL 2
REMARK VINA RESULT:     -10.3      2.570     10.453
REMARK  14 active torsions:
REMARK  status: ('A' for Active; 'I' for Inactive)
REMARK    1  A    between atoms: C1_15  and  O1_1 
REMARK    2  A    between atoms: C4_18  and  O1_1 
REMARK    3  A    between atoms: C13_27  and  O4_4 
REMARK    4  A    between atoms: C5_19  and  O4_4 
REMARK    5  A    between atoms: C2_16  and  O5_5 
REMARK    6  A    between atoms: C3_17  and  O6_6 
REMARK    7  A    between atoms: C6_20  and  O7_7 
REMARK    8  A    between atoms: C8_22  and  O8_8 
REMARK    9  A    between atoms: C9_23  and  O9_9 
REMARK   10  A    between atoms: C11_25  and  O10_10 
REMARK   11  A    between atoms: C19_33  and  O12_12 
REMARK   12  A    between atoms: C27_41  and  O14_14 
REMARK   13  A    between atoms: C11_25  and  C7_21 
REMARK   14  A    between atoms: C18_32  and  C22_36 
ROOT
HETATM    1  O2  UNK     1      19.857   5.078  30.803  1.00  0.00    -0.348 OA
HETATM    2  C1  UNK     1      18.438   5.500  32.728  1.00  0.00     0.211 C 
HETATM    3  C2  UNK     1      19.468   6.492  33.273  1.00  0.00     0.183 C 
HETATM    4  C3  UNK     1      20.855   6.224  32.692  1.00  0.00     0.180 C 
HETATM    5  C5  UNK     1      18.525   5.389  31.207  1.00  0.00     0.298 C 
HETATM    6  C7  UNK     1      20.791   6.095  31.168  1.00  0.00     0.179 C 
ENDROOT
BRANCH   5   7
HETATM    7  O4  UNK     1      17.641   4.349  30.791  1.00  0.00    -0.318 OA
BRANCH   7   8
HETATM    8  C13 UNK     1      18.149   3.083  30.781  1.00  0.00     0.077 A 
HETATM    9  C14 UNK     1      18.325   2.394  31.980  1.00  0.00     0.074 A 
HETATM   10  C16 UNK     1      18.835   1.095  31.968  1.00  0.00     0.089 A 
HETATM   11  O11 UNK     1      18.975   0.476  33.184  1.00  0.00    -0.340 OA
HETATM   12  C17 UNK     1      19.199   0.503  30.756  1.00  0.00     0.076 A 
HETATM   13  C18 UNK     1      18.969  -0.957  33.087  1.00  0.00     0.169 C 
HETATM   14  C20 UNK     1      20.052  -1.446  32.127  1.00  0.00     0.121 C 
HETATM   15  C21 UNK     1      19.814  -0.842  30.767  1.00  0.00     0.167 C 
HETATM   16  O13 UNK     1      20.161  -1.396  29.730  1.00  0.00    -0.292 OA
HETATM   17  C19 UNK     1      19.024   1.191  29.552  1.00  0.00     0.085 A 
HETATM   18  C15 UNK     1      18.494   2.482  29.569  1.00  0.00     0.074 A 
BRANCH  13  19
HETATM   19  C22 UNK     1      19.167  -1.532  34.473  1.00  0.00    -0.028 A 
HETATM   20  C23 UNK     1      18.349  -1.119  35.523  1.00  0.00     0.012 A 
HETATM   21  C25 UNK     1      18.533  -1.649  36.800  1.00  0.00     0.037 A 
HETATM   22  C27 UNK     1      19.535  -2.591  37.026  1.00  0.00     0.065 A 
HETATM   23  C26 UNK     1      20.355  -3.004  35.975  1.00  0.00     0.037 A 
HETATM   24  C24 UNK     1      20.171  -2.474  34.698  1.00  0.00     0.012 A 
BRANCH  22  25
HETATM   25  O14 UNK     1      19.714  -3.109  38.273  1.00  0.00    -0.361 OA
HETATM   26  H32 UNK     1      20.078  -4.006  38.191  1.00  0.00     0.217 HD
ENDBRANCH  22  25
ENDBRANCH  13  19
BRANCH  17  27
HETATM   27  O12 UNK     1      19.358   0.658  28.344  1.00  0.00    -0.360 OA
HETATM   28  H29 UNK     1      19.426   1.368  27.684  1.00  0.00     0.217 HD
ENDBRANCH  17  27
ENDBRANCH   7   8
ENDBRANCH   5   7
BRANCH   2  29
HETATM   29  O1  UNK     1      17.126   5.945  33.071  1.00  0.00    -0.346 OA
BRANCH  29  30
HETATM   30  C4  UNK     1      16.655   6.930  32.158  1.00  0.00     0.292 C 
HETATM   31  O3  UNK     1      17.056   8.254  32.528  1.00  0.00    -0.351 OA
HETATM   32  C10 UNK     1      16.507   8.708  33.770  1.00  0.00     0.152 C 
HETATM   33  C9  UNK     1      14.972   8.707  33.727  1.00  0.00     0.178 C 
HETATM   34  C12 UNK     1      17.071  10.103  34.024  1.00  0.00     0.042 C 
HETATM   35  C8  UNK     1      14.459   7.324  33.326  1.00  0.00     0.183 C 
HETATM   36  C6  UNK     1      15.135   6.841  32.042  1.00  0.00     0.204 C 
BRANCH  33  37
HETATM   37  O9  UNK     1      14.444   9.020  35.014  1.00  0.00    -0.390 OA
HETATM   38  H20 UNK     1      15.088   9.587  35.470  1.00  0.00     0.210 HD
ENDBRANCH  33  37
BRANCH  35  39
HETATM   39  O8  UNK     1      13.047   7.384  33.138  1.00  0.00    -0.390 OA
HETATM   40  H19 UNK     1      12.727   6.472  33.037  1.00  0.00     0.210 HD
ENDBRANCH  35  39
BRANCH  36  41
HETATM   41  O7  UNK     1      14.734   7.660  30.942  1.00  0.00    -0.388 OA
HETATM   42  H18 UNK     1      14.657   7.098  30.152  1.00  0.00     0.210 HD
ENDBRANCH  36  41
ENDBRANCH  29  30
ENDBRANCH   2  29
BRANCH   3  43
HETATM   43  O5  UNK     1      19.550   6.360  34.693  1.00  0.00    -0.390 OA
HETATM   44  H16 UNK     1      19.212   5.477  34.922  1.00  0.00     0.210 HD
ENDBRANCH   3  43
BRANCH   6  45
HETATM   45  C11 UNK     1      22.143   5.712  30.576  1.00  0.00     0.198 C 
BRANCH  45  46
HETATM   46  O10 UNK     1      22.992   5.287  31.627  1.00  0.00    -0.398 OA
HETATM   47  H21 UNK     1      23.753   4.832  31.225  1.00  0.00     0.209 HD
ENDBRANCH  45  46
ENDBRANCH   6  45
BRANCH   4  48
HETATM   48  O6  UNK     1      21.727   7.297  33.038  1.00  0.00    -0.390 OA
HETATM   49  H17 UNK     1      22.633   6.949  33.073  1.00  0.00     0.210 HD
ENDBRANCH   4  48
TORSDOF 14
ENDMDL
MODEL 3
REMARK VINA RESULT:     -10.2     11.835     16.101
REMARK  14 active torsions:
REMARK  status: ('A' for Active; 'I' for Inactive)
REMARK    1  A    between atoms: C1_15  and  O1_1 
REMARK    2  A    between atoms: C4_18  and  O1_1 
REMARK    3  A    between atoms: C13_27  and  O4_4 
REMARK    4  A    between atoms: C5_19  and  O4_4 
REMARK    5  A    between atoms: C2_16  and  O5_5 
REMARK    6  A    between atoms: C3_17  and  O6_6 
REMARK    7  A    between atoms: C6_20  and  O7_7 
REMARK    8  A    between atoms: C8_22  and  O8_8 
REMARK    9  A    between atoms: C9_23  and  O9_9 
REMARK   10  A    between atoms: C11_25  and  O10_10 
REMARK   11  A    between atoms: C19_33  and  O12_12 
REMARK   12  A    between atoms: C27_41  and  O14_14 
REMARK   13  A    between atoms: C11_25  and  C7_21 
REMARK   14  A    between atoms: C18_32  and  C22_36 
ROOT
HETATM    1  O2  UNK     1      34.513  -6.980  33.274  1.00  0.00    -0.348 OA
HETATM    2  C1  UNK     1      33.569  -8.087  31.330  1.00  0.00     0.211 C 
HETATM    3  C2  UNK     1      34.764  -9.042  31.290  1.00  0.00     0.183 C 
HETATM    4  C3  UNK     1      35.973  -8.445  32.009  1.00  0.00     0.180 C 
HETATM    5  C5  UNK     1      33.325  -7.562  32.744  1.00  0.00     0.298 C 
HETATM    6  C7  UNK     1      35.580  -7.923  33.393  1.00  0.00     0.179 C 
ENDROOT
BRANCH   5   7
HETATM    7  O4  UNK     1      32.295  -6.577  32.674  1.00  0.00    -0.318 OA
BRANCH   7   8
HETATM    8  C13 UNK     1      31.798  -6.128  33.862  1.00  0.00     0.077 A 
HETATM    9  C14 UNK     1      30.975  -6.953  34.628  1.00  0.00     0.074 A 
HETATM   10  C16 UNK     1      30.476  -6.498  35.849  1.00  0.00     0.089 A 
HETATM   11  O11 UNK     1      29.678  -7.365  36.552  1.00  0.00    -0.340 OA
HETATM   12  C17 UNK     1      30.777  -5.204  36.284  1.00  0.00     0.076 A 
HETATM   13  C18 UNK     1      29.655  -7.088  37.960  1.00  0.00     0.169 C 
HETATM   14  C20 UNK     1      29.218  -5.648  38.228  1.00  0.00     0.121 C 
HETATM   15  C21 UNK     1      30.174  -4.709  37.540  1.00  0.00     0.167 C 
HETATM   16  O13 UNK     1      30.400  -3.577  37.954  1.00  0.00    -0.292 OA
HETATM   17  C19 UNK     1      31.602  -4.376  35.519  1.00  0.00     0.085 A 
HETATM   18  C15 UNK     1      32.114  -4.844  34.308  1.00  0.00     0.074 A 
BRANCH  13  19
HETATM   19  C22 UNK     1      28.720  -8.074  38.627  1.00  0.00    -0.028 A 
HETATM   20  C23 UNK     1      29.200  -9.313  39.050  1.00  0.00     0.012 A 
HETATM   21  C25 UNK     1      28.338 -10.221  39.664  1.00  0.00     0.037 A 
HETATM   22  C27 UNK     1      26.996  -9.891  39.854  1.00  0.00     0.065 A 
HETATM   23  C26 UNK     1      26.516  -8.652  39.430  1.00  0.00     0.037 A 
HETATM   24  C24 UNK     1      27.378  -7.743  38.816  1.00  0.00     0.012 A 
BRANCH  22  25
HETATM   25  O14 UNK     1      26.155 -10.778  40.453  1.00  0.00    -0.361 OA
HETATM   26  H32 UNK     1      25.283 -10.722  40.028  1.00  0.00     0.217 HD
ENDBRANCH  22  25
ENDBRANCH  13  19
BRANCH  17  27
HETATM   27  O12 UNK     1      31.929  -3.110  35.899  1.00  0.00    -0.360 OA
HETATM   28  H29 UNK     1      31.159  -2.527  35.787  1.00  0.00     0.217 HD
ENDBRANCH  17  27
ENDBRANCH   7   8
ENDBRANCH   5   7
BRANCH   2  29
HETATM   29  O1  UNK     1      32.397  -8.779  30.900  1.00  0.00    -0.346 OA
BRANCH  29  30
HETATM   30  C4  UNK     1      31.971  -8.334  29.617  1.00  0.00     0.292 C 
HETATM   31  O3  UNK     1      30.989  -7.295  29.697  1.00  0.00    -0.351 OA
HETATM   32  C10 UNK     1      29.755  -7.698  30.300  1.00  0.00     0.152 C 
HETATM   33  C9  UNK     1      29.113  -8.854  29.520  1.00  0.00     0.178 C 
HETATM   34  C12 UNK     1      28.855  -6.467  30.342  1.00  0.00     0.042 C 
HETATM   35  C8  UNK     1      30.105 -10.008  29.378  1.00  0.00     0.183 C 
HETATM   36  C6  UNK     1      31.438  -9.517  28.811  1.00  0.00     0.204 C 
BRANCH  33  37
HETATM   37  O9  UNK     1      27.965  -9.338  30.213  1.00  0.00    -0.390 OA
HETATM   38  H20 UNK     1      27.218  -9.331  29.592  1.00  0.00     0.210 HD
ENDBRANCH  33  37
BRANCH  35  39
HETATM   39  O8  UNK     1      29.550 -11.001  28.520  1.00  0.00    -0.390 OA
HETATM   40  H19 UNK     1      29.390 -10.585  27.656  1.00  0.00     0.210 HD
ENDBRANCH  35  39
BRANCH  36  41
HETATM   41  O7  UNK     1      31.263  -9.081  27.461  1.00  0.00    -0.388 OA
HETATM   42  H18 UNK     1      30.443  -9.473  27.117  1.00  0.00     0.210 HD
ENDBRANCH  36  41
ENDBRANCH  29  30
ENDBRANCH   2  29
BRANCH   3  43
HETATM   43  O5  UNK     1      35.134  -9.285  29.931  1.00  0.00    -0.390 OA
HETATM   44  H16 UNK     1      36.009  -9.709  29.940  1.00  0.00     0.210 HD
ENDBRANCH   3  43
BRANCH   6  45
HETATM   45  C11 UNK     1      36.743  -7.218  34.083  1.00  0.00     0.198 C 
BRANCH  45  46
HETATM   46  O10 UNK     1      37.348  -8.124  34.988  1.00  0.00    -0.398 OA
HETATM   47  H21 UNK     1      38.016  -7.632  35.495  1.00  0.00     0.209 HD
ENDBRANCH  45  46
ENDBRANCH   6  45
BRANCH   4  48
HETATM   48  O6  UNK     1      36.978  -9.445  32.151  1.00  0.00    -0.390 OA
HETATM   49  H17 UNK     1      36.546 -10.267  32.437  1.00  0.00     0.210 HD
ENDBRANCH   4  48
TORSDOF 14
ENDMDL
MODEL 4
REMARK VINA RESULT:      -9.9     12.120     16.140
REMARK  14 active torsions:
REMARK  status: ('A' for Active; 'I' for Inactive)
REMARK    1  A    between atoms: C1_15  and  O1_1 
REMARK    2  A    between atoms: C4_18  and  O1_1 
REMARK    3  A    between atoms: C13_27  and  O4_4 
REMARK    4  A    between atoms: C5_19  and  O4_4 
REMARK    5  A    between atoms: C2_16  and  O5_5 
REMARK    6  A    between atoms: C3_17  and  O6_6 
REMARK    7  A    between atoms: C6_20  and  O7_7 
REMARK    8  A    between atoms: C8_22  and  O8_8 
REMARK    9  A    between atoms: C9_23  and  O9_9 
REMARK   10  A    between atoms: C11_25  and  O10_10 
REMARK   11  A    between atoms: C19_33  and  O12_12 
REMARK   12  A    between atoms: C27_41  and  O14_14 
REMARK   13  A    between atoms: C11_25  and  C7_21 
REMARK   14  A    between atoms: C18_32  and  C22_36 
ROOT
HETATM    1  O2  UNK     1      34.595  -7.664  33.187  1.00  0.00    -0.348 OA
HETATM    2  C1  UNK     1      33.197  -8.575  31.423  1.00  0.00     0.211 C 
HETATM    3  C2  UNK     1      34.065  -9.834  31.382  1.00  0.00     0.183 C 
HETATM    4  C3  UNK     1      35.456  -9.566  31.955  1.00  0.00     0.180 C 
HETATM    5  C5  UNK     1      33.246  -7.912  32.799  1.00  0.00     0.298 C 
HETATM    6  C7  UNK     1      35.359  -8.865  33.312  1.00  0.00     0.179 C 
ENDROOT
BRANCH   5   7
HETATM    7  O4  UNK     1      32.534  -6.677  32.717  1.00  0.00    -0.318 OA
BRANCH   7   8
HETATM    8  C13 UNK     1      31.998  -6.205  33.878  1.00  0.00     0.077 A 
HETATM    9  C14 UNK     1      31.160  -7.018  34.641  1.00  0.00     0.074 A 
HETATM   10  C16 UNK     1      30.620  -6.538  35.835  1.00  0.00     0.089 A 
HETATM   11  O11 UNK     1      29.810  -7.395  36.535  1.00  0.00    -0.340 OA
HETATM   12  C17 UNK     1      30.895  -5.231  36.245  1.00  0.00     0.076 A 
HETATM   13  C18 UNK     1      29.742  -7.083  37.934  1.00  0.00     0.169 C 
HETATM   14  C20 UNK     1      29.284  -5.642  38.152  1.00  0.00     0.121 C 
HETATM   15  C21 UNK     1      30.251  -4.710  37.470  1.00  0.00     0.167 C 
HETATM   16  O13 UNK     1      30.453  -3.566  37.862  1.00  0.00    -0.292 OA
HETATM   17  C19 UNK     1      31.735  -4.413  35.484  1.00  0.00     0.085 A 
HETATM   18  C15 UNK     1      32.288  -4.906  34.301  1.00  0.00     0.074 A 
BRANCH  13  19
HETATM   19  C22 UNK     1      28.797  -8.062  38.598  1.00  0.00    -0.028 A 
HETATM   20  C23 UNK     1      27.467  -7.705  38.821  1.00  0.00     0.012 A 
HETATM   21  C25 UNK     1      26.597  -8.607  39.434  1.00  0.00     0.037 A 
HETATM   22  C27 UNK     1      27.057  -9.864  39.824  1.00  0.00     0.065 A 
HETATM   23  C26 UNK     1      28.388 -10.220  39.602  1.00  0.00     0.037 A 
HETATM   24  C24 UNK     1      29.258  -9.318  38.989  1.00  0.00     0.012 A 
BRANCH  22  25
HETATM   25  O14 UNK     1      26.207 -10.744  40.422  1.00  0.00    -0.361 OA
HETATM   26  H32 UNK     1      25.866 -10.345  41.240  1.00  0.00     0.217 HD
ENDBRANCH  22  25
ENDBRANCH  13  19
BRANCH  17  27
HETATM   27  O12 UNK     1      32.039  -3.135  35.841  1.00  0.00    -0.360 OA
HETATM   28  H29 UNK     1      31.237  -2.586  35.799  1.00  0.00     0.217 HD
ENDBRANCH  17  27
ENDBRANCH   7   8
ENDBRANCH   5   7
BRANCH   2  29
HETATM   29  O1  UNK     1      31.842  -8.925  31.142  1.00  0.00    -0.346 OA
BRANCH  29  30
HETATM   30  C4  UNK     1      31.268  -8.051  30.177  1.00  0.00     0.292 C 
HETATM   31  O3  UNK     1      29.880  -7.802  30.422  1.00  0.00    -0.351 OA
HETATM   32  C10 UNK     1      29.047  -8.960  30.312  1.00  0.00     0.152 C 
HETATM   33  C9  UNK     1      29.143  -9.578  28.910  1.00  0.00     0.178 C 
HETATM   34  C12 UNK     1      27.624  -8.520  30.646  1.00  0.00     0.042 C 
HETATM   35  C8  UNK     1      30.604  -9.867  28.562  1.00  0.00     0.183 C 
HETATM   36  C6  UNK     1      31.473  -8.626  28.776  1.00  0.00     0.204 C 
BRANCH  33  37
HETATM   37  O9  UNK     1      28.424 -10.808  28.863  1.00  0.00    -0.390 OA
HETATM   38  H20 UNK     1      28.264 -11.093  29.777  1.00  0.00     0.210 HD
ENDBRANCH  33  37
BRANCH  35  39
HETATM   39  O8  UNK     1      30.688 -10.289  27.203  1.00  0.00    -0.390 OA
HETATM   40  H19 UNK     1      30.667  -9.491  26.648  1.00  0.00     0.210 HD
ENDBRANCH  35  39
BRANCH  36  41
HETATM   41  O7  UNK     1      31.116  -7.613  27.833  1.00  0.00    -0.388 OA
HETATM   42  H18 UNK     1      31.796  -7.588  27.138  1.00  0.00     0.210 HD
ENDBRANCH  36  41
ENDBRANCH  29  30
ENDBRANCH   2  29
BRANCH   3  43
HETATM   43  O5  UNK     1      34.220 -10.259  30.026  1.00  0.00    -0.390 OA
HETATM   44  H16 UNK     1      33.857  -9.558  29.459  1.00  0.00     0.210 HD
ENDBRANCH   3  43
BRANCH   6  45
HETATM   45  C11 UNK     1      36.733  -8.482  33.850  1.00  0.00     0.198 C 
BRANCH  45  46
HETATM   46  O10 UNK     1      37.395  -9.660  34.277  1.00  0.00    -0.398 OA
HETATM   47  H21 UNK     1      37.334  -9.697  35.247  1.00  0.00     0.209 HD
ENDBRANCH  45  46
ENDBRANCH   6  45
BRANCH   4  48
HETATM   48  O6  UNK     1      36.147 -10.802  32.111  1.00  0.00    -0.390 OA
HETATM   49  H17 UNK     1      35.840 -11.409  31.416  1.00  0.00     0.210 HD
ENDBRANCH   4  48
TORSDOF 14
ENDMDL
MODEL 5
REMARK VINA RESULT:      -9.8     11.125     16.106
REMARK  14 active torsions:
REMARK  status: ('A' for Active; 'I' for Inactive)
REMARK    1  A    between atoms: C1_15  and  O1_1 
REMARK    2  A    between atoms: C4_18  and  O1_1 
REMARK    3  A    between atoms: C13_27  and  O4_4 
REMARK    4  A    between atoms: C5_19  and  O4_4 
REMARK    5  A    between atoms: C2_16  and  O5_5 
REMARK    6  A    between atoms: C3_17  and  O6_6 
REMARK    7  A    between atoms: C6_20  and  O7_7 
REMARK    8  A    between atoms: C8_22  and  O8_8 
REMARK    9  A    between atoms: C9_23  and  O9_9 
REMARK   10  A    between atoms: C11_25  and  O10_10 
REMARK   11  A    between atoms: C19_33  and  O12_12 
REMARK   12  A    between atoms: C27_41  and  O14_14 
REMARK   13  A    between atoms: C11_25  and  C7_21 
REMARK   14  A    between atoms: C18_32  and  C22_36 
ROOT
HETATM    1  O2  UNK     1      32.153 -12.222  31.792  1.00  0.00    -0.348 OA
HETATM    2  C1  UNK     1      31.029 -10.293  30.839  1.00  0.00     0.211 C 
HETATM    3  C2  UNK     1      29.956 -11.208  30.246  1.00  0.00     0.183 C 
HETATM    4  C3  UNK     1      30.469 -12.639  30.099  1.00  0.00     0.180 C 
HETATM    5  C5  UNK     1      31.664 -10.915  32.082  1.00  0.00     0.298 C 
HETATM    6  C7  UNK     1      31.114 -13.121  31.400  1.00  0.00     0.179 C 
ENDROOT
BRANCH   5   7
HETATM    7  O4  UNK     1      32.744 -10.076  32.490  1.00  0.00    -0.318 OA
BRANCH   7   8
HETATM    8  C13 UNK     1      32.638  -9.501  33.722  1.00  0.00     0.077 A 
HETATM    9  C14 UNK     1      31.409  -9.485  34.380  1.00  0.00     0.074 A 
HETATM   10  C16 UNK     1      31.303  -8.907  35.645  1.00  0.00     0.089 A 
HETATM   11  O11 UNK     1      30.065  -8.933  36.234  1.00  0.00    -0.340 OA
HETATM   12  C17 UNK     1      32.424  -8.317  36.235  1.00  0.00     0.076 A 
HETATM   13  C18 UNK     1      30.124  -8.842  37.666  1.00  0.00     0.169 C 
HETATM   14  C20 UNK     1      30.882  -7.591  38.105  1.00  0.00     0.121 C 
HETATM   15  C21 UNK     1      32.277  -7.637  37.540  1.00  0.00     0.167 C 
HETATM   16  O13 UNK     1      33.230  -7.095  38.089  1.00  0.00    -0.292 OA
HETATM   17  C19 UNK     1      33.658  -8.331  35.579  1.00  0.00     0.085 A 
HETATM   18  C15 UNK     1      33.762  -8.930  34.322  1.00  0.00     0.074 A 
BRANCH  13  19
HETATM   19  C22 UNK     1      28.709  -8.841  38.205  1.00  0.00    -0.028 A 
HETATM   20  C23 UNK     1      28.310  -9.818  39.116  1.00  0.00     0.012 A 
HETATM   21  C25 UNK     1      27.006  -9.817  39.612  1.00  0.00     0.037 A 
HETATM   22  C27 UNK     1      26.103  -8.839  39.196  1.00  0.00     0.065 A 
HETATM   23  C26 UNK     1      26.503  -7.862  38.284  1.00  0.00     0.037 A 
HETATM   24  C24 UNK     1      27.807  -7.863  37.788  1.00  0.00     0.012 A 
BRANCH  22  25
HETATM   25  O14 UNK     1      24.830  -8.838  39.681  1.00  0.00    -0.361 OA
HETATM   26  H32 UNK     1      24.359  -8.067  39.324  1.00  0.00     0.217 HD
ENDBRANCH  22  25
ENDBRANCH  13  19
BRANCH  17  27
HETATM   27  O12 UNK     1      34.781  -7.775  36.111  1.00  0.00    -0.360 OA
HETATM   28  H29 UNK     1      35.519  -8.404  36.042  1.00  0.00     0.217 HD
ENDBRANCH  17  27
ENDBRANCH   7   8
ENDBRANCH   5   7
BRANCH   2  29
HETATM   29  O1  UNK     1      30.436  -9.049  31.214  1.00  0.00    -0.346 OA
BRANCH  29  30
HETATM   30  C4  UNK     1      31.093  -7.951  30.592  1.00  0.00     0.292 C 
HETATM   31  O3  UNK     1      31.698  -7.067  31.541  1.00  0.00    -0.351 OA
HETATM   32  C10 UNK     1      30.768  -6.409  32.407  1.00  0.00     0.152 C 
HETATM   33  C9  UNK     1      29.763  -5.572  31.602  1.00  0.00     0.178 C 
HETATM   34  C12 UNK     1      31.584  -5.552  33.370  1.00  0.00     0.042 C 
HETATM   35  C8  UNK     1      29.076  -6.444  30.551  1.00  0.00     0.183 C 
HETATM   36  C6  UNK     1      30.105  -7.195  29.705  1.00  0.00     0.204 C 
BRANCH  33  37
HETATM   37  O9  UNK     1      28.759  -5.044  32.466  1.00  0.00    -0.390 OA
HETATM   38  H20 UNK     1      28.210  -5.785  32.772  1.00  0.00     0.210 HD
ENDBRANCH  33  37
BRANCH  35  39
HETATM   39  O8  UNK     1      28.268  -5.620  29.714  1.00  0.00    -0.390 OA
HETATM   40  H19 UNK     1      28.122  -4.781  30.184  1.00  0.00     0.210 HD
ENDBRANCH  35  39
BRANCH  36  41
HETATM   41  O7  UNK     1      30.852  -6.270  28.912  1.00  0.00    -0.388 OA
HETATM   42  H18 UNK     1      31.716  -6.131  29.335  1.00  0.00     0.210 HD
ENDBRANCH  36  41
ENDBRANCH  29  30
ENDBRANCH   2  29
BRANCH   3  43
HETATM   43  O5  UNK     1      29.591 -10.733  28.948  1.00  0.00    -0.390 OA
HETATM   44  H16 UNK     1      30.116  -9.933  28.774  1.00  0.00     0.210 HD
ENDBRANCH   3  43
BRANCH   6  45
HETATM   45  C11 UNK     1      31.738 -14.504  31.243  1.00  0.00     0.198 C 
BRANCH  45  46
HETATM   46  O10 UNK     1      30.738 -15.480  31.478  1.00  0.00    -0.398 OA
HETATM   47  H21 UNK     1      31.186 -16.314  31.700  1.00  0.00     0.209 HD
ENDBRANCH  45  46
ENDBRANCH   6  45
BRANCH   4  48
HETATM   48  O6  UNK     1      29.381 -13.498  29.766  1.00  0.00    -0.390 OA
HETATM   49  H17 UNK     1      29.719 -14.199  29.183  1.00  0.00     0.210 HD
ENDBRANCH   4  48
TORSDOF 14
ENDMDL
MODEL 6
REMARK VINA RESULT:      -9.7     10.648     15.144
REMARK  14 active torsions:
REMARK  status: ('A' for Active; 'I' for Inactive)
REMARK    1  A    between atoms: C1_15  and  O1_1 
REMARK    2  A    between atoms: C4_18  and  O1_1 
REMARK    3  A    between atoms: C13_27  and  O4_4 
REMARK    4  A    between atoms: C5_19  and  O4_4 
REMARK    5  A    between atoms: C2_16  and  O5_5 
REMARK    6  A    between atoms: C3_17  and  O6_6 
REMARK    7  A    between atoms: C6_20  and  O7_7 
REMARK    8  A    between atoms: C8_22  and  O8_8 
REMARK    9  A    between atoms: C9_23  and  O9_9 
REMARK   10  A    between atoms: C11_25  and  O10_10 
REMARK   11  A    between atoms: C19_33  and  O12_12 
REMARK   12  A    between atoms: C27_41  and  O14_14 
REMARK   13  A    between atoms: C11_25  and  C7_21 
REMARK   14  A    between atoms: C18_32  and  C22_36 
ROOT
HETATM    1  O2  UNK     1      34.022  -6.339  34.475  1.00  0.00    -0.348 OA
HETATM    2  C1  UNK     1      32.772  -6.958  32.487  1.00  0.00     0.211 C 
HETATM    3  C2  UNK     1      33.846  -7.987  32.129  1.00  0.00     0.183 C 
HETATM    4  C3  UNK     1      35.178  -7.651  32.796  1.00  0.00     0.180 C 
HETATM    5  C5  UNK     1      32.730  -6.700  33.993  1.00  0.00     0.298 C 
HETATM    6  C7  UNK     1      34.986  -7.377  34.289  1.00  0.00     0.179 C 
ENDROOT
BRANCH   5   7
HETATM    7  O4  UNK     1      31.812  -5.634  34.230  1.00  0.00    -0.318 OA
BRANCH   7   8
HETATM    8  C13 UNK     1      30.960  -5.786  35.284  1.00  0.00     0.077 A 
HETATM    9  C14 UNK     1      29.867  -6.645  35.177  1.00  0.00     0.074 A 
HETATM   10  C16 UNK     1      29.001  -6.809  36.259  1.00  0.00     0.089 A 
HETATM   11  O11 UNK     1      27.951  -7.674  36.084  1.00  0.00    -0.340 OA
HETATM   12  C17 UNK     1      29.215  -6.085  37.436  1.00  0.00     0.076 A 
HETATM   13  C18 UNK     1      27.451  -8.205  37.321  1.00  0.00     0.169 C 
HETATM   14  C20 UNK     1      27.046  -7.083  38.275  1.00  0.00     0.121 C 
HETATM   15  C21 UNK     1      28.243  -6.208  38.543  1.00  0.00     0.167 C 
HETATM   16  O13 UNK     1      28.383  -5.584  39.588  1.00  0.00    -0.292 OA
HETATM   17  C19 UNK     1      30.309  -5.224  37.546  1.00  0.00     0.085 A 
HETATM   18  C15 UNK     1      31.183  -5.080  36.467  1.00  0.00     0.074 A 
BRANCH  13  19
HETATM   19  C22 UNK     1      26.277  -9.111  37.014  1.00  0.00    -0.028 A 
HETATM   20  C23 UNK     1      26.498 -10.383  36.488  1.00  0.00     0.012 A 
HETATM   21  C25 UNK     1      25.416 -11.217  36.204  1.00  0.00     0.037 A 
HETATM   22  C27 UNK     1      24.115 -10.778  36.447  1.00  0.00     0.065 A 
HETATM   23  C26 UNK     1      23.895  -9.504  36.973  1.00  0.00     0.037 A 
HETATM   24  C24 UNK     1      24.977  -8.670  37.256  1.00  0.00     0.012 A 
BRANCH  22  25
HETATM   25  O14 UNK     1      23.060 -11.592  36.171  1.00  0.00    -0.361 OA
HETATM   26  H32 UNK     1      23.307 -12.509  36.380  1.00  0.00     0.217 HD
ENDBRANCH  22  25
ENDBRANCH  13  19
BRANCH  17  27
HETATM   27  O12 UNK     1      30.566  -4.500  38.670  1.00  0.00    -0.360 OA
HETATM   28  H29 UNK     1      29.735  -4.132  39.017  1.00  0.00     0.217 HD
ENDBRANCH  17  27
ENDBRANCH   7   8
ENDBRANCH   5   7
BRANCH   2  29
HETATM   29  O1  UNK     1      31.494  -7.446  32.080  1.00  0.00    -0.346 OA
BRANCH  29  30
HETATM   30  C4  UNK     1      30.918  -6.621  31.074  1.00  0.00     0.292 C 
HETATM   31  O3  UNK     1      29.609  -6.160  31.428  1.00  0.00    -0.351 OA
HETATM   32  C10 UNK     1      28.635  -7.201  31.557  1.00  0.00     0.152 C 
HETATM   33  C9  UNK     1      28.487  -7.983  30.245  1.00  0.00     0.178 C 
HETATM   34  C12 UNK     1      27.327  -6.538  31.978  1.00  0.00     0.042 C 
HETATM   35  C8  UNK     1      29.850  -8.504  29.787  1.00  0.00     0.183 C 
HETATM   36  C6  UNK     1      30.882  -7.376  29.746  1.00  0.00     0.204 C 
BRANCH  33  37
HETATM   37  O9  UNK     1      27.625  -9.103  30.433  1.00  0.00    -0.390 OA
HETATM   38  H20 UNK     1      26.822  -8.951  29.908  1.00  0.00     0.210 HD
ENDBRANCH  33  37
BRANCH  35  39
HETATM   39  O8  UNK     1      29.719  -9.088  28.494  1.00  0.00    -0.390 OA
HETATM   40  H19 UNK     1      28.870  -9.563  28.473  1.00  0.00     0.210 HD
ENDBRANCH  35  39
BRANCH  36  41
HETATM   41  O7  UNK     1      30.539  -6.439  28.723  1.00  0.00    -0.388 OA
HETATM   42  H18 UNK     1      30.044  -6.909  28.030  1.00  0.00     0.210 HD
ENDBRANCH  36  41
ENDBRANCH  29  30
ENDBRANCH   2  29
BRANCH   3  43
HETATM   43  O5  UNK     1      34.048  -7.990  30.714  1.00  0.00    -0.390 OA
HETATM   44  H16 UNK     1      34.870  -7.502  30.538  1.00  0.00     0.210 HD
ENDBRANCH   3  43
BRANCH   6  45
HETATM   45  C11 UNK     1      36.282  -6.926  34.953  1.00  0.00     0.198 C 
BRANCH  45  46
HETATM   46  O10 UNK     1      37.047  -8.073  35.277  1.00  0.00    -0.398 OA
HETATM   47  H21 UNK     1      37.942  -7.774  35.514  1.00  0.00     0.209 HD
ENDBRANCH  45  46
ENDBRANCH   6  45
BRANCH   4  48
HETATM   48  O6  UNK     1      36.078  -8.744  32.629  1.00  0.00    -0.390 OA
HETATM   49  H17 UNK     1      35.632  -9.550  32.939  1.00  0.00     0.210 HD
ENDBRANCH   4  48
TORSDOF 14
ENDMDL
MODEL 7
REMARK VINA RESULT:      -9.6     11.985     16.610
REMARK  14 active torsions:
REMARK  status: ('A' for Active; 'I' for Inactive)
REMARK    1  A    between atoms: C1_15  and  O1_1 
REMARK    2  A    between atoms: C4_18  and  O1_1 
REMARK    3  A    between atoms: C13_27  and  O4_4 
REMARK    4  A    between atoms: C5_19  and  O4_4 
REMARK    5  A    between atoms: C2_16  and  O5_5 
REMARK    6  A    between atoms: C3_17  and  O6_6 
REMARK    7  A    between atoms: C6_20  and  O7_7 
REMARK    8  A    between atoms: C8_22  and  O8_8 
REMARK    9  A    between atoms: C9_23  and  O9_9 
REMARK   10  A    between atoms: C11_25  and  O10_10 
REMARK   11  A    between atoms: C19_33  and  O12_12 
REMARK   12  A    between atoms: C27_41  and  O14_14 
REMARK   13  A    between atoms: C11_25  and  C7_21 
REMARK   14  A    between atoms: C18_32  and  C22_36 
ROOT
HETATM    1  O2  UNK     1      35.002  -9.970  32.390  1.00  0.00    -0.348 OA
HETATM    2  C1  UNK     1      33.233 -10.366  30.775  1.00  0.00     0.211 C 
HETATM    3  C2  UNK     1      33.546 -11.864  30.795  1.00  0.00     0.183 C 
HETATM    4  C3  UNK     1      34.972 -12.124  31.277  1.00  0.00     0.180 C 
HETATM    5  C5  UNK     1      33.636  -9.697  32.088  1.00  0.00     0.298 C 
HETATM    6  C7  UNK     1      35.254 -11.364  32.576  1.00  0.00     0.179 C 
ENDROOT
BRANCH   5   7
HETATM    7  O4  UNK     1      33.447  -8.290  31.940  1.00  0.00    -0.318 OA
BRANCH   7   8
HETATM    8  C13 UNK     1      33.102  -7.600  33.064  1.00  0.00     0.077 A 
HETATM    9  C14 UNK     1      32.005  -8.007  33.822  1.00  0.00     0.074 A 
HETATM   10  C16 UNK     1      31.658  -7.307  34.979  1.00  0.00     0.089 A 
HETATM   11  O11 UNK     1      30.571  -7.768  35.677  1.00  0.00    -0.340 OA
HETATM   12  C17 UNK     1      32.393  -6.179  35.354  1.00  0.00     0.076 A 
HETATM   13  C18 UNK     1      30.594  -7.390  37.062  1.00  0.00     0.169 C 
HETATM   14  C20 UNK     1      30.704  -5.874  37.214  1.00  0.00     0.121 C 
HETATM   15  C21 UNK     1      31.963  -5.401  36.536  1.00  0.00     0.167 C 
HETATM   16  O13 UNK     1      32.570  -4.398  36.896  1.00  0.00    -0.292 OA
HETATM   17  C19 UNK     1      33.493  -5.768  34.597  1.00  0.00     0.085 A 
HETATM   18  C15 UNK     1      33.847  -6.485  33.453  1.00  0.00     0.074 A 
BRANCH  13  19
HETATM   19  C22 UNK     1      29.338  -7.915  37.723  1.00  0.00    -0.028 A 
HETATM   20  C23 UNK     1      28.813  -7.263  38.839  1.00  0.00     0.012 A 
HETATM   21  C25 UNK     1      27.656  -7.748  39.449  1.00  0.00     0.037 A 
HETATM   22  C27 UNK     1      27.025  -8.885  38.944  1.00  0.00     0.065 A 
HETATM   23  C26 UNK     1      27.552  -9.537  37.828  1.00  0.00     0.037 A 
HETATM   24  C24 UNK     1      28.709  -9.052  37.218  1.00  0.00     0.012 A 
BRANCH  22  25
HETATM   25  O14 UNK     1      25.896  -9.357  39.539  1.00  0.00    -0.361 OA
HETATM   26  H32 UNK     1      25.123  -9.048  39.038  1.00  0.00     0.217 HD
ENDBRANCH  22  25
ENDBRANCH  13  19
BRANCH  17  27
HETATM   27  O12 UNK     1      34.245  -4.680  34.922  1.00  0.00    -0.360 OA
HETATM   28  H29 UNK     1      35.187  -4.917  34.895  1.00  0.00     0.217 HD
ENDBRANCH  17  27
ENDBRANCH   7   8
ENDBRANCH   5   7
BRANCH   2  29
HETATM   29  O1  UNK     1      31.830 -10.179  30.589  1.00  0.00    -0.346 OA
BRANCH  29  30
HETATM   30  C4  UNK     1      31.544  -9.624  29.311  1.00  0.00     0.292 C 
HETATM   31  O3  UNK     1      30.983  -8.310  29.398  1.00  0.00    -0.351 OA
HETATM   32  C10 UNK     1      29.705  -8.259  30.040  1.00  0.00     0.152 C 
HETATM   33  C9  UNK     1      28.680  -9.128  29.298  1.00  0.00     0.178 C 
HETATM   34  C12 UNK     1      29.285  -6.792  30.085  1.00  0.00     0.042 C 
HETATM   35  C8  UNK     1      29.209 -10.555  29.150  1.00  0.00     0.183 C 
HETATM   36  C6  UNK     1      30.612 -10.557  28.540  1.00  0.00     0.204 C 
BRANCH  33  37
HETATM   37  O9  UNK     1      27.457  -9.182  30.030  1.00  0.00    -0.390 OA
HETATM   38  H20 UNK     1      27.459 -10.003  30.549  1.00  0.00     0.210 HD
ENDBRANCH  33  37
BRANCH  35  39
HETATM   39  O8  UNK     1      28.320 -11.302  28.325  1.00  0.00    -0.390 OA
HETATM   40  H19 UNK     1      28.781 -12.116  28.061  1.00  0.00     0.210 HD
ENDBRANCH  35  39
BRANCH  36  41
HETATM   41  O7  UNK     1      30.556 -10.097  27.188  1.00  0.00    -0.388 OA
HETATM   42  H18 UNK     1      31.466  -9.961  26.873  1.00  0.00     0.210 HD
ENDBRANCH  36  41
ENDBRANCH  29  30
ENDBRANCH   2  29
BRANCH   3  43
HETATM   43  O5  UNK     1      33.423 -12.392  29.473  1.00  0.00    -0.390 OA
HETATM   44  H16 UNK     1      32.810 -13.146  29.518  1.00  0.00     0.210 HD
ENDBRANCH   3  43
BRANCH   6  45
HETATM   45  C11 UNK     1      36.707 -11.515  33.015  1.00  0.00     0.198 C 
BRANCH  45  46
HETATM   46  O10 UNK     1      36.818 -12.676  33.818  1.00  0.00    -0.398 OA
HETATM   47  H21 UNK     1      36.107 -12.644  34.481  1.00  0.00     0.209 HD
ENDBRANCH  45  46
ENDBRANCH   6  45
BRANCH   4  48
HETATM   48  O6  UNK     1      35.147 -13.521  31.501  1.00  0.00    -0.390 OA
HETATM   49  H17 UNK     1      34.279 -13.901  31.715  1.00  0.00     0.210 HD
ENDBRANCH   4  48
TORSDOF 14
ENDMDL
MODEL 8
REMARK VINA RESULT:      -9.6     13.436     17.641
REMARK  14 active torsions:
REMARK  status: ('A' for Active; 'I' for Inactive)
REMARK    1  A    between atoms: C1_15  and  O1_1 
REMARK    2  A    between atoms: C4_18  and  O1_1 
REMARK    3  A    between atoms: C13_27  and  O4_4 
REMARK    4  A    between atoms: C5_19  and  O4_4 
REMARK    5  A    between atoms: C2_16  and  O5_5 
REMARK    6  A    between atoms: C3_17  and  O6_6 
REMARK    7  A    between atoms: C6_20  and  O7_7 
REMARK    8  A    between atoms: C8_22  and  O8_8 
REMARK    9  A    between atoms: C9_23  and  O9_9 
REMARK   10  A    between atoms: C11_25  and  O10_10 
REMARK   11  A    between atoms: C19_33  and  O12_12 
REMARK   12  A    between atoms: C27_41  and  O14_14 
REMARK   13  A    between atoms: C11_25  and  C7_21 
REMARK   14  A    between atoms: C18_32  and  C22_36 
ROOT
HETATM    1  O2  UNK     1      33.919 -13.584  32.807  1.00  0.00    -0.348 OA
HETATM    2  C1  UNK     1      32.237 -12.666  31.315  1.00  0.00     0.211 C 
HETATM    3  C2  UNK     1      31.193 -13.617  31.903  1.00  0.00     0.183 C 
HETATM    4  C3  UNK     1      31.854 -14.829  32.556  1.00  0.00     0.180 C 
HETATM    5  C5  UNK     1      33.348 -12.371  32.321  1.00  0.00     0.298 C 
HETATM    6  C7  UNK     1      32.972 -14.393  33.506  1.00  0.00     0.179 C 
ENDROOT
BRANCH   5   7
HETATM    7  O4  UNK     1      34.349 -11.600  31.656  1.00  0.00    -0.318 OA
BRANCH   7   8
HETATM    8  C13 UNK     1      34.893 -10.568  32.362  1.00  0.00     0.077 A 
HETATM    9  C14 UNK     1      34.063  -9.617  32.956  1.00  0.00     0.074 A 
HETATM   10  C16 UNK     1      34.619  -8.567  33.688  1.00  0.00     0.089 A 
HETATM   11  O11 UNK     1      33.743  -7.672  34.248  1.00  0.00    -0.340 OA
HETATM   12  C17 UNK     1      36.008  -8.454  33.795  1.00  0.00     0.076 A 
HETATM   13  C18 UNK     1      34.293  -6.985  35.381  1.00  0.00     0.169 C 
HETATM   14  C20 UNK     1      35.595  -6.275  35.012  1.00  0.00     0.121 C 
HETATM   15  C21 UNK     1      36.584  -7.292  34.505  1.00  0.00     0.167 C 
HETATM   16  O13 UNK     1      37.796  -7.145  34.613  1.00  0.00    -0.292 OA
HETATM   17  C19 UNK     1      36.842  -9.406  33.202  1.00  0.00     0.085 A 
HETATM   18  C15 UNK     1      36.279 -10.465  32.489  1.00  0.00     0.074 A 
BRANCH  13  19
HETATM   19  C22 UNK     1      33.262  -6.002  35.893  1.00  0.00    -0.028 A 
HETATM   20  C23 UNK     1      32.131  -6.465  36.564  1.00  0.00     0.012 A 
HETATM   21  C25 UNK     1      31.180  -5.559  37.034  1.00  0.00     0.037 A 
HETATM   22  C27 UNK     1      31.361  -4.191  36.833  1.00  0.00     0.065 A 
HETATM   23  C26 UNK     1      32.493  -3.728  36.161  1.00  0.00     0.037 A 
HETATM   24  C24 UNK     1      33.443  -4.634  35.691  1.00  0.00     0.012 A 
BRANCH  22  25
HETATM   25  O14 UNK     1      30.433  -3.307  37.293  1.00  0.00    -0.361 OA
HETATM   26  H32 UNK     1      29.743  -3.796  37.771  1.00  0.00     0.217 HD
ENDBRANCH  22  25
ENDBRANCH  13  19
BRANCH  17  27
HETATM   27  O12 UNK     1      38.200  -9.346  33.281  1.00  0.00    -0.360 OA
HETATM   28  H29 UNK     1      38.591  -9.951  32.628  1.00  0.00     0.217 HD
ENDBRANCH  17  27
ENDBRANCH   7   8
ENDBRANCH   5   7
BRANCH   2  29
HETATM   29  O1  UNK     1      31.610 -11.432  30.965  1.00  0.00    -0.346 OA
BRANCH  29  30
HETATM   30  C4  UNK     1      31.735 -11.161  29.574  1.00  0.00     0.292 C 
HETATM   31  O3  UNK     1      32.747 -10.187  29.296  1.00  0.00    -0.351 OA
HETATM   32  C10 UNK     1      32.475  -8.888  29.833  1.00  0.00     0.152 C 
HETATM   33  C9  UNK     1      31.159  -8.327  29.278  1.00  0.00     0.178 C 
HETATM   34  C12 UNK     1      33.668  -8.002  29.483  1.00  0.00     0.042 C 
HETATM   35  C8  UNK     1      30.020  -9.317  29.524  1.00  0.00     0.183 C 
HETATM   36  C6  UNK     1      30.387 -10.711  29.013  1.00  0.00     0.204 C 
BRANCH  33  37
HETATM   37  O9  UNK     1      30.831  -7.102  29.931  1.00  0.00    -0.390 OA
HETATM   38  H20 UNK     1      31.658  -6.707  30.254  1.00  0.00     0.210 HD
ENDBRANCH  33  37
BRANCH  35  39
HETATM   39  O8  UNK     1      28.844  -8.853  28.865  1.00  0.00    -0.390 OA
HETATM   40  H19 UNK     1      29.122  -8.430  28.035  1.00  0.00     0.210 HD
ENDBRANCH  35  39
BRANCH  36  41
HETATM   41  O7  UNK     1      30.492 -10.696  27.588  1.00  0.00    -0.388 OA
HETATM   42  H18 UNK     1      31.428 -10.805  27.349  1.00  0.00     0.210 HD
ENDBRANCH  36  41
ENDBRANCH  29  30
ENDBRANCH   2  29
BRANCH   3  43
HETATM   43  O5  UNK     1      30.338 -14.088  30.860  1.00  0.00    -0.390 OA
HETATM   44  H16 UNK     1      29.510 -13.581  30.911  1.00  0.00     0.210 HD
ENDBRANCH   3  43
BRANCH   6  45
HETATM   45  C11 UNK     1      33.724 -15.589  34.081  1.00  0.00     0.198 C 
BRANCH  45  46
HETATM   46  O10 UNK     1      34.291 -15.211  35.323  1.00  0.00    -0.398 OA
HETATM   47  H21 UNK     1      34.008 -15.863  35.987  1.00  0.00     0.209 HD
ENDBRANCH  45  46
ENDBRANCH   6  45
BRANCH   4  48
HETATM   48  O6  UNK     1      30.875 -15.565  33.286  1.00  0.00    -0.390 OA
HETATM   49  H17 UNK     1      31.338 -16.111  33.944  1.00  0.00     0.210 HD
ENDBRANCH   4  48
TORSDOF 14
ENDMDL
MODEL 9
REMARK VINA RESULT:      -9.6     11.282     16.108
REMARK  14 active torsions:
REMARK  status: ('A' for Active; 'I' for Inactive)
REMARK    1  A    between atoms: C1_15  and  O1_1 
REMARK    2  A    between atoms: C4_18  and  O1_1 
REMARK    3  A    between atoms: C13_27  and  O4_4 
REMARK    4  A    between atoms: C5_19  and  O4_4 
REMARK    5  A    between atoms: C2_16  and  O5_5 
REMARK    6  A    between atoms: C3_17  and  O6_6 
REMARK    7  A    between atoms: C6_20  and  O7_7 
REMARK    8  A    between atoms: C8_22  and  O8_8 
REMARK    9  A    between atoms: C9_23  and  O9_9 
REMARK   10  A    between atoms: C11_25  and  O10_10 
REMARK   11  A    between atoms: C19_33  and  O12_12 
REMARK   12  A    between atoms: C27_41  and  O14_14 
REMARK   13  A    between atoms: C11_25  and  C7_21 
REMARK   14  A    between atoms: C18_32  and  C22_36 
ROOT
HETATM    1  O2  UNK     1      33.251 -12.289  32.857  1.00  0.00    -0.348 OA
HETATM    2  C1  UNK     1      31.460 -11.232  31.605  1.00  0.00     0.211 C 
HETATM    3  C2  UNK     1      30.592 -12.479  31.790  1.00  0.00     0.183 C 
HETATM    4  C3  UNK     1      31.448 -13.710  32.080  1.00  0.00     0.180 C 
HETATM    5  C5  UNK     1      32.482 -11.096  32.732  1.00  0.00     0.298 C 
HETATM    6  C7  UNK     1      32.452 -13.423  33.199  1.00  0.00     0.179 C 
ENDROOT
BRANCH   5   7
HETATM    7  O4  UNK     1      33.340 -10.000  32.416  1.00  0.00    -0.318 OA
BRANCH   7   8
HETATM    8  C13 UNK     1      33.561  -9.092  33.409  1.00  0.00     0.077 A 
HETATM    9  C14 UNK     1      32.481  -8.487  34.051  1.00  0.00     0.074 A 
HETATM   10  C16 UNK     1      32.707  -7.565  35.074  1.00  0.00     0.089 A 
HETATM   11  O11 UNK     1      31.598  -7.014  35.665  1.00  0.00    -0.340 OA
HETATM   12  C17 UNK     1      34.016  -7.228  35.429  1.00  0.00     0.076 A 
HETATM   13  C18 UNK     1      31.851  -6.537  36.995  1.00  0.00     0.169 C 
HETATM   14  C20 UNK     1      32.999  -5.530  37.007  1.00  0.00     0.121 C 
HETATM   15  C21 UNK     1      34.238  -6.190  36.459  1.00  0.00     0.167 C 
HETATM   16  O13 UNK     1      35.368  -5.853  36.793  1.00  0.00    -0.292 OA
HETATM   17  C19 UNK     1      35.100  -7.833  34.788  1.00  0.00     0.085 A 
HETATM   18  C15 UNK     1      34.867  -8.769  33.779  1.00  0.00     0.074 A 
BRANCH  13  19
HETATM   19  C22 UNK     1      30.578  -5.919  37.533  1.00  0.00    -0.028 A 
HETATM   20  C23 UNK     1      29.361  -6.581  37.375  1.00  0.00     0.012 A 
HETATM   21  C25 UNK     1      28.188  -6.011  37.869  1.00  0.00     0.037 A 
HETATM   22  C27 UNK     1      28.233  -4.779  38.521  1.00  0.00     0.065 A 
HETATM   23  C26 UNK     1      29.451  -4.116  38.678  1.00  0.00     0.037 A 
HETATM   24  C24 UNK     1      30.624  -4.687  38.183  1.00  0.00     0.012 A 
BRANCH  22  25
HETATM   25  O14 UNK     1      27.088  -4.222  39.004  1.00  0.00    -0.361 OA
HETATM   26  H32 UNK     1      26.723  -4.803  39.693  1.00  0.00     0.217 HD
ENDBRANCH  22  25
ENDBRANCH  13  19
BRANCH  17  27
HETATM   27  O12 UNK     1      36.394  -7.543  35.098  1.00  0.00    -0.360 OA
HETATM   28  H29 UNK     1      36.497  -6.582  35.196  1.00  0.00     0.217 HD
ENDBRANCH  17  27
ENDBRANCH   7   8
ENDBRANCH   5   7
BRANCH   2  29
HETATM   29  O1  UNK     1      30.628 -10.072  31.611  1.00  0.00    -0.346 OA
BRANCH  29  30
HETATM   30  C4  UNK     1      30.855  -9.264  30.462  1.00  0.00     0.292 C 
HETATM   31  O3  UNK     1      30.641  -7.872  30.721  1.00  0.00    -0.351 OA
HETATM   32  C10 UNK     1      29.291  -7.539  31.061  1.00  0.00     0.152 C 
HETATM   33  C9  UNK     1      28.326  -7.931  29.934  1.00  0.00     0.178 C 
HETATM   34  C12 UNK     1      29.260  -6.040  31.346  1.00  0.00     0.042 C 
HETATM   35  C8  UNK     1      28.499  -9.409  29.584  1.00  0.00     0.183 C 
HETATM   36  C6  UNK     1      29.967  -9.740  29.313  1.00  0.00     0.204 C 
BRANCH  33  37
HETATM   37  O9  UNK     1      26.977  -7.727  30.347  1.00  0.00    -0.390 OA
HETATM   38  H20 UNK     1      26.851  -8.195  31.190  1.00  0.00     0.210 HD
ENDBRANCH  33  37
BRANCH  35  39
HETATM   39  O8  UNK     1      27.713  -9.715  28.436  1.00  0.00    -0.390 OA
HETATM   40  H19 UNK     1      28.207  -9.413  27.655  1.00  0.00     0.210 HD
ENDBRANCH  35  39
BRANCH  36  41
HETATM   41  O7  UNK     1      30.404  -9.079  28.123  1.00  0.00    -0.388 OA
HETATM   42  H18 UNK     1      30.765  -8.210  28.370  1.00  0.00     0.210 HD
ENDBRANCH  36  41
ENDBRANCH  29  30
ENDBRANCH   2  29
BRANCH   3  43
HETATM   43  O5  UNK     1      29.854 -12.726  30.591  1.00  0.00    -0.390 OA
HETATM   44  H16 UNK     1      29.745 -13.689  30.511  1.00  0.00     0.210 HD
ENDBRANCH   3  43
BRANCH   6  45
HETATM   45  C11 UNK     1      33.395 -14.599  33.427  1.00  0.00     0.198 C 
BRANCH  45  46
HETATM   46  O10 UNK     1      33.647 -14.713  34.817  1.00  0.00    -0.398 OA
HETATM   47  H21 UNK     1      32.975 -15.309  35.190  1.00  0.00     0.209 HD
ENDBRANCH  45  46
ENDBRANCH   6  45
BRANCH   4  48
HETATM   48  O6  UNK     1      30.603 -14.790  32.471  1.00  0.00    -0.390 OA
HETATM   49  H17 UNK     1      30.704 -14.919  33.429  1.00  0.00     0.210 HD
ENDBRANCH   4  48
TORSDOF 14
ENDMDL
MODEL 10
REMARK VINA RESULT:      -9.5     10.081     15.529
REMARK  14 active torsions:
REMARK  status: ('A' for Active; 'I' for Inactive)
REMARK    1  A    between atoms: C1_15  and  O1_1 
REMARK    2  A    between atoms: C4_18  and  O1_1 
REMARK    3  A    between atoms: C13_27  and  O4_4 
REMARK    4  A    between atoms: C5_19  and  O4_4 
REMARK    5  A    between atoms: C2_16  and  O5_5 
REMARK    6  A    between atoms: C3_17  and  O6_6 
REMARK    7  A    between atoms: C6_20  and  O7_7 
REMARK    8  A    between atoms: C8_22  and  O8_8 
REMARK    9  A    between atoms: C9_23  and  O9_9 
REMARK   10  A    between atoms: C11_25  and  O10_10 
REMARK   11  A    between atoms: C19_33  and  O12_12 
REMARK   12  A    between atoms: C27_41  and  O14_14 
REMARK   13  A    between atoms: C11_25  and  C7_21 
REMARK   14  A    between atoms: C18_32  and  C22_36 
ROOT
HETATM    1  O2  UNK     1      33.091  -7.235  35.690  1.00  0.00    -0.348 OA
HETATM    2  C1  UNK     1      33.253  -8.066  33.414  1.00  0.00     0.211 C 
HETATM    3  C2  UNK     1      34.775  -7.929  33.469  1.00  0.00     0.183 C 
HETATM    4  C3  UNK     1      35.202  -6.924  34.539  1.00  0.00     0.180 C 
HETATM    5  C5  UNK     1      32.663  -8.271  34.809  1.00  0.00     0.298 C 
HETATM    6  C7  UNK     1      34.508  -7.221  35.871  1.00  0.00     0.179 C 
ENDROOT
BRANCH   5   7
HETATM    7  O4  UNK     1      31.241  -8.246  34.692  1.00  0.00    -0.318 OA
BRANCH   7   8
HETATM    8  C13 UNK     1      30.532  -8.672  35.777  1.00  0.00     0.077 A 
HETATM    9  C14 UNK     1      29.191  -8.316  35.915  1.00  0.00     0.074 A 
HETATM   10  C16 UNK     1      28.463  -8.761  37.019  1.00  0.00     0.089 A 
HETATM   11  O11 UNK     1      27.148  -8.377  37.087  1.00  0.00    -0.340 OA
HETATM   12  C17 UNK     1      29.090  -9.534  38.000  1.00  0.00     0.076 A 
HETATM   13  C18 UNK     1      26.347  -9.261  37.885  1.00  0.00     0.169 C 
HETATM   14  C20 UNK     1      26.920  -9.398  39.294  1.00  0.00     0.121 C 
HETATM   15  C21 UNK     1      28.328  -9.928  39.204  1.00  0.00     0.167 C 
HETATM   16  O13 UNK     1      28.840 -10.595  40.095  1.00  0.00    -0.292 OA
HETATM   17  C19 UNK     1      30.434  -9.892  37.864  1.00  0.00     0.085 A 
HETATM   18  C15 UNK     1      31.151  -9.462  36.747  1.00  0.00     0.074 A 
BRANCH  13  19
HETATM   19  C22 UNK     1      24.931  -8.725  37.922  1.00  0.00    -0.028 A 
HETATM   20  C23 UNK     1      24.561  -7.804  38.901  1.00  0.00     0.012 A 
HETATM   21  C25 UNK     1      23.256  -7.311  38.936  1.00  0.00     0.037 A 
HETATM   22  C27 UNK     1      22.323  -7.740  37.992  1.00  0.00     0.065 A 
HETATM   23  C26 UNK     1      22.695  -8.663  37.013  1.00  0.00     0.037 A 
HETATM   24  C24 UNK     1      23.999  -9.156  36.979  1.00  0.00     0.012 A 
BRANCH  22  25
HETATM   25  O14 UNK     1      21.051  -7.258  38.026  1.00  0.00    -0.361 OA
HETATM   26  H32 UNK     1      21.021  -6.488  38.618  1.00  0.00     0.217 HD
ENDBRANCH  22  25
ENDBRANCH  13  19
BRANCH  17  27
HETATM   27  O12 UNK     1      31.092 -10.647  38.787  1.00  0.00    -0.360 OA
HETATM   28  H29 UNK     1      31.158 -11.563  38.469  1.00  0.00     0.217 HD
ENDBRANCH  17  27
ENDBRANCH   7   8
ENDBRANCH   5   7
BRANCH   2  29
HETATM   29  O1  UNK     1      32.908  -9.195  32.612  1.00  0.00    -0.346 OA
BRANCH  29  30
HETATM   30  C4  UNK     1      32.548  -8.805  31.292  1.00  0.00     0.292 C 
HETATM   31  O3  UNK     1      31.151  -8.519  31.167  1.00  0.00    -0.351 OA
HETATM   32  C10 UNK     1      30.299  -9.646  31.391  1.00  0.00     0.152 C 
HETATM   33  C9  UNK     1      30.607 -10.776  30.398  1.00  0.00     0.178 C 
HETATM   34  C12 UNK     1      28.861  -9.151  31.264  1.00  0.00     0.042 C 
HETATM   35  C8  UNK     1      32.091 -11.138  30.458  1.00  0.00     0.183 C 
HETATM   36  C6  UNK     1      32.965  -9.892  30.302  1.00  0.00     0.204 C 
BRANCH  33  37
HETATM   37  O9  UNK     1      29.853 -11.940  30.726  1.00  0.00    -0.390 OA
HETATM   38  H20 UNK     1      29.277 -12.144  29.971  1.00  0.00     0.210 HD
ENDBRANCH  33  37
BRANCH  35  39
HETATM   39  O8  UNK     1      32.389 -12.072  29.423  1.00  0.00    -0.390 OA
HETATM   40  H19 UNK     1      31.545 -12.339  29.020  1.00  0.00     0.210 HD
ENDBRANCH  35  39
BRANCH  36  41
HETATM   41  O7  UNK     1      32.821  -9.358  28.984  1.00  0.00    -0.388 OA
HETATM   42  H18 UNK     1      32.269  -9.967  28.465  1.00  0.00     0.210 HD
ENDBRANCH  36  41
ENDBRANCH  29  30
ENDBRANCH   2  29
BRANCH   3  43
HETATM   43  O5  UNK     1      35.256  -7.462  32.208  1.00  0.00    -0.390 OA
HETATM   44  H16 UNK     1      34.484  -7.344  31.628  1.00  0.00     0.210 HD
ENDBRANCH   3  43
BRANCH   6  45
HETATM   45  C11 UNK     1      34.828  -6.163  36.922  1.00  0.00     0.198 C 
BRANCH  45  46
HETATM   46  O10 UNK     1      34.596  -6.718  38.205  1.00  0.00    -0.398 OA
HETATM   47  H21 UNK     1      34.353  -5.989  38.801  1.00  0.00     0.209 HD
ENDBRANCH  45  46
ENDBRANCH   6  45
BRANCH   4  48
HETATM   48  O6  UNK     1      36.614  -6.996  34.716  1.00  0.00    -0.390 OA
HETATM   49  H17 UNK     1      36.985  -7.504  33.975  1.00  0.00     0.210 HD
ENDBRANCH   4  48
TORSDOF 14
ENDMDL
