MODEL 1
REMARK VINA RESULT:      -8.7      0.000      0.000
REMARK  4 active torsions:
REMARK  status: ('A' for Active; 'I' for Inactive)
REMARK    1  A    between atoms: C11_13  and  O1_1 
REMARK    2  A    between atoms: C1_3  and  C8_10 
REMARK    3  A    between atoms: C3_5  and  C9_11 
REMARK    4  A    between atoms: C10_12  and  C9_11 
ROOT
HETATM    1  O2  UNK     1      18.059   2.148  28.213  1.00  0.00    -0.287 OA
HETATM    2  C9  UNK     1      18.490   1.916  29.337  1.00  0.00     0.184 C 
ENDROOT
BRANCH   2   3
HETATM    3  C10 UNK     1      18.297   2.852  30.480  1.00  0.00     0.056 C 
HETATM    4  C8  UNK     1      18.990   4.011  30.537  1.00  0.00     0.015 C 
BRANCH   4   5
HETATM    5  C1  UNK     1      18.898   4.991  31.608  1.00  0.00    -0.036 A 
HETATM    6  C4  UNK     1      17.793   4.991  32.460  1.00  0.00     0.012 A 
HETATM    7  C6  UNK     1      17.704   5.931  33.486  1.00  0.00     0.007 A 
HETATM    8  C2  UNK     1      18.721   6.870  33.662  1.00  0.00    -0.062 A 
HETATM    9  C13 UNK     1      18.625   7.875  34.761  1.00  0.00     0.048 C 
HETATM   10  C7  UNK     1      19.825   6.870  32.811  1.00  0.00     0.007 A 
HETATM   11  C5  UNK     1      19.914   5.931  31.784  1.00  0.00     0.012 A 
ENDBRANCH   4   5
ENDBRANCH   2   3
BRANCH   2  12
HETATM   12  C3  UNK     1      19.265   0.676  29.586  1.00  0.00     0.047 A 
HETATM   13  C11 UNK     1      19.352  -0.291  28.604  1.00  0.00     0.079 A 
HETATM   14  C14 UNK     1      20.086  -1.450  28.858  1.00  0.00     0.037 A 
HETATM   15  C16 UNK     1      20.718  -1.619  30.090  1.00  0.00     0.003 A 
HETATM   16  C15 UNK     1      20.616  -0.629  31.068  1.00  0.00     0.001 A 
HETATM   17  C12 UNK     1      19.883   0.529  30.813  1.00  0.00     0.018 A 
BRANCH  13  18
HETATM   18  O1  UNK     1      18.742  -0.145  27.395  1.00  0.00    -0.360 OA
HETATM   19  H14 UNK     1      17.784  -0.265  27.505  1.00  0.00     0.217 HD
ENDBRANCH  13  18
ENDBRANCH   2  12
TORSDOF 4
ENDMDL
MODEL 2
REMARK VINA RESULT:      -8.5      1.338      1.797
REMARK  4 active torsions:
REMARK  status: ('A' for Active; 'I' for Inactive)
REMARK    1  A    between atoms: C11_13  and  O1_1 
REMARK    2  A    between atoms: C1_3  and  C8_10 
REMARK    3  A    between atoms: C3_5  and  C9_11 
REMARK    4  A    between atoms: C10_12  and  C9_11 
ROOT
HETATM    1  O2  UNK     1      17.456   2.002  29.321  1.00  0.00    -0.287 OA
HETATM    2  C9  UNK     1      18.454   1.942  30.029  1.00  0.00     0.184 C 
ENDROOT
BRANCH   2   3
HETATM    3  C10 UNK     1      18.974   3.117  30.784  1.00  0.00     0.056 C 
HETATM    4  C8  UNK     1      18.133   3.891  31.505  1.00  0.00     0.015 C 
BRANCH   4   5
HETATM    5  C1  UNK     1      18.523   5.069  32.265  1.00  0.00    -0.036 A 
HETATM    6  C4  UNK     1      17.673   5.578  33.247  1.00  0.00     0.012 A 
HETATM    7  C6  UNK     1      18.046   6.707  33.976  1.00  0.00     0.007 A 
HETATM    8  C2  UNK     1      19.269   7.327  33.722  1.00  0.00    -0.062 A 
HETATM    9  C13 UNK     1      19.668   8.535  34.502  1.00  0.00     0.048 C 
HETATM   10  C7  UNK     1      20.119   6.819  32.740  1.00  0.00     0.007 A 
HETATM   11  C5  UNK     1      19.746   5.690  32.011  1.00  0.00     0.012 A 
ENDBRANCH   4   5
ENDBRANCH   2   3
BRANCH   2  12
HETATM   12  C3  UNK     1      19.210   0.670  30.130  1.00  0.00     0.047 A 
HETATM   13  C11 UNK     1      19.335   0.038  31.352  1.00  0.00     0.079 A 
HETATM   14  C14 UNK     1      20.049  -1.158  31.426  1.00  0.00     0.037 A 
HETATM   15  C16 UNK     1      20.625  -1.698  30.276  1.00  0.00     0.003 A 
HETATM   16  C15 UNK     1      20.487  -1.043  29.053  1.00  0.00     0.001 A 
HETATM   17  C12 UNK     1      19.773   0.153  28.979  1.00  0.00     0.018 A 
BRANCH  13  18
HETATM   18  O1  UNK     1      18.780   0.550  32.486  1.00  0.00    -0.360 OA
HETATM   19  H14 UNK     1      19.476   0.670  33.155  1.00  0.00     0.217 HD
ENDBRANCH  13  18
ENDBRANCH   2  12
TORSDOF 4
ENDMDL
MODEL 3
REMARK VINA RESULT:      -7.8      2.056      3.120
REMARK  4 active torsions:
REMARK  status: ('A' for Active; 'I' for Inactive)
REMARK    1  A    between atoms: C11_13  and  O1_1 
REMARK    2  A    between atoms: C1_3  and  C8_10 
REMARK    3  A    between atoms: C3_5  and  C9_11 
REMARK    4  A    between atoms: C10_12  and  C9_11 
ROOT
HETATM    1  O2  UNK     1      17.827   1.947  33.209  1.00  0.00    -0.287 OA
HETATM    2  C9  UNK     1      18.159   2.597  32.224  1.00  0.00     0.184 C 
ENDROOT
BRANCH   2   3
HETATM    3  C10 UNK     1      18.255   4.084  32.239  1.00  0.00     0.056 C 
HETATM    4  C8  UNK     1      18.262   4.756  33.412  1.00  0.00     0.015 C 
BRANCH   4   5
HETATM    5  C1  UNK     1      18.334   6.203  33.549  1.00  0.00    -0.036 A 
HETATM    6  C4  UNK     1      19.411   6.788  34.215  1.00  0.00     0.012 A 
HETATM    7  C6  UNK     1      19.479   8.174  34.347  1.00  0.00     0.007 A 
HETATM    8  C2  UNK     1      18.471   8.976  33.811  1.00  0.00    -0.062 A 
HETATM    9  C13 UNK     1      18.546  10.460  33.951  1.00  0.00     0.048 C 
HETATM   10  C7  UNK     1      17.395   8.391  33.145  1.00  0.00     0.007 A 
HETATM   11  C5  UNK     1      17.325   7.005  33.014  1.00  0.00     0.012 A 
ENDBRANCH   4   5
ENDBRANCH   2   3
BRANCH   2  12
HETATM   12  C3  UNK     1      18.452   1.901  30.948  1.00  0.00     0.047 A 
HETATM   13  C11 UNK     1      19.222   0.754  30.949  1.00  0.00     0.079 A 
HETATM   14  C14 UNK     1      19.486   0.114  29.738  1.00  0.00     0.037 A 
HETATM   15  C16 UNK     1      18.976   0.635  28.549  1.00  0.00     0.003 A 
HETATM   16  C15 UNK     1      18.201   1.795  28.571  1.00  0.00     0.001 A 
HETATM   17  C12 UNK     1      17.937   2.434  29.782  1.00  0.00     0.018 A 
BRANCH  13  18
HETATM   18  O1  UNK     1      19.730   0.231  32.100  1.00  0.00    -0.360 OA
HETATM   19  H14 UNK     1      19.513   0.821  32.841  1.00  0.00     0.217 HD
ENDBRANCH  13  18
ENDBRANCH   2  12
TORSDOF 4
ENDMDL
MODEL 4
REMARK VINA RESULT:      -7.8      2.284      7.168
REMARK  4 active torsions:
REMARK  status: ('A' for Active; 'I' for Inactive)
REMARK    1  A    between atoms: C11_13  and  O1_1 
REMARK    2  A    between atoms: C1_3  and  C8_10 
REMARK    3  A    between atoms: C3_5  and  C9_11 
REMARK    4  A    between atoms: C10_12  and  C9_11 
ROOT
HETATM    1  O2  UNK     1      18.725   6.480  29.652  1.00  0.00    -0.287 OA
HETATM    2  C9  UNK     1      18.621   5.814  30.675  1.00  0.00     0.184 C 
ENDROOT
BRANCH   2   3
HETATM    3  C10 UNK     1      19.171   4.434  30.794  1.00  0.00     0.056 C 
HETATM    4  C8  UNK     1      18.528   3.392  30.222  1.00  0.00     0.015 C 
BRANCH   4   5
HETATM    5  C1  UNK     1      18.960   2.004  30.287  1.00  0.00    -0.036 A 
HETATM    6  C4  UNK     1      19.342   1.338  29.122  1.00  0.00     0.012 A 
HETATM    7  C6  UNK     1      19.755   0.007  29.184  1.00  0.00     0.007 A 
HETATM    8  C2  UNK     1      19.787  -0.657  30.410  1.00  0.00    -0.062 A 
HETATM    9  C13 UNK     1      20.230  -2.080  30.475  1.00  0.00     0.048 C 
HETATM   10  C7  UNK     1      19.404   0.009  31.574  1.00  0.00     0.007 A 
HETATM   11  C5  UNK     1      18.990   1.339  31.513  1.00  0.00     0.012 A 
ENDBRANCH   4   5
ENDBRANCH   2   3
BRANCH   2  12
HETATM   12  C3  UNK     1      17.896   6.369  31.844  1.00  0.00     0.047 A 
HETATM   13  C11 UNK     1      17.012   7.417  31.673  1.00  0.00     0.079 A 
HETATM   14  C14 UNK     1      16.340   7.925  32.785  1.00  0.00     0.037 A 
HETATM   15  C16 UNK     1      16.566   7.374  34.047  1.00  0.00     0.003 A 
HETATM   16  C15 UNK     1      17.463   6.317  34.197  1.00  0.00     0.001 A 
HETATM   17  C12 UNK     1      18.135   5.810  33.085  1.00  0.00     0.018 A 
BRANCH  13  18
HETATM   18  O1  UNK     1      16.779   7.968  30.449  1.00  0.00    -0.360 OA
HETATM   19  H14 UNK     1      16.506   8.894  30.564  1.00  0.00     0.217 HD
ENDBRANCH  13  18
ENDBRANCH   2  12
TORSDOF 4
ENDMDL
MODEL 5
REMARK VINA RESULT:      -7.6     22.538     24.146
REMARK  4 active torsions:
REMARK  status: ('A' for Active; 'I' for Inactive)
REMARK    1  A    between atoms: C11_13  and  O1_1 
REMARK    2  A    between atoms: C1_3  and  C8_10 
REMARK    3  A    between atoms: C3_5  and  C9_11 
REMARK    4  A    between atoms: C10_12  and  C9_11 
ROOT
HETATM    1  O2  UNK     1      12.680   4.218   8.335  1.00  0.00    -0.287 OA
HETATM    2  C9  UNK     1      12.489   5.376   7.981  1.00  0.00     0.184 C 
ENDROOT
BRANCH   2   3
HETATM    3  C10 UNK     1      13.558   6.414   8.020  1.00  0.00     0.056 C 
HETATM    4  C8  UNK     1      13.954   6.940   9.200  1.00  0.00     0.015 C 
BRANCH   4   5
HETATM    5  C1  UNK     1      14.972   7.968   9.360  1.00  0.00    -0.036 A 
HETATM    6  C4  UNK     1      16.154   7.678  10.041  1.00  0.00     0.012 A 
HETATM    7  C6  UNK     1      17.129   8.664  10.195  1.00  0.00     0.007 A 
HETATM    8  C2  UNK     1      16.922   9.938   9.666  1.00  0.00    -0.062 A 
HETATM    9  C13 UNK     1      17.967  10.991   9.830  1.00  0.00     0.048 C 
HETATM   10  C7  UNK     1      15.741  10.227   8.985  1.00  0.00     0.007 A 
HETATM   11  C5  UNK     1      14.765   9.243   8.832  1.00  0.00     0.012 A 
ENDBRANCH   4   5
ENDBRANCH   2   3
BRANCH   2  12
HETATM   12  C3  UNK     1      11.142   5.792   7.521  1.00  0.00     0.047 A 
HETATM   13  C11 UNK     1      10.938   6.121   6.194  1.00  0.00     0.079 A 
HETATM   14  C14 UNK     1       9.664   6.510   5.782  1.00  0.00     0.037 A 
HETATM   15  C16 UNK     1       8.618   6.564   6.704  1.00  0.00     0.003 A 
HETATM   16  C15 UNK     1       8.847   6.228   8.038  1.00  0.00     0.001 A 
HETATM   17  C12 UNK     1      10.122   5.839   8.451  1.00  0.00     0.018 A 
BRANCH  13  18
HETATM   18  O1  UNK     1      11.946   6.076   5.279  1.00  0.00    -0.360 OA
HETATM   19  H14 UNK     1      11.937   5.209   4.839  1.00  0.00     0.217 HD
ENDBRANCH  13  18
ENDBRANCH   2  12
TORSDOF 4
ENDMDL
MODEL 6
REMARK VINA RESULT:      -7.6      2.412      7.455
REMARK  4 active torsions:
REMARK  status: ('A' for Active; 'I' for Inactive)
REMARK    1  A    between atoms: C11_13  and  O1_1 
REMARK    2  A    between atoms: C1_3  and  C8_10 
REMARK    3  A    between atoms: C3_5  and  C9_11 
REMARK    4  A    between atoms: C10_12  and  C9_11 
ROOT
HETATM    1  O2  UNK     1      16.450   5.563  31.970  1.00  0.00    -0.287 OA
HETATM    2  C9  UNK     1      17.584   5.329  32.374  1.00  0.00     0.184 C 
ENDROOT
BRANCH   2   3
HETATM    3  C10 UNK     1      18.263   4.022  32.149  1.00  0.00     0.056 C 
HETATM    4  C8  UNK     1      18.100   3.361  30.981  1.00  0.00     0.015 C 
BRANCH   4   5
HETATM    5  C1  UNK     1      18.697   2.074  30.656  1.00  0.00    -0.036 A 
HETATM    6  C4  UNK     1      18.921   1.726  29.324  1.00  0.00     0.012 A 
HETATM    7  C6  UNK     1      19.493   0.492  29.013  1.00  0.00     0.007 A 
HETATM    8  C2  UNK     1      19.841  -0.392  30.034  1.00  0.00    -0.062 A 
HETATM    9  C13 UNK     1      20.453  -1.712  29.700  1.00  0.00     0.048 C 
HETATM   10  C7  UNK     1      19.616  -0.044  31.365  1.00  0.00     0.007 A 
HETATM   11  C5  UNK     1      19.044   1.189  31.677  1.00  0.00     0.012 A 
ENDBRANCH   4   5
ENDBRANCH   2   3
BRANCH   2  12
HETATM   12  C3  UNK     1      18.317   6.362  33.145  1.00  0.00     0.047 A 
HETATM   13  C11 UNK     1      17.658   7.098  34.111  1.00  0.00     0.079 A 
HETATM   14  C14 UNK     1      18.366   8.065  34.826  1.00  0.00     0.037 A 
HETATM   15  C16 UNK     1      19.719   8.276  34.561  1.00  0.00     0.003 A 
HETATM   16  C15 UNK     1      20.364   7.521  33.581  1.00  0.00     0.001 A 
HETATM   17  C12 UNK     1      19.657   6.555  32.866  1.00  0.00     0.018 A 
BRANCH  13  18
HETATM   18  O1  UNK     1      16.337   6.907  34.384  1.00  0.00    -0.360 OA
HETATM   19  H14 UNK     1      16.086   6.005  34.123  1.00  0.00     0.217 HD
ENDBRANCH  13  18
ENDBRANCH   2  12
TORSDOF 4
ENDMDL
MODEL 7
REMARK VINA RESULT:      -7.6     22.430     24.072
REMARK  4 active torsions:
REMARK  status: ('A' for Active; 'I' for Inactive)
REMARK    1  A    between atoms: C11_13  and  O1_1 
REMARK    2  A    between atoms: C1_3  and  C8_10 
REMARK    3  A    between atoms: C3_5  and  C9_11 
REMARK    4  A    between atoms: C10_12  and  C9_11 
ROOT
HETATM    1  O2  UNK     1      12.615   4.248   8.278  1.00  0.00    -0.287 OA
HETATM    2  C9  UNK     1      12.424   5.403   7.915  1.00  0.00     0.184 C 
ENDROOT
BRANCH   2   3
HETATM    3  C10 UNK     1      13.489   6.444   7.956  1.00  0.00     0.056 C 
HETATM    4  C8  UNK     1      13.926   6.927   9.140  1.00  0.00     0.015 C 
BRANCH   4   5
HETATM    5  C1  UNK     1      14.944   7.954   9.302  1.00  0.00    -0.036 A 
HETATM    6  C4  UNK     1      14.749   9.223   8.757  1.00  0.00     0.012 A 
HETATM    7  C6  UNK     1      15.725  10.206   8.912  1.00  0.00     0.007 A 
HETATM    8  C2  UNK     1      16.897   9.921   9.613  1.00  0.00    -0.062 A 
HETATM    9  C13 UNK     1      17.941  10.974   9.779  1.00  0.00     0.048 C 
HETATM   10  C7  UNK     1      17.092   8.652  10.158  1.00  0.00     0.007 A 
HETATM   11  C5  UNK     1      16.117   7.668  10.002  1.00  0.00     0.012 A 
ENDBRANCH   4   5
ENDBRANCH   2   3
BRANCH   2  12
HETATM   12  C3  UNK     1      11.079   5.812   7.443  1.00  0.00     0.047 A 
HETATM   13  C11 UNK     1      10.024   5.873   8.333  1.00  0.00     0.079 A 
HETATM   14  C14 UNK     1       8.767   6.260   7.869  1.00  0.00     0.037 A 
HETATM   15  C16 UNK     1       8.589   6.578   6.522  1.00  0.00     0.003 A 
HETATM   16  C15 UNK     1       9.667   6.509   5.641  1.00  0.00     0.001 A 
HETATM   17  C12 UNK     1      10.924   6.122   6.105  1.00  0.00     0.018 A 
BRANCH  13  18
HETATM   18  O1  UNK     1      10.178   5.566   9.652  1.00  0.00    -0.360 OA
HETATM   19  H14 UNK     1      10.023   4.614   9.777  1.00  0.00     0.217 HD
ENDBRANCH  13  18
ENDBRANCH   2  12
TORSDOF 4
ENDMDL
MODEL 8
REMARK VINA RESULT:      -7.6     22.426     24.072
REMARK  4 active torsions:
REMARK  status: ('A' for Active; 'I' for Inactive)
REMARK    1  A    between atoms: C11_13  and  O1_1 
REMARK    2  A    between atoms: C1_3  and  C8_10 
REMARK    3  A    between atoms: C3_5  and  C9_11 
REMARK    4  A    between atoms: C10_12  and  C9_11 
ROOT
HETATM    1  O2  UNK     1      12.609   4.251   8.275  1.00  0.00    -0.287 OA
HETATM    2  C9  UNK     1      12.413   5.406   7.916  1.00  0.00     0.184 C 
ENDROOT
BRANCH   2   3
HETATM    3  C10 UNK     1      13.476   6.451   7.956  1.00  0.00     0.056 C 
HETATM    4  C8  UNK     1      13.934   6.912   9.140  1.00  0.00     0.015 C 
BRANCH   4   5
HETATM    5  C1  UNK     1      14.952   7.939   9.302  1.00  0.00    -0.036 A 
HETATM    6  C4  UNK     1      16.125   7.655  10.003  1.00  0.00     0.012 A 
HETATM    7  C6  UNK     1      17.100   8.639  10.158  1.00  0.00     0.007 A 
HETATM    8  C2  UNK     1      16.904   9.908   9.612  1.00  0.00    -0.062 A 
HETATM    9  C13 UNK     1      17.948  10.960   9.778  1.00  0.00     0.048 C 
HETATM   10  C7  UNK     1      15.732  10.192   8.912  1.00  0.00     0.007 A 
HETATM   11  C5  UNK     1      14.756   9.208   8.757  1.00  0.00     0.012 A 
ENDBRANCH   4   5
ENDBRANCH   2   3
BRANCH   2  12
HETATM   12  C3  UNK     1      11.066   5.812   7.449  1.00  0.00     0.047 A 
HETATM   13  C11 UNK     1      10.014   5.869   8.343  1.00  0.00     0.079 A 
HETATM   14  C14 UNK     1       8.754   6.253   7.884  1.00  0.00     0.037 A 
HETATM   15  C16 UNK     1       8.571   6.573   6.538  1.00  0.00     0.003 A 
HETATM   16  C15 UNK     1       9.646   6.509   5.653  1.00  0.00     0.001 A 
HETATM   17  C12 UNK     1      10.906   6.124   6.112  1.00  0.00     0.018 A 
BRANCH  13  18
HETATM   18  O1  UNK     1      10.173   5.560   9.660  1.00  0.00    -0.360 OA
HETATM   19  H14 UNK     1      10.347   4.607   9.744  1.00  0.00     0.217 HD
ENDBRANCH  13  18
ENDBRANCH   2  12
TORSDOF 4
ENDMDL
MODEL 9
REMARK VINA RESULT:      -7.5      7.643     10.726
REMARK  4 active torsions:
REMARK  status: ('A' for Active; 'I' for Inactive)
REMARK    1  A    between atoms: C11_13  and  O1_1 
REMARK    2  A    between atoms: C1_3  and  C8_10 
REMARK    3  A    between atoms: C3_5  and  C9_11 
REMARK    4  A    between atoms: C10_12  and  C9_11 
ROOT
HETATM    1  O2  UNK     1      20.004  -1.362  35.003  1.00  0.00    -0.287 OA
HETATM    2  C9  UNK     1      19.180  -1.631  35.869  1.00  0.00     0.184 C 
ENDROOT
BRANCH   2   3
HETATM    3  C10 UNK     1      19.328  -2.800  36.782  1.00  0.00     0.056 C 
HETATM    4  C8  UNK     1      19.702  -4.003  36.295  1.00  0.00     0.015 C 
BRANCH   4   5
HETATM    5  C1  UNK     1      19.861  -5.215  37.085  1.00  0.00    -0.036 A 
HETATM    6  C4  UNK     1      20.933  -5.335  37.968  1.00  0.00     0.012 A 
HETATM    7  C6  UNK     1      21.086  -6.497  38.725  1.00  0.00     0.007 A 
HETATM    8  C2  UNK     1      20.165  -7.537  38.598  1.00  0.00    -0.062 A 
HETATM    9  C13 UNK     1      20.329  -8.779  39.409  1.00  0.00     0.048 C 
HETATM   10  C7  UNK     1      19.094  -7.417  37.715  1.00  0.00     0.007 A 
HETATM   11  C5  UNK     1      18.941  -6.256  36.958  1.00  0.00     0.012 A 
ENDBRANCH   4   5
ENDBRANCH   2   3
BRANCH   2  12
HETATM   12  C3  UNK     1      17.964  -0.794  36.013  1.00  0.00     0.047 A 
HETATM   13  C11 UNK     1      17.096  -0.650  34.948  1.00  0.00     0.079 A 
HETATM   14  C14 UNK     1      15.958   0.141  35.104  1.00  0.00     0.037 A 
HETATM   15  C16 UNK     1      15.710   0.774  36.323  1.00  0.00     0.003 A 
HETATM   16  C15 UNK     1      16.601   0.615  37.384  1.00  0.00     0.001 A 
HETATM   17  C12 UNK     1      17.739  -0.176  37.228  1.00  0.00     0.018 A 
BRANCH  13  18
HETATM   18  O1  UNK     1      17.321  -1.259  33.750  1.00  0.00    -0.360 OA
HETATM   19  H14 UNK     1      18.025  -1.921  33.857  1.00  0.00     0.217 HD
ENDBRANCH  13  18
ENDBRANCH   2  12
TORSDOF 4
ENDMDL
MODEL 10
REMARK VINA RESULT:      -7.5     22.341     23.933
REMARK  4 active torsions:
REMARK  status: ('A' for Active; 'I' for Inactive)
REMARK    1  A    between atoms: C11_13  and  O1_1 
REMARK    2  A    between atoms: C1_3  and  C8_10 
REMARK    3  A    between atoms: C3_5  and  C9_11 
REMARK    4  A    between atoms: C10_12  and  C9_11 
ROOT
HETATM    1  O2  UNK     1      12.000   5.381  10.338  1.00  0.00    -0.287 OA
HETATM    2  C9  UNK     1      12.299   6.004   9.325  1.00  0.00     0.184 C 
ENDROOT
BRANCH   2   3
HETATM    3  C10 UNK     1      13.590   6.735   9.184  1.00  0.00     0.056 C 
HETATM    4  C8  UNK     1      13.647   8.067   9.407  1.00  0.00     0.015 C 
BRANCH   4   5
HETATM    5  C1  UNK     1      14.843   8.887   9.284  1.00  0.00    -0.036 A 
HETATM    6  C4  UNK     1      16.006   8.531   9.966  1.00  0.00     0.012 A 
HETATM    7  C6  UNK     1      17.152   9.317   9.847  1.00  0.00     0.007 A 
HETATM    8  C2  UNK     1      17.134  10.459   9.046  1.00  0.00    -0.062 A 
HETATM    9  C13 UNK     1      18.360  11.299   8.919  1.00  0.00     0.048 C 
HETATM   10  C7  UNK     1      15.971  10.814   8.365  1.00  0.00     0.007 A 
HETATM   11  C5  UNK     1      14.825  10.029   8.483  1.00  0.00     0.012 A 
ENDBRANCH   4   5
ENDBRANCH   2   3
BRANCH   2  12
HETATM   12  C3  UNK     1      11.342   6.072   8.194  1.00  0.00     0.047 A 
HETATM   13  C11 UNK     1       9.985   6.155   8.443  1.00  0.00     0.079 A 
HETATM   14  C14 UNK     1       9.102   6.218   7.366  1.00  0.00     0.037 A 
HETATM   15  C16 UNK     1       9.592   6.196   6.059  1.00  0.00     0.003 A 
HETATM   16  C15 UNK     1      10.966   6.111   5.832  1.00  0.00     0.001 A 
HETATM   17  C12 UNK     1      11.849   6.048   6.909  1.00  0.00     0.018 A 
BRANCH  13  18
HETATM   18  O1  UNK     1       9.487   6.177   9.711  1.00  0.00    -0.360 OA
HETATM   19  H14 UNK     1       8.659   6.685   9.718  1.00  0.00     0.217 HD
ENDBRANCH  13  18
ENDBRANCH   2  12
TORSDOF 4
ENDMDL
