MODEL 1
REMARK VINA RESULT:      -9.7      0.000      0.000
REMARK  5 active torsions:
REMARK  status: ('A' for Active; 'I' for Inactive)
REMARK    1  A    between atoms: C1_9  and  O1_2 
REMARK    2  A    between atoms: C18_26  and  O6_7 
REMARK    3  A    between atoms: C1_9  and  C3_11 
REMARK    4  A    between atoms: C3_11  and  C7_15 
REMARK    5  A    between atoms: C12_20  and  C7_15 
ROOT
HETATM    1  C3  UNK     1      18.685   4.761  32.909  1.00  0.00     0.137 C 
ENDROOT
BRANCH   1   2
HETATM    2  C1  UNK     1      18.782   6.200  32.424  1.00  0.00     0.175 A 
HETATM    3  C2  UNK     1      17.621   7.054  32.852  1.00  0.00     0.014 A 
HETATM    4  C4  UNK     1      18.083   8.118  33.629  1.00  0.00     0.046 A 
HETATM    5  C6  UNK     1      16.272   6.909  32.579  1.00  0.00     0.032 A 
HETATM    6  N1  UNK     1      19.476   8.035  33.749  1.00  0.00    -0.319 N 
HETATM    7  C8  UNK     1      17.221   9.063  34.156  1.00  0.00     0.032 A 
HETATM    8  C5  UNK     1      19.986   6.925  33.059  1.00  0.00     0.264 A 
HETATM    9  C9  UNK     1      20.266   8.993  34.487  1.00  0.00     0.159 C 
HETATM   10  O2  UNK     1      21.153   6.579  32.946  1.00  0.00    -0.269 OA
HETATM   11  C11 UNK     1      15.857   8.921  33.886  1.00  0.00     0.021 A 
HETATM   12  C10 UNK     1      15.387   7.854  33.104  1.00  0.00     0.011 A 
HETATM   13 Br1  UNK     1      13.534   7.695  32.757  1.00  0.00    -0.051 Br
BRANCH   2  14
HETATM   14  O1  UNK     1      18.923   6.249  31.017  1.00  0.00    -0.375 OA
HETATM   15  H8  UNK     1      18.064   6.475  30.623  1.00  0.00     0.211 HD
ENDBRANCH   2  14
ENDBRANCH   1   2
BRANCH   1  16
HETATM   16  C7  UNK     1      17.945   3.873  31.931  1.00  0.00     0.169 C 
HETATM   17  O3  UNK     1      16.987   4.245  31.260  1.00  0.00    -0.292 OA
BRANCH  16  18
HETATM   18  C12 UNK     1      18.433   2.485  31.808  1.00  0.00     0.086 A 
HETATM   19  C13 UNK     1      18.905   2.129  30.608  1.00  0.00     0.035 A 
HETATM   20  C14 UNK     1      19.408   0.782  30.388  1.00  0.00     0.002 A 
HETATM   21  C16 UNK     1      19.389  -0.124  31.443  1.00  0.00     0.123 A 
HETATM   22  C17 UNK     1      19.911   0.367  29.152  1.00  0.00     0.014 A 
HETATM   23  O4  UNK     1      18.890   0.257  32.704  1.00  0.00    -0.271 OA
HETATM   24  C18 UNK     1      19.857  -1.429  31.299  1.00  0.00     0.102 A 
HETATM   25  C15 UNK     1      18.403   1.539  32.945  1.00  0.00     0.302 A 
HETATM   26  O5  UNK     1      17.971   1.862  34.047  1.00  0.00    -0.259 OA
HETATM   27  C20 UNK     1      20.355  -1.834  30.064  1.00  0.00     0.040 A 
HETATM   28  C19 UNK     1      20.383  -0.939  28.992  1.00  0.00     0.004 A 
BRANCH  24  29
HETATM   29  O6  UNK     1      19.831  -2.305  32.340  1.00  0.00    -0.353 OA
HETATM   30  C21 UNK     1      21.075  -2.592  32.979  1.00  0.00     0.210 C 
ENDBRANCH  24  29
ENDBRANCH  16  18
ENDBRANCH   1  16
TORSDOF 5
ENDMDL
MODEL 2
REMARK VINA RESULT:      -9.3     15.739     19.651
REMARK  5 active torsions:
REMARK  status: ('A' for Active; 'I' for Inactive)
REMARK    1  A    between atoms: C1_9  and  O1_2 
REMARK    2  A    between atoms: C18_26  and  O6_7 
REMARK    3  A    between atoms: C1_9  and  C3_11 
REMARK    4  A    between atoms: C3_11  and  C7_15 
REMARK    5  A    between atoms: C12_20  and  C7_15 
ROOT
HETATM    1  C3  UNK     1      19.705  -3.580  15.672  1.00  0.00     0.137 C 
ENDROOT
BRANCH   1   2
HETATM    2  C1  UNK     1      20.525  -4.050  14.480  1.00  0.00     0.175 A 
HETATM    3  C2  UNK     1      19.744  -4.898  13.514  1.00  0.00     0.014 A 
HETATM    4  C4  UNK     1      19.730  -4.288  12.259  1.00  0.00     0.046 A 
HETATM    5  C6  UNK     1      19.102  -6.106  13.723  1.00  0.00     0.032 A 
HETATM    6  N1  UNK     1      20.452  -3.088  12.317  1.00  0.00    -0.319 N 
HETATM    7  C8  UNK     1      19.078  -4.858  11.180  1.00  0.00     0.032 A 
HETATM    8  C5  UNK     1      20.969  -2.862  13.602  1.00  0.00     0.264 A 
HETATM    9  C9  UNK     1      20.634  -2.218  11.180  1.00  0.00     0.159 C 
HETATM   10  O2  UNK     1      21.657  -1.926  13.982  1.00  0.00    -0.269 OA
HETATM   11  C11 UNK     1      18.426  -6.076  11.383  1.00  0.00     0.021 A 
HETATM   12  C10 UNK     1      18.438  -6.695  12.644  1.00  0.00     0.011 A 
HETATM   13 Br1  UNK     1      17.546  -8.347  12.882  1.00  0.00    -0.051 Br
BRANCH   2  14
HETATM   14  O1  UNK     1      21.681  -4.746  14.906  1.00  0.00    -0.375 OA
HETATM   15  H8  UNK     1      22.419  -4.518  14.317  1.00  0.00     0.211 HD
ENDBRANCH   2  14
ENDBRANCH   1   2
BRANCH   1  16
HETATM   16  C7  UNK     1      18.745  -2.468  15.306  1.00  0.00     0.169 C 
HETATM   17  O3  UNK     1      17.881  -2.568  14.439  1.00  0.00    -0.292 OA
BRANCH  16  18
HETATM   18  C12 UNK     1      18.888  -1.206  16.058  1.00  0.00     0.086 A 
HETATM   19  C13 UNK     1      18.681  -1.277  17.378  1.00  0.00     0.035 A 
HETATM   20  C14 UNK     1      18.798  -0.086  18.205  1.00  0.00     0.002 A 
HETATM   21  C16 UNK     1      19.127   1.123  17.600  1.00  0.00     0.123 A 
HETATM   22  C17 UNK     1      18.592  -0.114  19.586  1.00  0.00     0.014 A 
HETATM   23  O4  UNK     1      19.344   1.192  16.210  1.00  0.00    -0.271 OA
HETATM   24  C18 UNK     1      19.256   2.300  18.334  1.00  0.00     0.102 A 
HETATM   25  C15 UNK     1      19.239   0.068  15.393  1.00  0.00     0.302 A 
HETATM   26  O5  UNK     1      19.430   0.138  14.183  1.00  0.00    -0.259 OA
HETATM   27  C20 UNK     1      19.048   2.263  19.710  1.00  0.00     0.040 A 
HETATM   28  C19 UNK     1      18.717   1.059  20.336  1.00  0.00     0.004 A 
BRANCH  24  29
HETATM   29  O6  UNK     1      19.578   3.475  17.729  1.00  0.00    -0.353 OA
HETATM   30  C21 UNK     1      20.540   4.302  18.384  1.00  0.00     0.210 C 
ENDBRANCH  24  29
ENDBRANCH  16  18
ENDBRANCH   1  16
TORSDOF 5
ENDMDL
MODEL 3
REMARK VINA RESULT:      -9.1     15.499     18.789
REMARK  5 active torsions:
REMARK  status: ('A' for Active; 'I' for Inactive)
REMARK    1  A    between atoms: C1_9  and  O1_2 
REMARK    2  A    between atoms: C18_26  and  O6_7 
REMARK    3  A    between atoms: C1_9  and  C3_11 
REMARK    4  A    between atoms: C3_11  and  C7_15 
REMARK    5  A    between atoms: C12_20  and  C7_15 
ROOT
HETATM    1  C3  UNK     1      32.528  -5.854  36.570  1.00  0.00     0.137 C 
ENDROOT
BRANCH   1   2
HETATM    2  C1  UNK     1      33.649  -6.882  36.612  1.00  0.00     0.175 A 
HETATM    3  C2  UNK     1      33.434  -8.039  35.676  1.00  0.00     0.014 A 
HETATM    4  C4  UNK     1      34.482  -8.099  34.756  1.00  0.00     0.046 A 
HETATM    5  C6  UNK     1      32.405  -8.963  35.640  1.00  0.00     0.032 A 
HETATM    6  N1  UNK     1      35.386  -7.060  35.012  1.00  0.00    -0.319 N 
HETATM    7  C8  UNK     1      34.535  -9.073  33.775  1.00  0.00     0.032 A 
HETATM    8  C5  UNK     1      34.976  -6.281  36.105  1.00  0.00     0.264 A 
HETATM    9  C9  UNK     1      36.587  -6.846  34.240  1.00  0.00     0.159 C 
HETATM   10  O2  UNK     1      35.546  -5.319  36.600  1.00  0.00    -0.269 OA
HETATM   11  C11 UNK     1      33.498 -10.008  33.731  1.00  0.00     0.021 A 
HETATM   12  C10 UNK     1      32.442  -9.954  34.656  1.00  0.00     0.011 A 
HETATM   13 Br1  UNK     1      31.055 -11.238  34.567  1.00  0.00    -0.051 Br
BRANCH   2  14
HETATM   14  O1  UNK     1      33.848  -7.357  37.929  1.00  0.00    -0.375 OA
HETATM   15  H8  UNK     1      34.300  -6.670  38.446  1.00  0.00     0.211 HD
ENDBRANCH   2  14
ENDBRANCH   1   2
BRANCH   1  16
HETATM   16  C7  UNK     1      31.913  -5.619  37.934  1.00  0.00     0.169 C 
HETATM   17  O3  UNK     1      32.488  -5.044  38.854  1.00  0.00    -0.292 OA
BRANCH  16  18
HETATM   18  C12 UNK     1      30.540  -6.127  38.129  1.00  0.00     0.086 A 
HETATM   19  C13 UNK     1      30.420  -7.444  38.328  1.00  0.00     0.035 A 
HETATM   20  C14 UNK     1      29.108  -8.040  38.529  1.00  0.00     0.002 A 
HETATM   21  C16 UNK     1      27.987  -7.217  38.511  1.00  0.00     0.123 A 
HETATM   22  C17 UNK     1      28.936  -9.410  38.742  1.00  0.00     0.014 A 
HETATM   23  O4  UNK     1      28.119  -5.831  38.301  1.00  0.00    -0.271 OA
HETATM   24  C18 UNK     1      26.702  -7.723  38.698  1.00  0.00     0.102 A 
HETATM   25  C15 UNK     1      29.362  -5.233  38.106  1.00  0.00     0.302 A 
HETATM   26  O5  UNK     1      29.467  -4.024  37.924  1.00  0.00    -0.259 OA
HETATM   27  C20 UNK     1      26.539  -9.090  38.908  1.00  0.00     0.040 A 
HETATM   28  C19 UNK     1      27.654  -9.932  38.931  1.00  0.00     0.004 A 
BRANCH  24  29
HETATM   29  O6  UNK     1      25.614  -6.907  38.677  1.00  0.00    -0.353 OA
HETATM   30  C21 UNK     1      24.337  -7.521  38.857  1.00  0.00     0.210 C 
ENDBRANCH  24  29
ENDBRANCH  16  18
ENDBRANCH   1  16
TORSDOF 5
ENDMDL
MODEL 4
REMARK VINA RESULT:      -8.8     22.540     24.347
REMARK  5 active torsions:
REMARK  status: ('A' for Active; 'I' for Inactive)
REMARK    1  A    between atoms: C1_9  and  O1_2 
REMARK    2  A    between atoms: C18_26  and  O6_7 
REMARK    3  A    between atoms: C1_9  and  C3_11 
REMARK    4  A    between atoms: C3_11  and  C7_15 
REMARK    5  A    between atoms: C12_20  and  C7_15 
ROOT
HETATM    1  C3  UNK     1      12.788   5.576   9.822  1.00  0.00     0.137 C 
ENDROOT
BRANCH   1   2
HETATM    2  C1  UNK     1      13.670   6.724   9.353  1.00  0.00     0.175 A 
HETATM    3  C2  UNK     1      13.693   7.887  10.306  1.00  0.00     0.014 A 
HETATM    4  C4  UNK     1      14.998   8.108  10.746  1.00  0.00     0.046 A 
HETATM    5  C6  UNK     1      12.652   8.686  10.746  1.00  0.00     0.032 A 
HETATM    6  N1  UNK     1      15.854   7.171  10.151  1.00  0.00    -0.319 N 
HETATM    7  C8  UNK     1      15.306   9.123  11.634  1.00  0.00     0.032 A 
HETATM    8  C5  UNK     1      15.152   6.304   9.299  1.00  0.00     0.264 A 
HETATM    9  C9  UNK     1      17.277   7.132  10.393  1.00  0.00     0.159 C 
HETATM   10  O2  UNK     1      15.600   5.394   8.617  1.00  0.00    -0.269 OA
HETATM   11  C11 UNK     1      14.260   9.932  12.084  1.00  0.00     0.021 A 
HETATM   12  C10 UNK     1      12.944   9.716  11.644  1.00  0.00     0.011 A 
HETATM   13 Br1  UNK     1      11.553  10.833  12.273  1.00  0.00    -0.051 Br
BRANCH   2  14
HETATM   14  O1  UNK     1      13.283   7.163   8.065  1.00  0.00    -0.375 OA
HETATM   15  H8  UNK     1      13.927   6.836   7.416  1.00  0.00     0.211 HD
ENDBRANCH   2  14
ENDBRANCH   1   2
BRANCH   1  16
HETATM   16  C7  UNK     1      11.739   5.200   8.796  1.00  0.00     0.169 C 
HETATM   17  O3  UNK     1      11.990   4.624   7.742  1.00  0.00    -0.292 OA
BRANCH  16  18
HETATM   18  C12 UNK     1      10.346   5.566   9.120  1.00  0.00     0.086 A 
HETATM   19  C13 UNK     1       9.614   4.624   9.726  1.00  0.00     0.035 A 
HETATM   20  C14 UNK     1       8.229   4.890  10.084  1.00  0.00     0.002 A 
HETATM   21  C16 UNK     1       7.684   6.135   9.787  1.00  0.00     0.123 A 
HETATM   22  C17 UNK     1       7.427   3.938  10.719  1.00  0.00     0.014 A 
HETATM   23  O4  UNK     1       8.460   7.122   9.149  1.00  0.00    -0.271 OA
HETATM   24  C18 UNK     1       6.365   6.454  10.104  1.00  0.00     0.102 A 
HETATM   25  C15 UNK     1       9.788   6.897   8.794  1.00  0.00     0.302 A 
HETATM   26  O5  UNK     1      10.456   7.763   8.239  1.00  0.00    -0.259 OA
HETATM   27  C20 UNK     1       5.573   5.498  10.735  1.00  0.00     0.040 A 
HETATM   28  C19 UNK     1       6.103   4.243  11.043  1.00  0.00     0.004 A 
BRANCH  24  29
HETATM   29  O6  UNK     1       5.845   7.675   9.806  1.00  0.00    -0.353 OA
HETATM   30  C21 UNK     1       5.394   8.474  10.900  1.00  0.00     0.210 C 
ENDBRANCH  24  29
ENDBRANCH  16  18
ENDBRANCH   1  16
TORSDOF 5
ENDMDL
MODEL 5
REMARK VINA RESULT:      -8.8      2.434      3.653
REMARK  5 active torsions:
REMARK  status: ('A' for Active; 'I' for Inactive)
REMARK    1  A    between atoms: C1_9  and  O1_2 
REMARK    2  A    between atoms: C18_26  and  O6_7 
REMARK    3  A    between atoms: C1_9  and  C3_11 
REMARK    4  A    between atoms: C3_11  and  C7_15 
REMARK    5  A    between atoms: C12_20  and  C7_15 
ROOT
HETATM    1  C3  UNK     1      18.629   4.595  33.958  1.00  0.00     0.137 C 
ENDROOT
BRANCH   1   2
HETATM    2  C1  UNK     1      18.809   5.754  32.988  1.00  0.00     0.175 A 
HETATM    3  C2  UNK     1      17.666   6.730  33.004  1.00  0.00     0.014 A 
HETATM    4  C4  UNK     1      18.134   7.994  33.366  1.00  0.00     0.046 A 
HETATM    5  C6  UNK     1      16.327   6.524  32.723  1.00  0.00     0.032 A 
HETATM    6  N1  UNK     1      19.516   7.932  33.591  1.00  0.00    -0.319 N 
HETATM    7  C8  UNK     1      17.288   9.085  33.460  1.00  0.00     0.032 A 
HETATM    8  C5  UNK     1      20.010   6.635  33.385  1.00  0.00     0.264 A 
HETATM    9  C9  UNK     1      20.308   9.076  33.974  1.00  0.00     0.159 C 
HETATM   10  O2  UNK     1      21.166   6.247  33.477  1.00  0.00    -0.269 OA
HETATM   11  C11 UNK     1      15.934   8.884  33.179  1.00  0.00     0.021 A 
HETATM   12  C10 UNK     1      15.458   7.614  32.813  1.00  0.00     0.011 A 
HETATM   13 Br1  UNK     1      13.618   7.379  32.438  1.00  0.00    -0.051 Br
BRANCH   2  14
HETATM   14  O1  UNK     1      19.019   5.280  31.671  1.00  0.00    -0.375 OA
HETATM   15  H8  UNK     1      19.670   5.853  31.232  1.00  0.00     0.211 HD
ENDBRANCH   2  14
ENDBRANCH   1   2
BRANCH   1  16
HETATM   16  C7  UNK     1      18.138   3.339  33.269  1.00  0.00     0.169 C 
HETATM   17  O3  UNK     1      17.674   3.320  32.133  1.00  0.00    -0.292 OA
BRANCH  16  18
HETATM   18  C12 UNK     1      18.241   2.086  34.043  1.00  0.00     0.086 A 
HETATM   19  C13 UNK     1      17.942   2.169  35.344  1.00  0.00     0.035 A 
HETATM   20  C14 UNK     1      18.015   0.987  36.190  1.00  0.00     0.002 A 
HETATM   21  C16 UNK     1      18.399  -0.223  35.623  1.00  0.00     0.123 A 
HETATM   22  C17 UNK     1      17.711   1.027  37.553  1.00  0.00     0.014 A 
HETATM   23  O4  UNK     1      18.712  -0.304  34.252  1.00  0.00    -0.271 OA
HETATM   24  C18 UNK     1      18.487  -1.392  36.377  1.00  0.00     0.102 A 
HETATM   25  C15 UNK     1      18.652   0.809  33.417  1.00  0.00     0.302 A 
HETATM   26  O5  UNK     1      18.926   0.729  32.225  1.00  0.00    -0.259 OA
HETATM   27  C20 UNK     1      18.183  -1.343  37.735  1.00  0.00     0.040 A 
HETATM   28  C19 UNK     1      17.795  -0.137  38.322  1.00  0.00     0.004 A 
BRANCH  24  29
HETATM   29  O6  UNK     1      18.865  -2.569  35.809  1.00  0.00    -0.353 OA
HETATM   30  C21 UNK     1      20.186  -3.033  36.091  1.00  0.00     0.210 C 
ENDBRANCH  24  29
ENDBRANCH  16  18
ENDBRANCH   1  16
TORSDOF 5
ENDMDL
MODEL 6
REMARK VINA RESULT:      -8.8     23.056     24.923
REMARK  5 active torsions:
REMARK  status: ('A' for Active; 'I' for Inactive)
REMARK    1  A    between atoms: C1_9  and  O1_2 
REMARK    2  A    between atoms: C18_26  and  O6_7 
REMARK    3  A    between atoms: C1_9  and  C3_11 
REMARK    4  A    between atoms: C3_11  and  C7_15 
REMARK    5  A    between atoms: C12_20  and  C7_15 
ROOT
HETATM    1  C3  UNK     1      11.539   7.230   8.522  1.00  0.00     0.137 C 
ENDROOT
BRANCH   1   2
HETATM    2  C1  UNK     1      12.914   6.797   8.033  1.00  0.00     0.175 A 
HETATM    3  C2  UNK     1      14.029   7.670   8.537  1.00  0.00     0.014 A 
HETATM    4  C4  UNK     1      14.925   6.903   9.283  1.00  0.00     0.046 A 
HETATM    5  C6  UNK     1      14.240   9.025   8.352  1.00  0.00     0.032 A 
HETATM    6  N1  UNK     1      14.485   5.572   9.312  1.00  0.00    -0.319 N 
HETATM    7  C8  UNK     1      16.050   7.458   9.867  1.00  0.00     0.032 A 
HETATM    8  C5  UNK     1      13.294   5.410   8.589  1.00  0.00     0.264 A 
HETATM    9  C9  UNK     1      15.195   4.518   9.998  1.00  0.00     0.159 C 
HETATM   10  O2  UNK     1      12.662   4.381   8.400  1.00  0.00    -0.269 OA
HETATM   11  C11 UNK     1      16.268   8.826   9.686  1.00  0.00     0.021 A 
HETATM   12  C10 UNK     1      15.371   9.603   8.935  1.00  0.00     0.011 A 
HETATM   13 Br1  UNK     1      15.700  11.452   8.709  1.00  0.00    -0.051 Br
BRANCH   2  14
HETATM   14  O1  UNK     1      12.950   6.737   6.620  1.00  0.00    -0.375 OA
HETATM   15  H8  UNK     1      12.046   6.841   6.278  1.00  0.00     0.211 HD
ENDBRANCH   2  14
ENDBRANCH   1   2
BRANCH   1  16
HETATM   16  C7  UNK     1      10.447   6.277   8.085  1.00  0.00     0.169 C 
HETATM   17  O3  UNK     1      10.438   5.697   7.003  1.00  0.00    -0.292 OA
BRANCH  16  18
HETATM   18  C12 UNK     1       9.346   6.060   9.045  1.00  0.00     0.086 A 
HETATM   19  C13 UNK     1       8.435   7.035   9.129  1.00  0.00     0.035 A 
HETATM   20  C14 UNK     1       7.313   6.913  10.048  1.00  0.00     0.002 A 
HETATM   21  C16 UNK     1       7.207   5.769  10.832  1.00  0.00     0.123 A 
HETATM   22  C17 UNK     1       6.337   7.905  10.168  1.00  0.00     0.014 A 
HETATM   23  O4  UNK     1       8.170   4.746  10.739  1.00  0.00    -0.271 OA
HETATM   24  C18 UNK     1       6.157   5.590  11.730  1.00  0.00     0.102 A 
HETATM   25  C15 UNK     1       9.254   4.834   9.869  1.00  0.00     0.302 A 
HETATM   26  O5  UNK     1      10.088   3.938   9.794  1.00  0.00    -0.259 OA
HETATM   27  C20 UNK     1       5.189   6.585  11.845  1.00  0.00     0.040 A 
HETATM   28  C19 UNK     1       5.278   7.740  11.064  1.00  0.00     0.004 A 
BRANCH  24  29
HETATM   29  O6  UNK     1       6.067   4.466  12.492  1.00  0.00    -0.353 OA
HETATM   30  C21 UNK     1       5.879   4.646  13.896  1.00  0.00     0.210 C 
ENDBRANCH  24  29
ENDBRANCH  16  18
ENDBRANCH   1  16
TORSDOF 5
ENDMDL
MODEL 7
REMARK VINA RESULT:      -8.7      6.702     10.477
REMARK  5 active torsions:
REMARK  status: ('A' for Active; 'I' for Inactive)
REMARK    1  A    between atoms: C1_9  and  O1_2 
REMARK    2  A    between atoms: C18_26  and  O6_7 
REMARK    3  A    between atoms: C1_9  and  C3_11 
REMARK    4  A    between atoms: C3_11  and  C7_15 
REMARK    5  A    between atoms: C12_20  and  C7_15 
ROOT
HETATM    1  C3  UNK     1      19.467  -4.023  36.117  1.00  0.00     0.137 C 
ENDROOT
BRANCH   1   2
HETATM    2  C1  UNK     1      19.872  -2.562  35.985  1.00  0.00     0.175 A 
HETATM    3  C2  UNK     1      19.625  -1.995  34.615  1.00  0.00     0.014 A 
HETATM    4  C4  UNK     1      18.738  -0.921  34.705  1.00  0.00     0.046 A 
HETATM    5  C6  UNK     1      20.140  -2.389  33.393  1.00  0.00     0.032 A 
HETATM    6  N1  UNK     1      18.373  -0.730  36.044  1.00  0.00    -0.319 N 
HETATM    7  C8  UNK     1      18.336  -0.212  33.586  1.00  0.00     0.032 A 
HETATM    8  C5  UNK     1      19.003  -1.659  36.885  1.00  0.00     0.264 A 
HETATM    9  C9  UNK     1      17.470   0.310  36.478  1.00  0.00     0.159 C 
HETATM   10  O2  UNK     1      18.919  -1.752  38.101  1.00  0.00    -0.269 OA
HETATM   11  C11 UNK     1      18.851  -0.606  32.348  1.00  0.00     0.021 A 
HETATM   12  C10 UNK     1      19.746  -1.684  32.252  1.00  0.00     0.011 A 
HETATM   13 Br1  UNK     1      20.425  -2.187  30.559  1.00  0.00    -0.051 Br
BRANCH   2  14
HETATM   14  O1  UNK     1      21.227  -2.380  36.346  1.00  0.00    -0.375 OA
HETATM   15  H8  UNK     1      21.342  -1.480  36.693  1.00  0.00     0.211 HD
ENDBRANCH   2  14
ENDBRANCH   1   2
BRANCH   1  16
HETATM   16  C7  UNK     1      20.340  -4.775  37.100  1.00  0.00     0.169 C 
HETATM   17  O3  UNK     1      21.044  -4.230  37.945  1.00  0.00    -0.292 OA
BRANCH  16  18
HETATM   18  C12 UNK     1      20.315  -6.248  37.004  1.00  0.00     0.086 A 
HETATM   19  C13 UNK     1      20.014  -6.909  38.127  1.00  0.00     0.035 A 
HETATM   20  C14 UNK     1      19.965  -8.363  38.132  1.00  0.00     0.002 A 
HETATM   21  C16 UNK     1      20.237  -9.049  36.953  1.00  0.00     0.123 A 
HETATM   22  C17 UNK     1      19.655  -9.095  39.281  1.00  0.00     0.014 A 
HETATM   23  O4  UNK     1      20.553  -8.348  35.774  1.00  0.00    -0.271 OA
HETATM   24  C18 UNK     1      20.206 -10.441  36.890  1.00  0.00     0.102 A 
HETATM   25  C15 UNK     1      20.607  -6.957  35.738  1.00  0.00     0.302 A 
HETATM   26  O5  UNK     1      20.883  -6.354  34.705  1.00  0.00    -0.259 OA
HETATM   27  C20 UNK     1      19.897 -11.162  38.041  1.00  0.00     0.040 A 
HETATM   28  C19 UNK     1      19.620 -10.491  39.234  1.00  0.00     0.004 A 
BRANCH  24  29
HETATM   29  O6  UNK     1      20.474 -11.099  35.730  1.00  0.00    -0.353 OA
HETATM   30  C21 UNK     1      21.846 -11.223  35.355  1.00  0.00     0.210 C 
ENDBRANCH  24  29
ENDBRANCH  16  18
ENDBRANCH   1  16
TORSDOF 5
ENDMDL
MODEL 8
REMARK VINA RESULT:      -8.7     14.921     17.233
REMARK  5 active torsions:
REMARK  status: ('A' for Active; 'I' for Inactive)
REMARK    1  A    between atoms: C1_9  and  O1_2 
REMARK    2  A    between atoms: C18_26  and  O6_7 
REMARK    3  A    between atoms: C1_9  and  C3_11 
REMARK    4  A    between atoms: C3_11  and  C7_15 
REMARK    5  A    between atoms: C12_20  and  C7_15 
ROOT
HETATM    1  C3  UNK     1      30.420  -4.450  37.150  1.00  0.00     0.137 C 
ENDROOT
BRANCH   1   2
HETATM    2  C1  UNK     1      31.890  -4.842  37.172  1.00  0.00     0.175 A 
HETATM    3  C2  UNK     1      32.170  -6.150  36.485  1.00  0.00     0.014 A 
HETATM    4  C4  UNK     1      33.055  -5.944  35.427  1.00  0.00     0.046 A 
HETATM    5  C6  UNK     1      31.687  -7.415  36.770  1.00  0.00     0.032 A 
HETATM    6  N1  UNK     1      33.391  -4.586  35.358  1.00  0.00    -0.319 N 
HETATM    7  C8  UNK     1      33.484  -6.986  34.622  1.00  0.00     0.032 A 
HETATM    8  C5  UNK     1      32.747  -3.848  36.363  1.00  0.00     0.264 A 
HETATM    9  C9  UNK     1      34.296  -4.042  34.374  1.00  0.00     0.159 C 
HETATM   10  O2  UNK     1      32.839  -2.651  36.593  1.00  0.00    -0.269 OA
HETATM   11  C11 UNK     1      32.999  -8.265  34.902  1.00  0.00     0.021 A 
HETATM   12  C10 UNK     1      32.108  -8.479  35.967  1.00  0.00     0.011 A 
HETATM   13 Br1  UNK     1      31.473 -10.226  36.319  1.00  0.00    -0.051 Br
BRANCH   2  14
HETATM   14  O1  UNK     1      32.382  -4.879  38.498  1.00  0.00    -0.375 OA
HETATM   15  H8  UNK     1      31.843  -5.500  39.015  1.00  0.00     0.211 HD
ENDBRANCH   2  14
ENDBRANCH   1   2
BRANCH   1  16
HETATM   16  C7  UNK     1      29.774  -4.566  38.515  1.00  0.00     0.169 C 
HETATM   17  O3  UNK     1      30.093  -3.882  39.483  1.00  0.00    -0.292 OA
BRANCH  16  18
HETATM   18  C12 UNK     1      28.702  -5.573  38.647  1.00  0.00     0.086 A 
HETATM   19  C13 UNK     1      29.098  -6.847  38.749  1.00  0.00     0.035 A 
HETATM   20  C14 UNK     1      28.115  -7.912  38.882  1.00  0.00     0.002 A 
HETATM   21  C16 UNK     1      26.765  -7.581  38.901  1.00  0.00     0.123 A 
HETATM   22  C17 UNK     1      28.483  -9.255  38.992  1.00  0.00     0.014 A 
HETATM   23  O4  UNK     1      26.354  -6.239  38.793  1.00  0.00    -0.271 OA
HETATM   24  C18 UNK     1      25.773  -8.553  39.027  1.00  0.00     0.102 A 
HETATM   25  C15 UNK     1      27.271  -5.198  38.665  1.00  0.00     0.302 A 
HETATM   26  O5  UNK     1      26.904  -4.031  38.572  1.00  0.00    -0.259 OA
HETATM   27  C20 UNK     1      26.148  -9.890  39.136  1.00  0.00     0.040 A 
HETATM   28  C19 UNK     1      27.500 -10.241  39.119  1.00  0.00     0.004 A 
BRANCH  24  29
HETATM   29  O6  UNK     1      24.455  -8.216  39.044  1.00  0.00    -0.353 OA
HETATM   30  C21 UNK     1      23.687  -8.537  37.884  1.00  0.00     0.210 C 
ENDBRANCH  24  29
ENDBRANCH  16  18
ENDBRANCH   1  16
TORSDOF 5
ENDMDL
MODEL 9
REMARK VINA RESULT:      -8.7      6.347      9.836
REMARK  5 active torsions:
REMARK  status: ('A' for Active; 'I' for Inactive)
REMARK    1  A    between atoms: C1_9  and  O1_2 
REMARK    2  A    between atoms: C18_26  and  O6_7 
REMARK    3  A    between atoms: C1_9  and  C3_11 
REMARK    4  A    between atoms: C3_11  and  C7_15 
REMARK    5  A    between atoms: C12_20  and  C7_15 
ROOT
HETATM    1  C3  UNK     1      18.647  -3.329  36.312  1.00  0.00     0.137 C 
ENDROOT
BRANCH   1   2
HETATM    2  C1  UNK     1      19.244  -1.937  36.460  1.00  0.00     0.175 A 
HETATM    3  C2  UNK     1      18.959  -1.037  35.290  1.00  0.00     0.014 A 
HETATM    4  C4  UNK     1      18.247   0.083  35.723  1.00  0.00     0.046 A 
HETATM    5  C6  UNK     1      19.299  -1.189  33.958  1.00  0.00     0.032 A 
HETATM    6  N1  UNK     1      18.037  -0.005  37.105  1.00  0.00    -0.319 N 
HETATM    7  C8  UNK     1      17.853   1.079  34.847  1.00  0.00     0.032 A 
HETATM    8  C5  UNK     1      18.600  -1.175  37.636  1.00  0.00     0.264 A 
HETATM    9  C9  UNK     1      17.335   1.003  37.866  1.00  0.00     0.159 C 
HETATM   10  O2  UNK     1      18.613  -1.542  38.802  1.00  0.00    -0.269 OA
HETATM   11  C11 UNK     1      18.191   0.931  33.499  1.00  0.00     0.021 A 
HETATM   12  C10 UNK     1      18.909  -0.193  33.059  1.00  0.00     0.011 A 
HETATM   13 Br1  UNK     1      19.352  -0.360  31.227  1.00  0.00    -0.051 Br
BRANCH   2  14
HETATM   14  O1  UNK     1      20.639  -2.008  36.685  1.00  0.00    -0.375 OA
HETATM   15  H8  UNK     1      21.047  -1.178  36.389  1.00  0.00     0.211 HD
ENDBRANCH   2  14
ENDBRANCH   1   2
BRANCH   1  16
HETATM   16  C7  UNK     1      19.665  -4.343  35.835  1.00  0.00     0.169 C 
HETATM   17  O3  UNK     1      20.345  -4.205  34.822  1.00  0.00    -0.292 OA
BRANCH  16  18
HETATM   18  C12 UNK     1      19.819  -5.555  36.664  1.00  0.00     0.086 A 
HETATM   19  C13 UNK     1      20.888  -5.590  37.467  1.00  0.00     0.035 A 
HETATM   20  C14 UNK     1      21.126  -6.743  38.322  1.00  0.00     0.002 A 
HETATM   21  C16 UNK     1      20.226  -7.803  38.287  1.00  0.00     0.123 A 
HETATM   22  C17 UNK     1      22.228  -6.822  39.178  1.00  0.00     0.014 A 
HETATM   23  O4  UNK     1      19.103  -7.761  37.439  1.00  0.00    -0.271 OA
HETATM   24  C18 UNK     1      20.395  -8.936  39.081  1.00  0.00     0.102 A 
HETATM   25  C15 UNK     1      18.848  -6.670  36.610  1.00  0.00     0.302 A 
HETATM   26  O5  UNK     1      17.867  -6.643  35.875  1.00  0.00    -0.259 OA
HETATM   27  C20 UNK     1      21.497  -9.007  39.930  1.00  0.00     0.040 A 
HETATM   28  C19 UNK     1      22.411  -7.952  39.979  1.00  0.00     0.004 A 
BRANCH  24  29
HETATM   29  O6  UNK     1      19.507  -9.966  39.036  1.00  0.00    -0.353 OA
HETATM   30  C21 UNK     1      19.723 -10.968  38.042  1.00  0.00     0.210 C 
ENDBRANCH  24  29
ENDBRANCH  16  18
ENDBRANCH   1  16
TORSDOF 5
ENDMDL
MODEL 10
REMARK VINA RESULT:      -8.6     16.235     18.780
REMARK  5 active torsions:
REMARK  status: ('A' for Active; 'I' for Inactive)
REMARK    1  A    between atoms: C1_9  and  O1_2 
REMARK    2  A    between atoms: C18_26  and  O6_7 
REMARK    3  A    between atoms: C1_9  and  C3_11 
REMARK    4  A    between atoms: C3_11  and  C7_15 
REMARK    5  A    between atoms: C12_20  and  C7_15 
ROOT
HETATM    1  C3  UNK     1      34.096  -5.958  34.052  1.00  0.00     0.137 C 
ENDROOT
BRANCH   1   2
HETATM    2  C1  UNK     1      34.214  -7.192  33.171  1.00  0.00     0.175 A 
HETATM    3  C2  UNK     1      32.934  -7.550  32.468  1.00  0.00     0.014 A 
HETATM    4  C4  UNK     1      33.131  -7.515  31.087  1.00  0.00     0.046 A 
HETATM    5  C6  UNK     1      31.700  -7.880  33.000  1.00  0.00     0.032 A 
HETATM    6  N1  UNK     1      34.459  -7.160  30.816  1.00  0.00    -0.319 N 
HETATM    7  C8  UNK     1      32.111  -7.805  30.198  1.00  0.00     0.032 A 
HETATM    8  C5  UNK     1      35.185  -6.951  31.998  1.00  0.00     0.264 A 
HETATM    9  C9  UNK     1      34.990  -7.042  29.478  1.00  0.00     0.159 C 
HETATM   10  O2  UNK     1      36.366  -6.653  32.113  1.00  0.00    -0.269 OA
HETATM   11  C11 UNK     1      30.862  -8.137  30.728  1.00  0.00     0.021 A 
HETATM   12  C10 UNK     1      30.658  -8.175  32.117  1.00  0.00     0.011 A 
HETATM   13 Br1  UNK     1      28.953  -8.632  32.799  1.00  0.00    -0.051 Br
BRANCH   2  14
HETATM   14  O1  UNK     1      34.681  -8.301  33.916  1.00  0.00    -0.375 OA
HETATM   15  H8  UNK     1      33.935  -8.898  34.090  1.00  0.00     0.211 HD
ENDBRANCH   2  14
ENDBRANCH   1   2
BRANCH   1  16
HETATM   16  C7  UNK     1      34.257  -6.283  35.522  1.00  0.00     0.169 C 
HETATM   17  O3  UNK     1      35.343  -6.417  36.078  1.00  0.00    -0.292 OA
BRANCH  16  18
HETATM   18  C12 UNK     1      33.010  -6.443  36.297  1.00  0.00     0.086 A 
HETATM   19  C13 UNK     1      32.429  -5.315  36.721  1.00  0.00     0.035 A 
HETATM   20  C14 UNK     1      31.197  -5.370  37.493  1.00  0.00     0.002 A 
HETATM   21  C16 UNK     1      30.639  -6.611  37.781  1.00  0.00     0.123 A 
HETATM   22  C17 UNK     1      30.555  -4.219  37.955  1.00  0.00     0.014 A 
HETATM   23  O4  UNK     1      31.256  -7.795  37.333  1.00  0.00    -0.271 OA
HETATM   24  C18 UNK     1      29.461  -6.733  38.516  1.00  0.00     0.102 A 
HETATM   25  C15 UNK     1      32.435  -7.774  36.591  1.00  0.00     0.302 A 
HETATM   26  O5  UNK     1      32.964  -8.811  36.205  1.00  0.00    -0.259 OA
HETATM   27  C20 UNK     1      28.828  -5.580  38.973  1.00  0.00     0.040 A 
HETATM   28  C19 UNK     1      29.373  -4.325  38.693  1.00  0.00     0.004 A 
BRANCH  24  29
HETATM   29  O6  UNK     1      28.926  -7.953  38.791  1.00  0.00    -0.353 OA
HETATM   30  C21 UNK     1      27.688  -7.976  39.502  1.00  0.00     0.210 C 
ENDBRANCH  24  29
ENDBRANCH  16  18
ENDBRANCH   1  16
TORSDOF 5
ENDMDL
