MODEL 1
REMARK VINA RESULT:      -7.4      0.000      0.000
REMARK  4 active torsions:
REMARK  status: ('A' for Active; 'I' for Inactive)
REMARK    1  A    between atoms: C11_16  and  O2_2 
REMARK    2  A    between atoms: C5_10  and  O2_2 
REMARK    3  A    between atoms: C11_16  and  O3_3 
REMARK    4  A    between atoms: C12_17  and  O3_3 
ROOT
HETATM    1  O1  UNK     1      17.105   8.666  34.866  1.00  0.00    -0.275 OA
HETATM    2  O4  UNK     1      15.529  10.190  35.516  1.00  0.00    -0.260 OA
HETATM    3  C1  UNK     1      16.550   7.038  33.132  1.00  0.00     0.007 A 
HETATM    4  C2  UNK     1      15.206   7.627  33.045  1.00  0.00    -0.043 A 
HETATM    5  C3  UNK     1      17.459   7.579  34.043  1.00  0.00     0.090 A 
HETATM    6  C4  UNK     1      16.979   5.958  32.349  1.00  0.00     0.052 A 
HETATM    7  C5  UNK     1      18.274   5.446  32.484  1.00  0.00     0.082 A 
HETATM    8  C6  UNK     1      18.754   7.079  34.189  1.00  0.00     0.041 A 
HETATM    9  C7  UNK     1      14.899   8.661  33.839  1.00  0.00     0.090 A 
HETATM   10  C8  UNK     1      19.161   6.006  33.403  1.00  0.00     0.040 A 
HETATM   11  C9  UNK     1      14.205   7.069  32.075  1.00  0.00     0.049 C 
HETATM   12  C10 UNK     1      15.846   9.243  34.804  1.00  0.00     0.288 A 
ENDROOT
BRANCH   7  13
HETATM   13  O2  UNK     1      18.672   4.396  31.714  1.00  0.00    -0.256 OA
BRANCH  13  14
HETATM   14  C11 UNK     1      18.032   3.185  32.014  1.00  0.00     0.411 C 
HETATM   15  O5  UNK     1      17.922   2.705  33.135  1.00  0.00    -0.229 OA
BRANCH  14  16
HETATM   16  O3  UNK     1      17.557   2.636  30.859  1.00  0.00    -0.298 OA
BRANCH  16  17
HETATM   17  C12 UNK     1      18.551   2.223  29.916  1.00  0.00     0.176 C 
HETATM   18  C13 UNK     1      17.868   1.802  28.633  1.00  0.00     0.034 C 
ENDBRANCH  16  17
ENDBRANCH  14  16
ENDBRANCH  13  14
ENDBRANCH   7  13
TORSDOF 4
ENDMDL
MODEL 2
REMARK VINA RESULT:      -7.1      5.603      8.033
REMARK  4 active torsions:
REMARK  status: ('A' for Active; 'I' for Inactive)
REMARK    1  A    between atoms: C11_16  and  O2_2 
REMARK    2  A    between atoms: C5_10  and  O2_2 
REMARK    3  A    between atoms: C11_16  and  O3_3 
REMARK    4  A    between atoms: C12_17  and  O3_3 
ROOT
HETATM    1  O1  UNK     1      19.128   1.342  28.784  1.00  0.00    -0.275 OA
HETATM    2  O4  UNK     1      18.158   3.404  28.582  1.00  0.00    -0.260 OA
HETATM    3  C1  UNK     1      19.307   0.317  30.994  1.00  0.00     0.007 A 
HETATM    4  C2  UNK     1      18.652   1.501  31.568  1.00  0.00    -0.043 A 
HETATM    5  C3  UNK     1      19.524   0.276  29.616  1.00  0.00     0.090 A 
HETATM    6  C4  UNK     1      19.729  -0.783  31.752  1.00  0.00     0.052 A 
HETATM    7  C5  UNK     1      20.346  -1.880  31.139  1.00  0.00     0.082 A 
HETATM    8  C6  UNK     1      20.139  -0.810  28.990  1.00  0.00     0.041 A 
HETATM    9  C7  UNK     1      18.286   2.499  30.753  1.00  0.00     0.090 A 
HETATM   10  C8  UNK     1      20.552  -1.893  29.760  1.00  0.00     0.040 A 
HETATM   11  C9  UNK     1      18.403   1.576  33.046  1.00  0.00     0.049 C 
HETATM   12  C10 UNK     1      18.507   2.470  29.297  1.00  0.00     0.288 A 
ENDROOT
BRANCH   7  13
HETATM   13  O2  UNK     1      20.750  -2.939  31.892  1.00  0.00    -0.256 OA
BRANCH  13  14
HETATM   14  C11 UNK     1      21.243  -2.594  33.158  1.00  0.00     0.411 C 
HETATM   15  O5  UNK     1      22.278  -1.973  33.366  1.00  0.00    -0.229 OA
BRANCH  14  16
HETATM   16  O3  UNK     1      20.386  -3.059  34.112  1.00  0.00    -0.298 OA
BRANCH  16  17
HETATM   17  C12 UNK     1      20.383  -2.334  35.346  1.00  0.00     0.176 C 
HETATM   18  C13 UNK     1      19.147  -1.461  35.400  1.00  0.00     0.034 C 
ENDBRANCH  16  17
ENDBRANCH  14  16
ENDBRANCH  13  14
ENDBRANCH   7  13
TORSDOF 4
ENDMDL
MODEL 3
REMARK VINA RESULT:      -7.0      5.309      6.891
REMARK  4 active torsions:
REMARK  status: ('A' for Active; 'I' for Inactive)
REMARK    1  A    between atoms: C11_16  and  O2_2 
REMARK    2  A    between atoms: C5_10  and  O2_2 
REMARK    3  A    between atoms: C11_16  and  O3_3 
REMARK    4  A    between atoms: C12_17  and  O3_3 
ROOT
HETATM    1  O1  UNK     1      17.955   1.773  36.905  1.00  0.00    -0.275 OA
HETATM    2  O4  UNK     1      17.718   1.481  39.161  1.00  0.00    -0.260 OA
HETATM    3  C1  UNK     1      18.243  -0.182  35.469  1.00  0.00     0.007 A 
HETATM    4  C2  UNK     1      18.164  -1.037  36.662  1.00  0.00    -0.043 A 
HETATM    5  C3  UNK     1      18.135   1.200  35.630  1.00  0.00     0.090 A 
HETATM    6  C4  UNK     1      18.420  -0.673  34.169  1.00  0.00     0.052 A 
HETATM    7  C5  UNK     1      18.487   0.199  33.077  1.00  0.00     0.082 A 
HETATM    8  C6  UNK     1      18.200   2.084  34.551  1.00  0.00     0.041 A 
HETATM    9  C7  UNK     1      17.991  -0.464  37.861  1.00  0.00     0.090 A 
HETATM   10  C8  UNK     1      18.377   1.576  33.268  1.00  0.00     0.040 A 
HETATM   11  C9  UNK     1      18.276  -2.528  36.523  1.00  0.00     0.049 C 
HETATM   12  C10 UNK     1      17.875   0.991  38.047  1.00  0.00     0.288 A 
ENDROOT
BRANCH   7  13
HETATM   13  O2  UNK     1      18.659  -0.298  31.822  1.00  0.00    -0.256 OA
BRANCH  13  14
HETATM   14  C11 UNK     1      19.791   0.194  31.156  1.00  0.00     0.411 C 
HETATM   15  O5  UNK     1      20.925  -0.253  31.269  1.00  0.00    -0.229 OA
BRANCH  14  16
HETATM   16  O3  UNK     1      19.421   1.245  30.368  1.00  0.00    -0.298 OA
BRANCH  16  17
HETATM   17  C12 UNK     1      18.971   0.902  29.053  1.00  0.00     0.176 C 
HETATM   18  C13 UNK     1      17.879   1.865  28.640  1.00  0.00     0.034 C 
ENDBRANCH  16  17
ENDBRANCH  14  16
ENDBRANCH  13  14
ENDBRANCH   7  13
TORSDOF 4
ENDMDL
MODEL 4
REMARK VINA RESULT:      -7.0      5.419      8.133
REMARK  4 active torsions:
REMARK  status: ('A' for Active; 'I' for Inactive)
REMARK    1  A    between atoms: C11_16  and  O2_2 
REMARK    2  A    between atoms: C5_10  and  O2_2 
REMARK    3  A    between atoms: C11_16  and  O3_3 
REMARK    4  A    between atoms: C12_17  and  O3_3 
ROOT
HETATM    1  O1  UNK     1      19.776  -1.011  30.414  1.00  0.00    -0.275 OA
HETATM    2  O4  UNK     1      20.347  -0.700  28.221  1.00  0.00    -0.260 OA
HETATM    3  C1  UNK     1      18.873   0.864  31.692  1.00  0.00     0.007 A 
HETATM    4  C2  UNK     1      19.001   1.708  30.496  1.00  0.00    -0.043 A 
HETATM    5  C3  UNK     1      19.266  -0.473  31.612  1.00  0.00     0.090 A 
HETATM    6  C4  UNK     1      18.376   1.323  32.919  1.00  0.00     0.052 A 
HETATM    7  C5  UNK     1      18.282   0.464  34.019  1.00  0.00     0.082 A 
HETATM    8  C6  UNK     1      19.179  -1.343  32.700  1.00  0.00     0.041 A 
HETATM    9  C7  UNK     1      19.487   1.168  29.370  1.00  0.00     0.090 A 
HETATM   10  C8  UNK     1      18.684  -0.868  33.911  1.00  0.00     0.040 A 
HETATM   11  C9  UNK     1      18.586   3.150  30.548  1.00  0.00     0.049 C 
HETATM   12  C10 UNK     1      19.905  -0.240  29.269  1.00  0.00     0.288 A 
ENDROOT
BRANCH   7  13
HETATM   13  O2  UNK     1      17.797   0.928  35.203  1.00  0.00    -0.256 OA
BRANCH  13  14
HETATM   14  C11 UNK     1      16.469   0.564  35.466  1.00  0.00     0.411 C 
HETATM   15  O5  UNK     1      15.569   0.535  34.637  1.00  0.00    -0.229 OA
BRANCH  14  16
HETATM   16  O3  UNK     1      16.348   0.249  36.788  1.00  0.00    -0.298 OA
BRANCH  16  17
HETATM   17  C12 UNK     1      17.575   0.182  37.522  1.00  0.00     0.176 C 
HETATM   18  C13 UNK     1      17.942  -1.271  37.735  1.00  0.00     0.034 C 
ENDBRANCH  16  17
ENDBRANCH  14  16
ENDBRANCH  13  14
ENDBRANCH   7  13
TORSDOF 4
ENDMDL
MODEL 5
REMARK VINA RESULT:      -6.9     11.877     15.221
REMARK  4 active torsions:
REMARK  status: ('A' for Active; 'I' for Inactive)
REMARK    1  A    between atoms: C11_16  and  O2_2 
REMARK    2  A    between atoms: C5_10  and  O2_2 
REMARK    3  A    between atoms: C11_16  and  O3_3 
REMARK    4  A    between atoms: C12_17  and  O3_3 
ROOT
HETATM    1  O1  UNK     1      19.574  -9.631  38.933  1.00  0.00    -0.275 OA
HETATM    2  O4  UNK     1      19.201 -11.864  38.605  1.00  0.00    -0.260 OA
HETATM    3  C1  UNK     1      20.766  -8.354  37.226  1.00  0.00     0.007 A 
HETATM    4  C2  UNK     1      20.883  -9.581  36.426  1.00  0.00    -0.043 A 
HETATM    5  C3  UNK     1      20.112  -8.419  38.458  1.00  0.00     0.090 A 
HETATM    6  C4  UNK     1      21.273  -7.112  36.824  1.00  0.00     0.052 A 
HETATM    7  C5  UNK     1      21.125  -5.982  37.637  1.00  0.00     0.082 A 
HETATM    8  C6  UNK     1      19.958  -7.302  39.280  1.00  0.00     0.041 A 
HETATM    9  C7  UNK     1      20.360 -10.719  36.903  1.00  0.00     0.090 A 
HETATM   10  C8  UNK     1      20.469  -6.077  38.863  1.00  0.00     0.040 A 
HETATM   11  C9  UNK     1      21.578  -9.545  35.096  1.00  0.00     0.049 C 
HETATM   12  C10 UNK     1      19.667 -10.804  38.200  1.00  0.00     0.288 A 
ENDROOT
BRANCH   7  13
HETATM   13  O2  UNK     1      21.625  -4.783  37.228  1.00  0.00    -0.256 OA
BRANCH  13  14
HETATM   14  C11 UNK     1      20.654  -3.795  37.013  1.00  0.00     0.411 C 
HETATM   15  O5  UNK     1      20.232  -3.024  37.865  1.00  0.00    -0.229 OA
BRANCH  14  16
HETATM   16  O3  UNK     1      20.262  -3.835  35.707  1.00  0.00    -0.298 OA
BRANCH  16  17
HETATM   17  C12 UNK     1      20.078  -2.562  35.079  1.00  0.00     0.176 C 
HETATM   18  C13 UNK     1      20.514  -2.659  33.632  1.00  0.00     0.034 C 
ENDBRANCH  16  17
ENDBRANCH  14  16
ENDBRANCH  13  14
ENDBRANCH   7  13
TORSDOF 4
ENDMDL
MODEL 6
REMARK VINA RESULT:      -6.9      6.535      8.011
REMARK  4 active torsions:
REMARK  status: ('A' for Active; 'I' for Inactive)
REMARK    1  A    between atoms: C11_16  and  O2_2 
REMARK    2  A    between atoms: C5_10  and  O2_2 
REMARK    3  A    between atoms: C11_16  and  O3_3 
REMARK    4  A    between atoms: C12_17  and  O3_3 
ROOT
HETATM    1  O1  UNK     1      19.449  -1.986  36.771  1.00  0.00    -0.275 OA
HETATM    2  O4  UNK     1      18.552  -1.512  38.821  1.00  0.00    -0.260 OA
HETATM    3  C1  UNK     1      18.409  -1.057  34.766  1.00  0.00     0.007 A 
HETATM    4  C2  UNK     1      17.406  -0.405  35.620  1.00  0.00    -0.043 A 
HETATM    5  C3  UNK     1      19.401  -1.829  35.372  1.00  0.00     0.090 A 
HETATM    6  C4  UNK     1      18.431  -0.950  33.369  1.00  0.00     0.052 A 
HETATM    7  C5  UNK     1      19.416  -1.598  32.617  1.00  0.00     0.082 A 
HETATM    8  C6  UNK     1      20.391  -2.483  34.635  1.00  0.00     0.041 A 
HETATM    9  C7  UNK     1      17.478  -0.571  36.948  1.00  0.00     0.090 A 
HETATM   10  C8  UNK     1      20.395  -2.365  33.249  1.00  0.00     0.040 A 
HETATM   11  C9  UNK     1      16.326   0.433  35.000  1.00  0.00     0.049 C 
HETATM   12  C10 UNK     1      18.518  -1.382  37.601  1.00  0.00     0.288 A 
ENDROOT
BRANCH   7  13
HETATM   13  O2  UNK     1      19.420  -1.482  31.261  1.00  0.00    -0.256 OA
BRANCH  13  14
HETATM   14  C11 UNK     1      19.820  -0.223  30.790  1.00  0.00     0.411 C 
HETATM   15  O5  UNK     1      20.960   0.219  30.842  1.00  0.00    -0.229 OA
BRANCH  14  16
HETATM   16  O3  UNK     1      18.736   0.421  30.268  1.00  0.00    -0.298 OA
BRANCH  16  17
HETATM   17  C12 UNK     1      19.015   1.654  29.597  1.00  0.00     0.176 C 
HETATM   18  C13 UNK     1      17.881   1.961  28.642  1.00  0.00     0.034 C 
ENDBRANCH  16  17
ENDBRANCH  14  16
ENDBRANCH  13  14
ENDBRANCH   7  13
TORSDOF 4
ENDMDL
MODEL 7
REMARK VINA RESULT:      -6.9      2.449      3.786
REMARK  4 active torsions:
REMARK  status: ('A' for Active; 'I' for Inactive)
REMARK    1  A    between atoms: C11_16  and  O2_2 
REMARK    2  A    between atoms: C5_10  and  O2_2 
REMARK    3  A    between atoms: C11_16  and  O3_3 
REMARK    4  A    between atoms: C12_17  and  O3_3 
ROOT
HETATM    1  O1  UNK     1      18.151   5.571  34.144  1.00  0.00    -0.275 OA
HETATM    2  O4  UNK     1      18.182   7.848  34.355  1.00  0.00    -0.260 OA
HETATM    3  C1  UNK     1      18.547   4.568  31.952  1.00  0.00     0.007 A 
HETATM    4  C2  UNK     1      18.698   5.918  31.391  1.00  0.00    -0.043 A 
HETATM    5  C3  UNK     1      18.278   4.439  33.316  1.00  0.00     0.090 A 
HETATM    6  C4  UNK     1      18.659   3.394  31.197  1.00  0.00     0.052 A 
HETATM    7  C5  UNK     1      18.503   2.139  31.798  1.00  0.00     0.082 A 
HETATM    8  C6  UNK     1      18.119   3.195  33.930  1.00  0.00     0.041 A 
HETATM    9  C7  UNK     1      18.574   6.976  32.203  1.00  0.00     0.090 A 
HETATM   10  C8  UNK     1      18.233   2.040  33.162  1.00  0.00     0.040 A 
HETATM   11  C9  UNK     1      18.990   6.092  29.928  1.00  0.00     0.049 C 
HETATM   12  C10 UNK     1      18.290   6.856  33.642  1.00  0.00     0.288 A 
ENDROOT
BRANCH   7  13
HETATM   13  O2  UNK     1      18.616   1.009  31.047  1.00  0.00    -0.256 OA
BRANCH  13  14
HETATM   14  C11 UNK     1      18.468   1.215  29.668  1.00  0.00     0.411 C 
HETATM   15  O5  UNK     1      17.447   1.612  29.120  1.00  0.00    -0.229 OA
BRANCH  14  16
HETATM   16  O3  UNK     1      19.639   0.902  29.043  1.00  0.00    -0.298 OA
BRANCH  16  17
HETATM   17  C12 UNK     1      19.730  -0.432  28.532  1.00  0.00     0.176 C 
HETATM   18  C13 UNK     1      20.675  -1.229  29.405  1.00  0.00     0.034 C 
ENDBRANCH  16  17
ENDBRANCH  14  16
ENDBRANCH  13  14
ENDBRANCH   7  13
TORSDOF 4
ENDMDL
MODEL 8
REMARK VINA RESULT:      -6.8      3.195      4.431
REMARK  4 active torsions:
REMARK  status: ('A' for Active; 'I' for Inactive)
REMARK    1  A    between atoms: C11_16  and  O2_2 
REMARK    2  A    between atoms: C5_10  and  O2_2 
REMARK    3  A    between atoms: C11_16  and  O3_3 
REMARK    4  A    between atoms: C12_17  and  O3_3 
ROOT
HETATM    1  O1  UNK     1      19.523   6.463  31.753  1.00  0.00    -0.275 OA
HETATM    2  O4  UNK     1      19.980   7.832  33.527  1.00  0.00    -0.260 OA
HETATM    3  C1  UNK     1      18.613   4.234  32.166  1.00  0.00     0.007 A 
HETATM    4  C2  UNK     1      18.654   4.513  33.608  1.00  0.00    -0.043 A 
HETATM    5  C3  UNK     1      19.051   5.222  31.282  1.00  0.00     0.090 A 
HETATM    6  C4  UNK     1      18.158   3.028  31.619  1.00  0.00     0.052 A 
HETATM    7  C5  UNK     1      18.146   2.829  30.234  1.00  0.00     0.082 A 
HETATM    8  C6  UNK     1      19.046   5.039  29.898  1.00  0.00     0.041 A 
HETATM    9  C7  UNK     1      19.108   5.702  34.027  1.00  0.00     0.090 A 
HETATM   10  C8  UNK     1      18.590   3.833  29.374  1.00  0.00     0.040 A 
HETATM   11  C9  UNK     1      18.191   3.472  34.586  1.00  0.00     0.049 C 
HETATM   12  C10 UNK     1      19.571   6.755  33.107  1.00  0.00     0.288 A 
ENDROOT
BRANCH   7  13
HETATM   13  O2  UNK     1      17.699   1.650  29.722  1.00  0.00    -0.256 OA
BRANCH  13  14
HETATM   14  C11 UNK     1      18.663   0.932  28.999  1.00  0.00     0.411 C 
HETATM   15  O5  UNK     1      18.565   0.612  27.820  1.00  0.00    -0.229 OA
BRANCH  14  16
HETATM   16  O3  UNK     1      19.717   0.652  29.818  1.00  0.00    -0.298 OA
BRANCH  16  17
HETATM   17  C12 UNK     1      20.526  -0.461  29.425  1.00  0.00     0.176 C 
HETATM   18  C13 UNK     1      20.406  -1.550  30.469  1.00  0.00     0.034 C 
ENDBRANCH  16  17
ENDBRANCH  14  16
ENDBRANCH  13  14
ENDBRANCH   7  13
TORSDOF 4
ENDMDL
MODEL 9
REMARK VINA RESULT:      -6.8      3.349      7.756
REMARK  4 active torsions:
REMARK  status: ('A' for Active; 'I' for Inactive)
REMARK    1  A    between atoms: C11_16  and  O2_2 
REMARK    2  A    between atoms: C5_10  and  O2_2 
REMARK    3  A    between atoms: C11_16  and  O3_3 
REMARK    4  A    between atoms: C12_17  and  O3_3 
ROOT
HETATM    1  O1  UNK     1      20.063  -0.508  29.876  1.00  0.00    -0.275 OA
HETATM    2  O4  UNK     1      20.854  -2.643  30.094  1.00  0.00    -0.260 OA
HETATM    3  C1  UNK     1      18.902   0.536  31.754  1.00  0.00     0.007 A 
HETATM    4  C2  UNK     1      19.103  -0.696  32.529  1.00  0.00    -0.043 A 
HETATM    5  C3  UNK     1      19.391   0.590  30.448  1.00  0.00     0.090 A 
HETATM    6  C4  UNK     1      18.246   1.670  32.250  1.00  0.00     0.052 A 
HETATM    7  C5  UNK     1      18.090   2.811  31.456  1.00  0.00     0.082 A 
HETATM    8  C6  UNK     1      19.243   1.721  29.642  1.00  0.00     0.041 A 
HETATM    9  C7  UNK     1      19.747  -1.724  31.959  1.00  0.00     0.090 A 
HETATM   10  C8  UNK     1      18.587   2.837  30.153  1.00  0.00     0.040 A 
HETATM   11  C9  UNK     1      18.590  -0.787  33.937  1.00  0.00     0.049 C 
HETATM   12  C10 UNK     1      20.269  -1.682  30.583  1.00  0.00     0.288 A 
ENDROOT
BRANCH   7  13
HETATM   13  O2  UNK     1      17.449   3.903  31.956  1.00  0.00    -0.256 OA
BRANCH  13  14
HETATM   14  C11 UNK     1      18.278   4.789  32.658  1.00  0.00     0.411 C 
HETATM   15  O5  UNK     1      18.704   4.607  33.792  1.00  0.00    -0.229 OA
BRANCH  14  16
HETATM   16  O3  UNK     1      18.530   5.877  31.875  1.00  0.00    -0.298 OA
BRANCH  16  17
HETATM   17  C12 UNK     1      19.913   6.196  31.687  1.00  0.00     0.176 C 
HETATM   18  C13 UNK     1      20.297   5.892  30.254  1.00  0.00     0.034 C 
ENDBRANCH  16  17
ENDBRANCH  14  16
ENDBRANCH  13  14
ENDBRANCH   7  13
TORSDOF 4
ENDMDL
MODEL 10
REMARK VINA RESULT:      -6.8     22.128     24.952
REMARK  4 active torsions:
REMARK  status: ('A' for Active; 'I' for Inactive)
REMARK    1  A    between atoms: C11_16  and  O2_2 
REMARK    2  A    between atoms: C5_10  and  O2_2 
REMARK    3  A    between atoms: C11_16  and  O3_3 
REMARK    4  A    between atoms: C12_17  and  O3_3 
ROOT
HETATM    1  O1  UNK     1       9.299   5.473   9.533  1.00  0.00    -0.275 OA
HETATM    2  O4  UNK     1       7.079   5.740   9.051  1.00  0.00    -0.260 OA
HETATM    3  C1  UNK     1      10.955   5.833   7.775  1.00  0.00     0.007 A 
HETATM    4  C2  UNK     1       9.862   6.145   6.844  1.00  0.00    -0.043 A 
HETATM    5  C3  UNK     1      10.637   5.506   9.094  1.00  0.00     0.090 A 
HETATM    6  C4  UNK     1      12.310   5.844   7.417  1.00  0.00     0.052 A 
HETATM    7  C5  UNK     1      13.301   5.537   8.355  1.00  0.00     0.082 A 
HETATM    8  C6  UNK     1      11.614   5.196  10.042  1.00  0.00     0.041 A 
HETATM    9  C7  UNK     1       8.599   6.106   7.290  1.00  0.00     0.090 A 
HETATM   10  C8  UNK     1      12.954   5.213   9.667  1.00  0.00     0.040 A 
HETATM   11  C9  UNK     1      10.170   6.500   5.418  1.00  0.00     0.049 C 
HETATM   12  C10 UNK     1       8.247   5.765   8.678  1.00  0.00     0.288 A 
ENDROOT
BRANCH   7  13
HETATM   13  O2  UNK     1      14.611   5.553   7.988  1.00  0.00    -0.256 OA
BRANCH  13  14
HETATM   14  C11 UNK     1      15.507   5.737   9.051  1.00  0.00     0.411 C 
HETATM   15  O5  UNK     1      16.219   4.863   9.531  1.00  0.00    -0.229 OA
BRANCH  14  16
HETATM   16  O3  UNK     1      15.456   7.038   9.456  1.00  0.00    -0.298 OA
BRANCH  16  17
HETATM   17  C12 UNK     1      16.489   7.445  10.359  1.00  0.00     0.176 C 
HETATM   18  C13 UNK     1      15.854   8.063  11.587  1.00  0.00     0.034 C 
ENDBRANCH  16  17
ENDBRANCH  14  16
ENDBRANCH  13  14
ENDBRANCH   7  13
TORSDOF 4
ENDMDL
