MODEL 1
REMARK VINA RESULT:      -9.4      0.000      0.000
REMARK  2 active torsions:
REMARK  status: ('A' for Active; 'I' for Inactive)
REMARK       I    between atoms: C5_11  and  N1_6 
REMARK    1  A    between atoms: C7_13  and  N1_6 
REMARK    2  A    between atoms: C2_8  and  C5_11 
ROOT
HETATM    1  O2  UNK     1      17.619   3.305  32.855  1.00  0.00    -0.267 OA
HETATM    2  N1  UNK     1      18.644   4.802  31.354  1.00  0.00    -0.323 N 
HETATM    3  C5  UNK     1      18.255   3.559  31.833  1.00  0.00     0.262 C 
HETATM    4  H4  UNK     1      19.152   4.843  30.473  1.00  0.00     0.169 HD
ENDROOT
BRANCH   3   5
HETATM    5  C2  UNK     1      18.695   2.465  30.960  1.00  0.00     0.108 A 
HETATM    6  C4  UNK     1      19.104   1.348  31.570  1.00  0.00     0.037 A 
HETATM    7  C1  UNK     1      19.559   0.208  30.788  1.00  0.00    -0.001 A 
HETATM    8  C3  UNK     1      19.561   0.302  29.400  1.00  0.00     0.089 A 
HETATM    9  C6  UNK     1      19.995  -0.978  31.384  1.00  0.00     0.014 A 
HETATM   10  O1  UNK     1      19.127   1.481  28.763  1.00  0.00    -0.274 OA
HETATM   11  C9  UNK     1      19.983  -0.752  28.594  1.00  0.00     0.038 A 
HETATM   12  C8  UNK     1      18.687   2.588  29.484  1.00  0.00     0.304 A 
HETATM   13  O3  UNK     1      18.313   3.610  28.920  1.00  0.00    -0.259 OA
HETATM   14  C11 UNK     1      20.417  -1.931  29.195  1.00  0.00     0.003 A 
HETATM   15  C10 UNK     1      20.422  -2.044  30.587  1.00  0.00     0.001 A 
ENDBRANCH   3   5
BRANCH   2  16
HETATM   16  C7  UNK     1      18.393   6.069  31.935  1.00  0.00     0.036 A 
HETATM   17  C12 UNK     1      19.345   6.632  32.768  1.00  0.00     0.056 A 
HETATM   18  C14 UNK     1      19.098   7.880  33.341  1.00  0.00     0.074 A 
HETATM   19 Cl1  UNK     1      20.271   8.592  34.379  1.00  0.00    -0.081 Cl
HETATM   20  C16 UNK     1      17.902   8.545  33.072  1.00  0.00     0.138 A 
HETATM   21  C15 UNK     1      16.954   7.964  32.229  1.00  0.00     0.046 A 
HETATM   22  F1  UNK     1      17.649   9.744  33.615  1.00  0.00    -0.204 F 
HETATM   23  C13 UNK     1      17.201   6.717  31.657  1.00  0.00     0.032 A 
ENDBRANCH   2  16
TORSDOF 2
ENDMDL
MODEL 2
REMARK VINA RESULT:      -9.3      9.008     12.060
REMARK  2 active torsions:
REMARK  status: ('A' for Active; 'I' for Inactive)
REMARK       I    between atoms: C5_11  and  N1_6 
REMARK    1  A    between atoms: C7_13  and  N1_6 
REMARK    2  A    between atoms: C2_8  and  C5_11 
ROOT
HETATM    1  O2  UNK     1      21.256  -4.364  37.189  1.00  0.00    -0.267 OA
HETATM    2  N1  UNK     1      19.331  -5.264  36.174  1.00  0.00    -0.323 N 
HETATM    3  C5  UNK     1      20.196  -4.255  36.574  1.00  0.00     0.262 C 
HETATM    4  H4  UNK     1      18.498  -5.007  35.649  1.00  0.00     0.169 HD
ENDROOT
BRANCH   3   5
HETATM    5  C2  UNK     1      19.719  -2.926  36.178  1.00  0.00     0.108 A 
HETATM    6  C4  UNK     1      19.020  -2.250  37.096  1.00  0.00     0.037 A 
HETATM    7  C1  UNK     1      18.503  -0.923  36.796  1.00  0.00    -0.001 A 
HETATM    8  C3  UNK     1      18.749  -0.373  35.542  1.00  0.00     0.089 A 
HETATM    9  C6  UNK     1      17.768  -0.182  37.725  1.00  0.00     0.014 A 
HETATM   10  O1  UNK     1      19.487  -1.089  34.580  1.00  0.00    -0.274 OA
HETATM   11  C9  UNK     1      18.284   0.893  35.192  1.00  0.00     0.038 A 
HETATM   12  C8  UNK     1      19.993  -2.360  34.837  1.00  0.00     0.304 A 
HETATM   13  O3  UNK     1      20.633  -2.976  33.992  1.00  0.00    -0.259 OA
HETATM   14  C11 UNK     1      17.552   1.625  36.124  1.00  0.00     0.003 A 
HETATM   15  C10 UNK     1      17.294   1.089  37.387  1.00  0.00     0.001 A 
ENDBRANCH   3   5
BRANCH   2  16
HETATM   16  C7  UNK     1      19.473  -6.658  36.383  1.00  0.00     0.036 A 
HETATM   17  C12 UNK     1      20.374  -7.370  35.611  1.00  0.00     0.056 A 
HETATM   18  C14 UNK     1      20.512  -8.744  35.816  1.00  0.00     0.074 A 
HETATM   19 Cl1  UNK     1      21.627  -9.643  34.863  1.00  0.00    -0.081 Cl
HETATM   20  C16 UNK     1      19.748  -9.382  36.792  1.00  0.00     0.138 A 
HETATM   21  C15 UNK     1      18.845  -8.649  37.563  1.00  0.00     0.046 A 
HETATM   22  F1  UNK     1      19.868 -10.701  37.002  1.00  0.00    -0.204 F 
HETATM   23  C13 UNK     1      18.707  -7.276  37.357  1.00  0.00     0.032 A 
ENDBRANCH   2  16
TORSDOF 2
ENDMDL
MODEL 3
REMARK VINA RESULT:      -9.3      3.786      8.116
REMARK  2 active torsions:
REMARK  status: ('A' for Active; 'I' for Inactive)
REMARK       I    between atoms: C5_11  and  N1_6 
REMARK    1  A    between atoms: C7_13  and  N1_6 
REMARK    2  A    between atoms: C2_8  and  C5_11 
ROOT
HETATM    1  O2  UNK     1      19.594   5.069  30.565  1.00  0.00    -0.267 OA
HETATM    2  N1  UNK     1      18.056   3.395  31.179  1.00  0.00    -0.323 N 
HETATM    3  C5  UNK     1      18.629   4.658  31.208  1.00  0.00     0.262 C 
HETATM    4  H4  UNK     1      17.241   3.220  31.763  1.00  0.00     0.169 HD
ENDROOT
BRANCH   3   5
HETATM    5  C2  UNK     1      17.944   5.556  32.145  1.00  0.00     0.108 A 
HETATM    6  C4  UNK     1      17.260   6.569  31.601  1.00  0.00     0.037 A 
HETATM    7  C1  UNK     1      16.548   7.513  32.448  1.00  0.00    -0.001 A 
HETATM    8  C3  UNK     1      16.591   7.343  33.829  1.00  0.00     0.089 A 
HETATM    9  C6  UNK     1      15.822   8.585  31.923  1.00  0.00     0.014 A 
HETATM   10  O1  UNK     1      17.312   6.274  34.395  1.00  0.00    -0.274 OA
HETATM   11  C9  UNK     1      15.930   8.210  34.695  1.00  0.00     0.038 A 
HETATM   12  C8  UNK     1      18.003   5.356  33.611  1.00  0.00     0.304 A 
HETATM   13  O3  UNK     1      18.629   4.429  34.114  1.00  0.00    -0.259 OA
HETATM   14  C11 UNK     1      15.209   9.277  34.164  1.00  0.00     0.003 A 
HETATM   15  C10 UNK     1      15.154   9.464  32.781  1.00  0.00     0.001 A 
ENDBRANCH   3   5
BRANCH   2  16
HETATM   16  C7  UNK     1      18.454   2.283  30.396  1.00  0.00     0.036 A 
HETATM   17  C12 UNK     1      19.326   1.352  30.935  1.00  0.00     0.056 A 
HETATM   18  C14 UNK     1      19.719   0.259  30.163  1.00  0.00     0.074 A 
HETATM   19 Cl1  UNK     1      20.803  -0.906  30.819  1.00  0.00    -0.081 Cl
HETATM   20  C16 UNK     1      19.233   0.112  28.864  1.00  0.00     0.138 A 
HETATM   21  C15 UNK     1      18.354   1.058  28.337  1.00  0.00     0.046 A 
HETATM   22  F1  UNK     1      19.600  -0.933  28.109  1.00  0.00    -0.204 F 
HETATM   23  C13 UNK     1      17.961   2.152  29.109  1.00  0.00     0.032 A 
ENDBRANCH   2  16
TORSDOF 2
ENDMDL
MODEL 4
REMARK VINA RESULT:      -9.2      9.222     11.972
REMARK  2 active torsions:
REMARK  status: ('A' for Active; 'I' for Inactive)
REMARK       I    between atoms: C5_11  and  N1_6 
REMARK    1  A    between atoms: C7_13  and  N1_6 
REMARK    2  A    between atoms: C2_8  and  C5_11 
ROOT
HETATM    1  O2  UNK     1      20.122  -5.108  35.456  1.00  0.00    -0.267 OA
HETATM    2  N1  UNK     1      20.294  -4.534  37.733  1.00  0.00    -0.323 N 
HETATM    3  C5  UNK     1      20.046  -4.307  36.386  1.00  0.00     0.262 C 
HETATM    4  H4  UNK     1      20.163  -3.764  38.385  1.00  0.00     0.169 HD
ENDROOT
BRANCH   3   5
HETATM    5  C2  UNK     1      19.648  -2.920  36.122  1.00  0.00     0.108 A 
HETATM    6  C4  UNK     1      18.924  -2.320  37.074  1.00  0.00     0.037 A 
HETATM    7  C1  UNK     1      18.482  -0.945  36.903  1.00  0.00    -0.001 A 
HETATM    8  C3  UNK     1      18.825  -0.268  35.736  1.00  0.00     0.089 A 
HETATM    9  C6  UNK     1      17.725  -0.280  37.870  1.00  0.00     0.014 A 
HETATM   10  O1  UNK     1      19.588  -0.905  34.738  1.00  0.00    -0.274 OA
HETATM   11  C9  UNK     1      18.434   1.050  35.511  1.00  0.00     0.038 A 
HETATM   12  C8  UNK     1      20.024  -2.220  34.873  1.00  0.00     0.304 A 
HETATM   13  O3  UNK     1      20.687  -2.765  33.998  1.00  0.00    -0.259 OA
HETATM   14  C11 UNK     1      17.679   1.706  36.480  1.00  0.00     0.003 A 
HETATM   15  C10 UNK     1      17.325   1.043  37.658  1.00  0.00     0.001 A 
ENDBRANCH   3   5
BRANCH   2  16
HETATM   16  C7  UNK     1      20.694  -5.747  38.346  1.00  0.00     0.036 A 
HETATM   17  C12 UNK     1      22.040  -6.070  38.391  1.00  0.00     0.056 A 
HETATM   18  C14 UNK     1      22.433  -7.266  38.993  1.00  0.00     0.074 A 
HETATM   19 Cl1  UNK     1      24.102  -7.683  39.057  1.00  0.00    -0.081 Cl
HETATM   20  C16 UNK     1      21.476  -8.118  39.542  1.00  0.00     0.138 A 
HETATM   21  C15 UNK     1      20.124  -7.776  39.489  1.00  0.00     0.046 A 
HETATM   22  F1  UNK     1      21.837  -9.270  40.124  1.00  0.00    -0.204 F 
HETATM   23  C13 UNK     1      19.730  -6.581  38.886  1.00  0.00     0.032 A 
ENDBRANCH   2  16
TORSDOF 2
ENDMDL
MODEL 5
REMARK VINA RESULT:      -9.1      1.172      2.071
REMARK  2 active torsions:
REMARK  status: ('A' for Active; 'I' for Inactive)
REMARK       I    between atoms: C5_11  and  N1_6 
REMARK    1  A    between atoms: C7_13  and  N1_6 
REMARK    2  A    between atoms: C2_8  and  C5_11 
ROOT
HETATM    1  O2  UNK     1      18.256   4.517  30.318  1.00  0.00    -0.267 OA
HETATM    2  N1  UNK     1      18.356   4.607  32.668  1.00  0.00    -0.323 N 
HETATM    3  C5  UNK     1      18.412   3.999  31.422  1.00  0.00     0.262 C 
HETATM    4  H4  UNK     1      18.531   4.037  33.493  1.00  0.00     0.169 HD
ENDROOT
BRANCH   3   5
HETATM    5  C2  UNK     1      18.695   2.563  31.519  1.00  0.00     0.108 A 
HETATM    6  C4  UNK     1      19.271   2.000  30.450  1.00  0.00     0.037 A 
HETATM    7  C1  UNK     1      19.591   0.581  30.451  1.00  0.00    -0.001 A 
HETATM    8  C3  UNK     1      19.289  -0.177  31.578  1.00  0.00     0.089 A 
HETATM    9  C6  UNK     1      20.191  -0.048  29.357  1.00  0.00     0.014 A 
HETATM   10  O1  UNK     1      18.684   0.422  32.700  1.00  0.00    -0.274 OA
HETATM   11  C9  UNK     1      19.570  -1.539  31.644  1.00  0.00     0.038 A 
HETATM   12  C8  UNK     1      18.365   1.777  32.729  1.00  0.00     0.304 A 
HETATM   13  O3  UNK     1      17.838   2.288  33.711  1.00  0.00    -0.259 OA
HETATM   14  C11 UNK     1      20.168  -2.159  30.549  1.00  0.00     0.003 A 
HETATM   15  C10 UNK     1      20.479  -1.415  29.408  1.00  0.00     0.001 A 
ENDBRANCH   3   5
BRANCH   2  16
HETATM   16  C7  UNK     1      18.107   5.972  32.953  1.00  0.00     0.036 A 
HETATM   17  C12 UNK     1      19.112   6.742  33.513  1.00  0.00     0.056 A 
HETATM   18  C14 UNK     1      18.865   8.086  33.796  1.00  0.00     0.074 A 
HETATM   19 Cl1  UNK     1      20.105   9.056  34.492  1.00  0.00    -0.081 Cl
HETATM   20  C16 UNK     1      17.617   8.640  33.513  1.00  0.00     0.138 A 
HETATM   21  C15 UNK     1      16.615   7.850  32.947  1.00  0.00     0.046 A 
HETATM   22  F1  UNK     1      17.363   9.929  33.778  1.00  0.00    -0.204 F 
HETATM   23  C13 UNK     1      16.862   6.506  32.666  1.00  0.00     0.032 A 
ENDBRANCH   2  16
TORSDOF 2
ENDMDL
MODEL 6
REMARK VINA RESULT:      -9.0      3.796      7.840
REMARK  2 active torsions:
REMARK  status: ('A' for Active; 'I' for Inactive)
REMARK       I    between atoms: C5_11  and  N1_6 
REMARK    1  A    between atoms: C7_13  and  N1_6 
REMARK    2  A    between atoms: C2_8  and  C5_11 
ROOT
HETATM    1  O2  UNK     1      17.941   3.218  33.012  1.00  0.00    -0.267 OA
HETATM    2  N1  UNK     1      18.470   3.950  30.837  1.00  0.00    -0.323 N 
HETATM    3  C5  UNK     1      18.150   4.099  32.179  1.00  0.00     0.262 C 
HETATM    4  H4  UNK     1      18.634   4.788  30.283  1.00  0.00     0.169 HD
ENDROOT
BRANCH   3   5
HETATM    5  C2  UNK     1      18.071   5.509  32.577  1.00  0.00     0.108 A 
HETATM    6  C4  UNK     1      19.186   6.043  33.089  1.00  0.00     0.037 A 
HETATM    7  C1  UNK     1      19.206   7.434  33.513  1.00  0.00    -0.001 A 
HETATM    8  C3  UNK     1      18.050   8.196  33.376  1.00  0.00     0.089 A 
HETATM    9  C6  UNK     1      20.348   8.032  34.053  1.00  0.00     0.014 A 
HETATM   10  O1  UNK     1      16.880   7.629  32.835  1.00  0.00    -0.274 OA
HETATM   11  C9  UNK     1      18.003   9.534  33.761  1.00  0.00     0.038 A 
HETATM   12  C8  UNK     1      16.830   6.301  32.421  1.00  0.00     0.304 A 
HETATM   13  O3  UNK     1      15.806   5.816  31.953  1.00  0.00    -0.259 OA
HETATM   14  C11 UNK     1      19.145  10.123  34.299  1.00  0.00     0.003 A 
HETATM   15  C10 UNK     1      20.315   9.374  34.445  1.00  0.00     0.001 A 
ENDBRANCH   3   5
BRANCH   2  16
HETATM   16  C7  UNK     1      18.629   2.741  30.116  1.00  0.00     0.036 A 
HETATM   17  C12 UNK     1      19.501   1.777  30.594  1.00  0.00     0.056 A 
HETATM   18  C14 UNK     1      19.659   0.588  29.882  1.00  0.00     0.074 A 
HETATM   19 Cl1  UNK     1      20.740  -0.619  30.463  1.00  0.00    -0.081 Cl
HETATM   20  C16 UNK     1      18.942   0.380  28.704  1.00  0.00     0.138 A 
HETATM   21  C15 UNK     1      18.067   1.361  28.238  1.00  0.00     0.046 A 
HETATM   22  F1  UNK     1      19.083  -0.757  28.008  1.00  0.00    -0.204 F 
HETATM   23  C13 UNK     1      17.909   2.551  28.948  1.00  0.00     0.032 A 
ENDBRANCH   2  16
TORSDOF 2
ENDMDL
MODEL 7
REMARK VINA RESULT:      -9.0      8.355     10.110
REMARK  2 active torsions:
REMARK  status: ('A' for Active; 'I' for Inactive)
REMARK       I    between atoms: C5_11  and  N1_6 
REMARK    1  A    between atoms: C7_13  and  N1_6 
REMARK    2  A    between atoms: C2_8  and  C5_11 
ROOT
HETATM    1  O2  UNK     1      21.197  -3.431  36.571  1.00  0.00    -0.267 OA
HETATM    2  N1  UNK     1      18.845  -3.454  36.676  1.00  0.00    -0.323 N 
HETATM    3  C5  UNK     1      20.115  -4.011  36.639  1.00  0.00     0.262 C 
HETATM    4  H4  UNK     1      18.045  -4.077  36.754  1.00  0.00     0.169 HD
ENDROOT
BRANCH   3   5
HETATM    5  C2  UNK     1      20.078  -5.477  36.692  1.00  0.00     0.108 A 
HETATM    6  C4  UNK     1      19.978  -6.023  37.909  1.00  0.00     0.037 A 
HETATM    7  C1  UNK     1      19.935  -7.469  38.064  1.00  0.00    -0.001 A 
HETATM    8  C3  UNK     1      19.999  -8.270  36.928  1.00  0.00     0.089 A 
HETATM    9  C6  UNK     1      19.831  -8.082  39.315  1.00  0.00     0.014 A 
HETATM   10  O1  UNK     1      20.103  -7.689  35.649  1.00  0.00    -0.274 OA
HETATM   11  C9  UNK     1      19.961  -9.660  37.007  1.00  0.00     0.038 A 
HETATM   12  C8  UNK     1      20.147  -6.309  35.469  1.00  0.00     0.304 A 
HETATM   13  O3  UNK     1      20.239  -5.814  34.351  1.00  0.00    -0.259 OA
HETATM   14  C11 UNK     1      19.858 -10.263  38.258  1.00  0.00     0.003 A 
HETATM   15  C10 UNK     1      19.793  -9.476  39.410  1.00  0.00     0.001 A 
ENDBRANCH   3   5
BRANCH   2  16
HETATM   16  C7  UNK     1      18.504  -2.079  36.644  1.00  0.00     0.036 A 
HETATM   17  C12 UNK     1      18.571  -1.393  35.443  1.00  0.00     0.056 A 
HETATM   18  C14 UNK     1      18.236  -0.038  35.412  1.00  0.00     0.074 A 
HETATM   19 Cl1  UNK     1      18.315   0.829  33.928  1.00  0.00    -0.081 Cl
HETATM   20  C16 UNK     1      17.839   0.608  36.582  1.00  0.00     0.138 A 
HETATM   21  C15 UNK     1      17.775  -0.099  37.783  1.00  0.00     0.046 A 
HETATM   22  F1  UNK     1      17.514   1.908  36.570  1.00  0.00    -0.204 F 
HETATM   23  C13 UNK     1      18.111  -1.453  37.814  1.00  0.00     0.032 A 
ENDBRANCH   2  16
TORSDOF 2
ENDMDL
MODEL 8
REMARK VINA RESULT:      -9.0      4.099      7.842
REMARK  2 active torsions:
REMARK  status: ('A' for Active; 'I' for Inactive)
REMARK       I    between atoms: C5_11  and  N1_6 
REMARK    1  A    between atoms: C7_13  and  N1_6 
REMARK    2  A    between atoms: C2_8  and  C5_11 
ROOT
HETATM    1  O2  UNK     1      17.088   2.623  30.702  1.00  0.00    -0.267 OA
HETATM    2  N1  UNK     1      19.425   2.408  30.901  1.00  0.00    -0.323 N 
HETATM    3  C5  UNK     1      18.201   3.056  30.997  1.00  0.00     0.262 C 
HETATM    4  H4  UNK     1      20.259   2.903  31.209  1.00  0.00     0.169 HD
ENDROOT
BRANCH   3   5
HETATM    5  C2  UNK     1      18.336   4.419  31.523  1.00  0.00     0.108 A 
HETATM    6  C4  UNK     1      17.676   4.684  32.656  1.00  0.00     0.037 A 
HETATM    7  C1  UNK     1      17.747   6.008  33.255  1.00  0.00    -0.001 A 
HETATM    8  C3  UNK     1      18.511   6.989  32.630  1.00  0.00     0.089 A 
HETATM    9  C6  UNK     1      17.075   6.329  34.437  1.00  0.00     0.014 A 
HETATM   10  O1  UNK     1      19.204   6.703  31.437  1.00  0.00    -0.274 OA
HETATM   11  C9  UNK     1      18.622   8.276  33.151  1.00  0.00     0.038 A 
HETATM   12  C8  UNK     1      19.154   5.447  30.841  1.00  0.00     0.304 A 
HETATM   13  O3  UNK     1      19.761   5.209  29.801  1.00  0.00    -0.259 OA
HETATM   14  C11 UNK     1      17.948   8.588  34.330  1.00  0.00     0.003 A 
HETATM   15  C10 UNK     1      17.176   7.617  34.971  1.00  0.00     0.001 A 
ENDBRANCH   3   5
BRANCH   2  16
HETATM   16  C7  UNK     1      19.672   1.092  30.439  1.00  0.00     0.036 A 
HETATM   17  C12 UNK     1      20.054   0.117  31.346  1.00  0.00     0.056 A 
HETATM   18  C14 UNK     1      20.299  -1.179  30.890  1.00  0.00     0.074 A 
HETATM   19 Cl1  UNK     1      20.775  -2.401  32.004  1.00  0.00    -0.081 Cl
HETATM   20  C16 UNK     1      20.157  -1.480  29.536  1.00  0.00     0.138 A 
HETATM   21  C15 UNK     1      19.770  -0.486  28.637  1.00  0.00     0.046 A 
HETATM   22  F1  UNK     1      20.389  -2.720  29.082  1.00  0.00    -0.204 F 
HETATM   23  C13 UNK     1      19.526   0.810  29.092  1.00  0.00     0.032 A 
ENDBRANCH   2  16
TORSDOF 2
ENDMDL
MODEL 9
REMARK VINA RESULT:      -8.6     13.902     16.211
REMARK  2 active torsions:
REMARK  status: ('A' for Active; 'I' for Inactive)
REMARK       I    between atoms: C5_11  and  N1_6 
REMARK    1  A    between atoms: C7_13  and  N1_6 
REMARK    2  A    between atoms: C2_8  and  C5_11 
ROOT
HETATM    1  O2  UNK     1      16.882  -1.758  17.005  1.00  0.00    -0.267 OA
HETATM    2  N1  UNK     1      19.096  -0.959  16.943  1.00  0.00    -0.323 N 
HETATM    3  C5  UNK     1      18.010  -1.713  16.518  1.00  0.00     0.262 C 
HETATM    4  H4  UNK     1      19.963  -1.019  16.413  1.00  0.00     0.169 HD
ENDROOT
BRANCH   3   5
HETATM    5  C2  UNK     1      18.328  -2.528  15.341  1.00  0.00     0.108 A 
HETATM    6  C4  UNK     1      17.900  -3.795  15.365  1.00  0.00     0.037 A 
HETATM    7  C1  UNK     1      18.167  -4.682  14.243  1.00  0.00    -0.001 A 
HETATM    8  C3  UNK     1      18.872  -4.189  13.149  1.00  0.00     0.089 A 
HETATM    9  C6  UNK     1      17.740  -6.012  14.226  1.00  0.00     0.014 A 
HETATM   10  O1  UNK     1      19.319  -2.854  13.129  1.00  0.00    -0.274 OA
HETATM   11  C9  UNK     1      19.160  -4.985  12.042  1.00  0.00     0.038 A 
HETATM   12  C8  UNK     1      19.079  -1.982  14.187  1.00  0.00     0.304 A 
HETATM   13  O3  UNK     1      19.473  -0.821  14.160  1.00  0.00    -0.259 OA
HETATM   14  C11 UNK     1      18.731  -6.311  12.033  1.00  0.00     0.003 A 
HETATM   15  C10 UNK     1      18.022  -6.823  13.122  1.00  0.00     0.001 A 
ENDBRANCH   3   5
BRANCH   2  16
HETATM   16  C7  UNK     1      19.151  -0.065  18.039  1.00  0.00     0.036 A 
HETATM   17  C12 UNK     1      19.326   1.288  17.802  1.00  0.00     0.056 A 
HETATM   18  C14 UNK     1      19.382   2.169  18.882  1.00  0.00     0.074 A 
HETATM   19 Cl1  UNK     1      19.600   3.853  18.603  1.00  0.00    -0.081 Cl
HETATM   20  C16 UNK     1      19.261   1.683  20.184  1.00  0.00     0.138 A 
HETATM   21  C15 UNK     1      19.084   0.317  20.406  1.00  0.00     0.046 A 
HETATM   22  F1  UNK     1      19.313   2.516  21.233  1.00  0.00    -0.204 F 
HETATM   23  C13 UNK     1      19.029  -0.563  19.325  1.00  0.00     0.032 A 
ENDBRANCH   2  16
TORSDOF 2
ENDMDL
MODEL 10
REMARK VINA RESULT:      -8.6      8.457     10.178
REMARK  2 active torsions:
REMARK  status: ('A' for Active; 'I' for Inactive)
REMARK       I    between atoms: C5_11  and  N1_6 
REMARK    1  A    between atoms: C7_13  and  N1_6 
REMARK    2  A    between atoms: C2_8  and  C5_11 
ROOT
HETATM    1  O2  UNK     1      20.558  -3.418  35.741  1.00  0.00    -0.267 OA
HETATM    2  N1  UNK     1      18.831  -2.926  37.264  1.00  0.00    -0.323 N 
HETATM    3  C5  UNK     1      19.804  -3.715  36.666  1.00  0.00     0.262 C 
HETATM    4  H4  UNK     1      18.301  -3.317  38.040  1.00  0.00     0.169 HD
ENDROOT
BRANCH   3   5
HETATM    5  C2  UNK     1      19.881  -5.051  37.268  1.00  0.00     0.108 A 
HETATM    6  C4  UNK     1      20.982  -5.317  37.979  1.00  0.00     0.037 A 
HETATM    7  C1  UNK     1      21.150  -6.616  38.614  1.00  0.00    -0.001 A 
HETATM    8  C3  UNK     1      20.149  -7.570  38.468  1.00  0.00     0.089 A 
HETATM    9  C6  UNK     1      22.284  -6.937  39.365  1.00  0.00     0.014 A 
HETATM   10  O1  UNK     1      18.991  -7.283  37.720  1.00  0.00    -0.274 OA
HETATM   11  C9  UNK     1      20.247  -8.831  39.051  1.00  0.00     0.038 A 
HETATM   12  C8  UNK     1      18.802  -6.051  37.100  1.00  0.00     0.304 A 
HETATM   13  O3  UNK     1      17.791  -5.811  36.449  1.00  0.00    -0.259 OA
HETATM   14  C11 UNK     1      21.380  -9.144  39.798  1.00  0.00     0.003 A 
HETATM   15  C10 UNK     1      22.397  -8.199  39.955  1.00  0.00     0.001 A 
ENDBRANCH   3   5
BRANCH   2  16
HETATM   16  C7  UNK     1      18.483  -1.591  36.943  1.00  0.00     0.036 A 
HETATM   17  C12 UNK     1      18.599  -1.158  35.633  1.00  0.00     0.056 A 
HETATM   18  C14 UNK     1      18.258   0.158  35.317  1.00  0.00     0.074 A 
HETATM   19 Cl1  UNK     1      18.398   0.712  33.693  1.00  0.00    -0.081 Cl
HETATM   20  C16 UNK     1      17.806   1.019  36.316  1.00  0.00     0.138 A 
HETATM   21  C15 UNK     1      17.693   0.566  37.630  1.00  0.00     0.046 A 
HETATM   22  F1  UNK     1      17.474   2.286  36.029  1.00  0.00    -0.204 F 
HETATM   23  C13 UNK     1      18.035  -0.749  37.946  1.00  0.00     0.032 A 
ENDBRANCH   2  16
TORSDOF 2
ENDMDL
