MODEL 1
REMARK VINA RESULT:      -8.0      0.000      0.000
REMARK  3 active torsions:
REMARK  status: ('A' for Active; 'I' for Inactive)
REMARK    1  A    between atoms: C11_15  and  O3_3 
REMARK    2  A    between atoms: C15_19  and  O4_4 
REMARK    3  A    between atoms: C2_6  and  C5_9 
ROOT
HETATM    1  O1  UNK     1      19.001   6.245  30.586  1.00  0.00    -0.321 OA
HETATM    2  O2  UNK     1      17.784   2.938  32.642  1.00  0.00    -0.286 OA
HETATM    3  C1  UNK     1      18.042   5.278  32.595  1.00  0.00     0.049 A 
HETATM    4  C2  UNK     1      18.682   3.838  30.629  1.00  0.00     0.048 A 
HETATM    5  C3  UNK     1      18.484   6.370  31.850  1.00  0.00     0.091 A 
HETATM    6  C4  UNK     1      18.133   3.927  32.010  1.00  0.00     0.197 A 
HETATM    7  C6  UNK     1      19.061   4.984  30.044  1.00  0.00     0.159 A 
HETATM    8  C7  UNK     1      17.525   5.464  33.879  1.00  0.00     0.021 A 
HETATM    9  C8  UNK     1      18.412   7.656  32.385  1.00  0.00     0.074 A 
HETATM   10  C11 UNK     1      17.896   7.846  33.667  1.00  0.00     0.068 A 
HETATM   11  C12 UNK     1      17.453   6.753  34.412  1.00  0.00     0.037 A 
ENDROOT
BRANCH   4  12
HETATM   12  C5  UNK     1      18.791   2.556  29.915  1.00  0.00    -0.020 A 
HETATM   13  C10 UNK     1      19.720   1.600  30.332  1.00  0.00     0.015 A 
HETATM   14  C14 UNK     1      19.824   0.383  29.655  1.00  0.00     0.037 A 
HETATM   15  C15 UNK     1      18.999   0.122  28.560  1.00  0.00     0.065 A 
HETATM   16  C13 UNK     1      18.070   1.075  28.142  1.00  0.00     0.037 A 
HETATM   17  C9  UNK     1      17.967   2.291  28.820  1.00  0.00     0.015 A 
BRANCH  15  18
HETATM   18  O4  UNK     1      19.101  -1.064  27.901  1.00  0.00    -0.361 OA
HETATM   19  H10 UNK     1      19.330  -0.888  26.971  1.00  0.00     0.217 HD
ENDBRANCH  15  18
ENDBRANCH   4  12
BRANCH  10  20
HETATM   20  O3  UNK     1      17.822   9.100  34.191  1.00  0.00    -0.361 OA
HETATM   21  H9  UNK     1      17.419   9.693  33.534  1.00  0.00     0.217 HD
ENDBRANCH  10  20
TORSDOF 3
ENDMDL
MODEL 2
REMARK VINA RESULT:      -7.8      0.844      2.244
REMARK  3 active torsions:
REMARK  status: ('A' for Active; 'I' for Inactive)
REMARK    1  A    between atoms: C11_15  and  O3_3 
REMARK    2  A    between atoms: C15_19  and  O4_4 
REMARK    3  A    between atoms: C2_6  and  C5_9 
ROOT
HETATM    1  O1  UNK     1      17.904   3.676  33.574  1.00  0.00    -0.321 OA
HETATM    2  O2  UNK     1      19.028   4.896  29.847  1.00  0.00    -0.286 OA
HETATM    3  C1  UNK     1      18.521   5.479  32.072  1.00  0.00     0.049 A 
HETATM    4  C2  UNK     1      18.479   3.084  31.291  1.00  0.00     0.048 A 
HETATM    5  C3  UNK     1      18.125   5.005  33.321  1.00  0.00     0.091 A 
HETATM    6  C4  UNK     1      18.710   4.519  30.967  1.00  0.00     0.197 A 
HETATM    7  C6  UNK     1      18.103   2.790  32.544  1.00  0.00     0.159 A 
HETATM    8  C7  UNK     1      18.731   6.845  31.870  1.00  0.00     0.021 A 
HETATM    9  C8  UNK     1      17.936   5.895  34.378  1.00  0.00     0.074 A 
HETATM   10  C11 UNK     1      18.145   7.260  34.181  1.00  0.00     0.068 A 
HETATM   11  C12 UNK     1      18.542   7.734  32.930  1.00  0.00     0.037 A 
ENDROOT
BRANCH   4  12
HETATM   12  C5  UNK     1      18.670   2.020  30.291  1.00  0.00    -0.020 A 
HETATM   13  C10 UNK     1      17.902   2.010  29.125  1.00  0.00     0.015 A 
HETATM   14  C14 UNK     1      18.082   1.001  28.177  1.00  0.00     0.037 A 
HETATM   15  C15 UNK     1      19.031   0.001  28.394  1.00  0.00     0.065 A 
HETATM   16  C13 UNK     1      19.799   0.010  29.559  1.00  0.00     0.037 A 
HETATM   17  C9  UNK     1      19.618   1.018  30.506  1.00  0.00     0.015 A 
BRANCH  15  18
HETATM   18  O4  UNK     1      19.206  -0.982  27.471  1.00  0.00    -0.361 OA
HETATM   19  H10 UNK     1      18.421  -1.559  27.471  1.00  0.00     0.217 HD
ENDBRANCH  15  18
ENDBRANCH   4  12
BRANCH  10  20
HETATM   20  O3  UNK     1      17.963   8.132  35.211  1.00  0.00    -0.361 OA
HETATM   21  H9  UNK     1      18.690   8.024  35.847  1.00  0.00     0.217 HD
ENDBRANCH  10  20
TORSDOF 3
ENDMDL
MODEL 3
REMARK VINA RESULT:      -7.7      1.688      7.376
REMARK  3 active torsions:
REMARK  status: ('A' for Active; 'I' for Inactive)
REMARK    1  A    between atoms: C11_15  and  O3_3 
REMARK    2  A    between atoms: C15_19  and  O4_4 
REMARK    3  A    between atoms: C2_6  and  C5_9 
ROOT
HETATM    1  O1  UNK     1      18.251   3.965  33.378  1.00  0.00    -0.321 OA
HETATM    2  O2  UNK     1      19.272   6.765  30.591  1.00  0.00    -0.286 OA
HETATM    3  C1  UNK     1      18.745   4.520  31.068  1.00  0.00     0.049 A 
HETATM    4  C2  UNK     1      18.747   6.286  32.864  1.00  0.00     0.048 A 
HETATM    5  C3  UNK     1      18.408   3.606  32.065  1.00  0.00     0.091 A 
HETATM    6  C4  UNK     1      18.947   5.935  31.431  1.00  0.00     0.197 A 
HETATM    7  C6  UNK     1      18.421   5.290  33.700  1.00  0.00     0.159 A 
HETATM    8  C7  UNK     1      18.893   4.097  29.744  1.00  0.00     0.021 A 
HETATM    9  C8  UNK     1      18.217   2.261  31.744  1.00  0.00     0.074 A 
HETATM   10  C11 UNK     1      18.363   1.835  30.424  1.00  0.00     0.068 A 
HETATM   11  C12 UNK     1      18.700   2.751  29.427  1.00  0.00     0.037 A 
ENDROOT
BRANCH   4  12
HETATM   12  C5  UNK     1      18.879   7.668  33.353  1.00  0.00    -0.020 A 
HETATM   13  C10 UNK     1      17.809   8.558  33.234  1.00  0.00     0.015 A 
HETATM   14  C14 UNK     1      17.935   9.869  33.697  1.00  0.00     0.037 A 
HETATM   15  C15 UNK     1      19.130  10.292  34.279  1.00  0.00     0.065 A 
HETATM   16  C13 UNK     1      20.200   9.405  34.398  1.00  0.00     0.037 A 
HETATM   17  C9  UNK     1      20.074   8.094  33.935  1.00  0.00     0.015 A 
BRANCH  15  18
HETATM   18  O4  UNK     1      19.251  11.570  34.729  1.00  0.00    -0.361 OA
HETATM   19  H10 UNK     1      20.189  11.830  34.690  1.00  0.00     0.217 HD
ENDBRANCH  15  18
ENDBRANCH   4  12
BRANCH  10  20
HETATM   20  O3  UNK     1      18.176   0.525  30.108  1.00  0.00    -0.361 OA
HETATM   21  H9  UNK     1      17.616   0.113  30.788  1.00  0.00     0.217 HD
ENDBRANCH  10  20
TORSDOF 3
ENDMDL
MODEL 4
REMARK VINA RESULT:      -7.5      1.462      6.952
REMARK  3 active torsions:
REMARK  status: ('A' for Active; 'I' for Inactive)
REMARK    1  A    between atoms: C11_15  and  O3_3 
REMARK    2  A    between atoms: C15_19  and  O4_4 
REMARK    3  A    between atoms: C2_6  and  C5_9 
ROOT
HETATM    1  O1  UNK     1      18.472   1.574  32.922  1.00  0.00    -0.321 OA
HETATM    2  O2  UNK     1      18.938   4.099  29.751  1.00  0.00    -0.286 OA
HETATM    3  C1  UNK     1      19.020   1.896  30.579  1.00  0.00     0.049 A 
HETATM    4  C2  UNK     1      18.342   3.833  32.041  1.00  0.00     0.048 A 
HETATM    5  C3  UNK     1      18.856   1.084  31.700  1.00  0.00     0.091 A 
HETATM    6  C4  UNK     1      18.777   3.346  30.702  1.00  0.00     0.197 A 
HETATM    7  C6  UNK     1      18.228   2.922  33.018  1.00  0.00     0.159 A 
HETATM    8  C7  UNK     1      19.414   1.342  29.359  1.00  0.00     0.021 A 
HETATM    9  C8  UNK     1      19.085  -0.289  31.607  1.00  0.00     0.074 A 
HETATM   10  C11 UNK     1      19.479  -0.846  30.391  1.00  0.00     0.068 A 
HETATM   11  C12 UNK     1      19.642  -0.032  29.269  1.00  0.00     0.037 A 
ENDROOT
BRANCH   4  12
HETATM   12  C5  UNK     1      18.029   5.250  32.289  1.00  0.00    -0.020 A 
HETATM   13  C10 UNK     1      19.013   6.107  32.786  1.00  0.00     0.015 A 
HETATM   14  C14 UNK     1      18.716   7.451  33.023  1.00  0.00     0.037 A 
HETATM   15  C15 UNK     1      17.436   7.938  32.763  1.00  0.00     0.065 A 
HETATM   16  C13 UNK     1      16.451   7.083  32.267  1.00  0.00     0.037 A 
HETATM   17  C9  UNK     1      16.748   5.740  32.031  1.00  0.00     0.015 A 
BRANCH  15  18
HETATM   18  O4  UNK     1      17.147   9.248  32.994  1.00  0.00    -0.361 OA
HETATM   19  H10 UNK     1      17.901   9.792  32.706  1.00  0.00     0.217 HD
ENDBRANCH  15  18
ENDBRANCH   4  12
BRANCH  10  20
HETATM   20  O3  UNK     1      19.702  -2.185  30.296  1.00  0.00    -0.361 OA
HETATM   21  H9  UNK     1      20.567  -2.389  30.692  1.00  0.00     0.217 HD
ENDBRANCH  10  20
TORSDOF 3
ENDMDL
MODEL 5
REMARK VINA RESULT:      -7.4     21.583     23.992
REMARK  3 active torsions:
REMARK  status: ('A' for Active; 'I' for Inactive)
REMARK    1  A    between atoms: C11_15  and  O3_3 
REMARK    2  A    between atoms: C15_19  and  O4_4 
REMARK    3  A    between atoms: C2_6  and  C5_9 
ROOT
HETATM    1  O1  UNK     1      14.218   5.210   9.003  1.00  0.00    -0.321 OA
HETATM    2  O2  UNK     1      12.633   8.954   8.658  1.00  0.00    -0.286 OA
HETATM    3  C1  UNK     1      14.487   7.613   9.215  1.00  0.00     0.049 A 
HETATM    4  C2  UNK     1      12.331   6.608   8.384  1.00  0.00     0.048 A 
HETATM    5  C3  UNK     1      14.971   6.311   9.323  1.00  0.00     0.091 A 
HETATM    6  C4  UNK     1      13.107   7.828   8.739  1.00  0.00     0.197 A 
HETATM    7  C6  UNK     1      12.942   5.424   8.542  1.00  0.00     0.159 A 
HETATM    8  C7  UNK     1      15.299   8.698   9.556  1.00  0.00     0.021 A 
HETATM    9  C8  UNK     1      16.272   6.084   9.775  1.00  0.00     0.074 A 
HETATM   10  C11 UNK     1      17.085   7.164  10.116  1.00  0.00     0.068 A 
HETATM   11  C12 UNK     1      16.600   8.468  10.007  1.00  0.00     0.037 A 
ENDROOT
BRANCH   4  12
HETATM   12  C5  UNK     1      10.957   6.683   7.861  1.00  0.00    -0.020 A 
HETATM   13  C10 UNK     1      10.707   6.420   6.512  1.00  0.00     0.015 A 
HETATM   14  C14 UNK     1       9.404   6.492   6.016  1.00  0.00     0.037 A 
HETATM   15  C15 UNK     1       8.351   6.828   6.867  1.00  0.00     0.065 A 
HETATM   16  C13 UNK     1       8.599   7.092   8.214  1.00  0.00     0.037 A 
HETATM   17  C9  UNK     1       9.902   7.020   8.710  1.00  0.00     0.015 A 
BRANCH  15  18
HETATM   18  O4  UNK     1       7.081   6.899   6.382  1.00  0.00    -0.361 OA
HETATM   19  H10 UNK     1       6.560   7.493   6.950  1.00  0.00     0.217 HD
ENDBRANCH  15  18
ENDBRANCH   4  12
BRANCH  10  20
HETATM   20  O3  UNK     1      18.355   6.947  10.556  1.00  0.00    -0.361 OA
HETATM   21  H9  UNK     1      18.332   6.296  11.277  1.00  0.00     0.217 HD
ENDBRANCH  10  20
TORSDOF 3
ENDMDL
MODEL 6
REMARK VINA RESULT:      -7.4     22.987     24.655
REMARK  3 active torsions:
REMARK  status: ('A' for Active; 'I' for Inactive)
REMARK    1  A    between atoms: C11_15  and  O3_3 
REMARK    2  A    between atoms: C15_19  and  O4_4 
REMARK    3  A    between atoms: C2_6  and  C5_9 
ROOT
HETATM    1  O1  UNK     1      10.788   4.647   9.659  1.00  0.00    -0.321 OA
HETATM    2  O2  UNK     1       7.343   6.222   8.144  1.00  0.00    -0.286 OA
HETATM    3  C1  UNK     1       9.672   5.942   7.937  1.00  0.00     0.049 A 
HETATM    4  C2  UNK     1       8.379   4.901   9.833  1.00  0.00     0.048 A 
HETATM    5  C3  UNK     1      10.817   5.389   8.507  1.00  0.00     0.091 A 
HETATM    6  C4  UNK     1       8.368   5.729   8.595  1.00  0.00     0.197 A 
HETATM    7  C6  UNK     1       9.566   4.438  10.251  1.00  0.00     0.159 A 
HETATM    8  C7  UNK     1       9.761   6.691   6.761  1.00  0.00     0.021 A 
HETATM    9  C8  UNK     1      12.060   5.582   7.904  1.00  0.00     0.074 A 
HETATM   10  C11 UNK     1      12.153   6.329   6.729  1.00  0.00     0.068 A 
HETATM   11  C12 UNK     1      11.006   6.881   6.159  1.00  0.00     0.037 A 
ENDROOT
BRANCH   4  12
HETATM   12  C5  UNK     1       7.143   4.580  10.565  1.00  0.00    -0.020 A 
HETATM   13  C10 UNK     1       6.432   3.418  10.262  1.00  0.00     0.015 A 
HETATM   14  C14 UNK     1       5.260   3.113  10.956  1.00  0.00     0.037 A 
HETATM   15  C15 UNK     1       4.797   3.971  11.954  1.00  0.00     0.065 A 
HETATM   16  C13 UNK     1       5.507   5.133  12.259  1.00  0.00     0.037 A 
HETATM   17  C9  UNK     1       6.679   5.437  11.565  1.00  0.00     0.015 A 
BRANCH  15  18
HETATM   18  O4  UNK     1       3.655   3.674  12.630  1.00  0.00    -0.361 OA
HETATM   19  H10 UNK     1       3.795   2.858  13.142  1.00  0.00     0.217 HD
ENDBRANCH  15  18
ENDBRANCH   4  12
BRANCH  10  20
HETATM   20  O3  UNK     1      13.364   6.517   6.137  1.00  0.00    -0.361 OA
HETATM   21  H9  UNK     1      13.870   7.167   6.655  1.00  0.00     0.217 HD
ENDBRANCH  10  20
TORSDOF 3
ENDMDL
MODEL 7
REMARK VINA RESULT:      -7.4     22.225     24.395
REMARK  3 active torsions:
REMARK  status: ('A' for Active; 'I' for Inactive)
REMARK    1  A    between atoms: C11_15  and  O3_3 
REMARK    2  A    between atoms: C15_19  and  O4_4 
REMARK    3  A    between atoms: C2_6  and  C5_9 
ROOT
HETATM    1  O1  UNK     1      11.020   8.208   9.761  1.00  0.00    -0.321 OA
HETATM    2  O2  UNK     1      13.672   7.268   6.807  1.00  0.00    -0.286 OA
HETATM    3  C1  UNK     1      11.467   7.147   7.625  1.00  0.00     0.049 A 
HETATM    4  C2  UNK     1      13.277   8.369   8.881  1.00  0.00     0.048 A 
HETATM    5  C3  UNK     1      10.610   7.487   8.670  1.00  0.00     0.091 A 
HETATM    6  C4  UNK     1      12.879   7.572   7.689  1.00  0.00     0.197 A 
HETATM    7  C6  UNK     1      12.331   8.616   9.799  1.00  0.00     0.159 A 
HETATM    8  C7  UNK     1      10.994   6.409   6.537  1.00  0.00     0.021 A 
HETATM    9  C8  UNK     1       9.272   7.092   8.632  1.00  0.00     0.074 A 
HETATM   10  C11 UNK     1       8.796   6.356   7.547  1.00  0.00     0.068 A 
HETATM   11  C12 UNK     1       9.656   6.016   6.502  1.00  0.00     0.037 A 
ENDROOT
BRANCH   4  12
HETATM   12  C5  UNK     1      14.644   8.888   9.049  1.00  0.00    -0.020 A 
HETATM   13  C10 UNK     1      15.588   8.152   9.769  1.00  0.00     0.015 A 
HETATM   14  C14 UNK     1      16.885   8.644   9.930  1.00  0.00     0.037 A 
HETATM   15  C15 UNK     1      17.239   9.872   9.370  1.00  0.00     0.065 A 
HETATM   16  C13 UNK     1      16.297  10.608   8.651  1.00  0.00     0.037 A 
HETATM   17  C9  UNK     1      15.001  10.116   8.491  1.00  0.00     0.015 A 
BRANCH  15  18
HETATM   18  O4  UNK     1      18.503  10.351   9.527  1.00  0.00    -0.361 OA
HETATM   19  H10 UNK     1      18.994   9.755  10.120  1.00  0.00     0.217 HD
ENDBRANCH  15  18
ENDBRANCH   4  12
BRANCH  10  20
HETATM   20  O3  UNK     1       7.492   5.970   7.507  1.00  0.00    -0.361 OA
HETATM   21  H9  UNK     1       7.412   5.186   6.936  1.00  0.00     0.217 HD
ENDBRANCH  10  20
TORSDOF 3
ENDMDL
MODEL 8
REMARK VINA RESULT:      -7.4      2.769      4.750
REMARK  3 active torsions:
REMARK  status: ('A' for Active; 'I' for Inactive)
REMARK    1  A    between atoms: C11_15  and  O3_3 
REMARK    2  A    between atoms: C15_19  and  O4_4 
REMARK    3  A    between atoms: C2_6  and  C5_9 
ROOT
HETATM    1  O1  UNK     1      17.979   9.355  34.059  1.00  0.00    -0.321 OA
HETATM    2  O2  UNK     1      15.346   7.541  31.525  1.00  0.00    -0.286 OA
HETATM    3  C1  UNK     1      15.811   9.343  32.969  1.00  0.00     0.049 A 
HETATM    4  C2  UNK     1      17.505   7.530  32.529  1.00  0.00     0.048 A 
HETATM    5  C3  UNK     1      16.746   9.911  33.832  1.00  0.00     0.091 A 
HETATM    6  C4  UNK     1      16.149   8.089  32.269  1.00  0.00     0.197 A 
HETATM    7  C6  UNK     1      18.290   8.199  33.386  1.00  0.00     0.159 A 
HETATM    8  C7  UNK     1      14.569   9.953  32.775  1.00  0.00     0.021 A 
HETATM    9  C8  UNK     1      16.446  11.094  34.507  1.00  0.00     0.074 A 
HETATM   10  C11 UNK     1      15.207  11.706  34.317  1.00  0.00     0.068 A 
HETATM   11  C12 UNK     1      14.271  11.137  33.452  1.00  0.00     0.037 A 
ENDROOT
BRANCH   4  12
HETATM   12  C5  UNK     1      17.983   6.306  31.866  1.00  0.00    -0.020 A 
HETATM   13  C10 UNK     1      18.667   6.390  30.651  1.00  0.00     0.015 A 
HETATM   14  C14 UNK     1      19.120   5.230  30.021  1.00  0.00     0.037 A 
HETATM   15  C15 UNK     1      18.890   3.984  30.605  1.00  0.00     0.065 A 
HETATM   16  C13 UNK     1      18.206   3.898  31.819  1.00  0.00     0.037 A 
HETATM   17  C9  UNK     1      17.753   5.058  32.448  1.00  0.00     0.015 A 
BRANCH  15  18
HETATM   18  O4  UNK     1      19.331   2.853  29.991  1.00  0.00    -0.361 OA
HETATM   19  H10 UNK     1      18.877   2.762  29.134  1.00  0.00     0.217 HD
ENDBRANCH  15  18
ENDBRANCH   4  12
BRANCH  10  20
HETATM   20  O3  UNK     1      14.911  12.861  34.973  1.00  0.00    -0.361 OA
HETATM   21  H9  UNK     1      13.946  12.922  35.083  1.00  0.00     0.217 HD
ENDBRANCH  10  20
TORSDOF 3
ENDMDL
MODEL 9
REMARK VINA RESULT:      -7.3     23.155     24.310
REMARK  3 active torsions:
REMARK  status: ('A' for Active; 'I' for Inactive)
REMARK    1  A    between atoms: C11_15  and  O3_3 
REMARK    2  A    between atoms: C15_19  and  O4_4 
REMARK    3  A    between atoms: C2_6  and  C5_9 
ROOT
HETATM    1  O1  UNK     1       6.819   7.508  10.909  1.00  0.00    -0.321 OA
HETATM    2  O2  UNK     1       7.910   3.823   9.539  1.00  0.00    -0.286 OA
HETATM    3  C1  UNK     1       6.542   5.097  10.971  1.00  0.00     0.049 A 
HETATM    4  C2  UNK     1       8.187   6.183   9.402  1.00  0.00     0.048 A 
HETATM    5  C3  UNK     1       6.219   6.381  11.409  1.00  0.00     0.091 A 
HETATM    6  C4  UNK     1       7.575   4.933   9.931  1.00  0.00     0.197 A 
HETATM    7  C6  UNK     1       7.764   7.343   9.926  1.00  0.00     0.159 A 
HETATM    8  C7  UNK     1       5.898   3.984  11.516  1.00  0.00     0.021 A 
HETATM    9  C8  UNK     1       5.249   6.559  12.395  1.00  0.00     0.074 A 
HETATM   10  C11 UNK     1       4.603   5.450  12.942  1.00  0.00     0.068 A 
HETATM   11  C12 UNK     1       4.927   4.165  12.503  1.00  0.00     0.037 A 
ENDROOT
BRANCH   4  12
HETATM   12  C5  UNK     1       9.201   6.163   8.335  1.00  0.00    -0.020 A 
HETATM   13  C10 UNK     1      10.553   6.035   8.657  1.00  0.00     0.015 A 
HETATM   14  C14 UNK     1      11.515   6.016   7.646  1.00  0.00     0.037 A 
HETATM   15  C15 UNK     1      11.126   6.126   6.311  1.00  0.00     0.065 A 
HETATM   16  C13 UNK     1       9.774   6.254   5.987  1.00  0.00     0.037 A 
HETATM   17  C9  UNK     1       8.814   6.273   6.998  1.00  0.00     0.015 A 
BRANCH  15  18
HETATM   18  O4  UNK     1      12.064   6.108   5.326  1.00  0.00    -0.361 OA
HETATM   19  H10 UNK     1      11.620   5.964   4.471  1.00  0.00     0.217 HD
ENDBRANCH  15  18
ENDBRANCH   4  12
BRANCH  10  20
HETATM   20  O3  UNK     1       3.655   5.620  13.903  1.00  0.00    -0.361 OA
HETATM   21  H9  UNK     1       2.816   5.242  13.588  1.00  0.00     0.217 HD
ENDBRANCH  10  20
TORSDOF 3
ENDMDL
MODEL 10
REMARK VINA RESULT:      -7.3     12.695     16.005
REMARK  3 active torsions:
REMARK  status: ('A' for Active; 'I' for Inactive)
REMARK    1  A    between atoms: C11_15  and  O3_3 
REMARK    2  A    between atoms: C15_19  and  O4_4 
REMARK    3  A    between atoms: C2_6  and  C5_9 
ROOT
HETATM    1  O1  UNK     1      18.406  -1.166  18.037  1.00  0.00    -0.321 OA
HETATM    2  O2  UNK     1      19.784   1.286  15.081  1.00  0.00    -0.286 OA
HETATM    3  C1  UNK     1      19.122   1.042  17.328  1.00  0.00     0.049 A 
HETATM    4  C2  UNK     1      19.139  -0.911  15.736  1.00  0.00     0.048 A 
HETATM    5  C3  UNK     1      18.641   0.160  18.294  1.00  0.00     0.091 A 
HETATM    6  C4  UNK     1      19.390   0.539  15.967  1.00  0.00     0.197 A 
HETATM    7  C6  UNK     1      18.678  -1.627  16.772  1.00  0.00     0.159 A 
HETATM    8  C7  UNK     1      19.343   2.384  17.647  1.00  0.00     0.021 A 
HETATM    9  C8  UNK     1      18.377   0.615  19.586  1.00  0.00     0.074 A 
HETATM   10  C11 UNK     1      18.597   1.954  19.908  1.00  0.00     0.068 A 
HETATM   11  C12 UNK     1      19.079   2.836  18.940  1.00  0.00     0.037 A 
ENDROOT
BRANCH   4  12
HETATM   12  C5  UNK     1      19.402  -1.548  14.435  1.00  0.00    -0.020 A 
HETATM   13  C10 UNK     1      18.894  -0.983  13.264  1.00  0.00     0.015 A 
HETATM   14  C14 UNK     1      19.141  -1.587  12.030  1.00  0.00     0.037 A 
HETATM   15  C15 UNK     1      19.898  -2.758  11.967  1.00  0.00     0.065 A 
HETATM   16  C13 UNK     1      20.406  -3.324  13.136  1.00  0.00     0.037 A 
HETATM   17  C9  UNK     1      20.158  -2.720  14.369  1.00  0.00     0.015 A 
BRANCH  15  18
HETATM   18  O4  UNK     1      20.139  -3.347  10.764  1.00  0.00    -0.361 OA
HETATM   19  H10 UNK     1      20.659  -2.736  10.213  1.00  0.00     0.217 HD
ENDBRANCH  15  18
ENDBRANCH   4  12
BRANCH  10  20
HETATM   20  O3  UNK     1      18.342   2.402  21.168  1.00  0.00    -0.361 OA
HETATM   21  H9  UNK     1      18.708   3.298  21.264  1.00  0.00     0.217 HD
ENDBRANCH  10  20
TORSDOF 3
ENDMDL
