MODEL 1
REMARK VINA RESULT:      -8.0      0.000      0.000
REMARK  0 active torsions:
REMARK  status: ('A' for Active; 'I' for Inactive)
ROOT
HETATM    1  O1  UNK     1      17.727   1.759  34.415  1.00  0.00    -0.333 OA
HETATM    2  O2  UNK     1      19.823  -1.447  31.426  1.00  0.00    -0.274 OA
HETATM    3  O3  UNK     1      18.768  -0.943  36.411  1.00  0.00    -0.294 OA
HETATM    4  O4  UNK     1      20.800  -2.918  29.967  1.00  0.00    -0.260 OA
HETATM    5  C1  UNK     1      17.375   0.731  35.340  1.00  0.00     0.121 C 
HETATM    6  C2  UNK     1      18.823  -0.953  34.031  1.00  0.00     0.126 C 
HETATM    7  C3  UNK     1      18.793   0.104  32.969  1.00  0.00     0.017 A 
HETATM    8  C4  UNK     1      18.387  -0.414  35.367  1.00  0.00     0.165 C 
HETATM    9  C5  UNK     1      18.262   1.372  33.217  1.00  0.00     0.080 A 
HETATM   10  C6  UNK     1      15.982   0.187  35.003  1.00  0.00     0.055 C 
HETATM   11  C7  UNK     1      17.331   1.411  36.715  1.00  0.00     0.055 C 
HETATM   12  C8  UNK     1      19.301  -0.158  31.687  1.00  0.00     0.099 A 
HETATM   13  C9  UNK     1      19.309   0.806  30.679  1.00  0.00    -0.001 A 
HETATM   14  C10 UNK     1      18.276   2.354  32.218  1.00  0.00     0.038 A 
HETATM   15  C11 UNK     1      18.795   2.073  30.953  1.00  0.00     0.017 A 
HETATM   16  C12 UNK     1      19.855   0.464  29.376  1.00  0.00     0.020 A 
HETATM   17  C13 UNK     1      20.343  -0.757  29.148  1.00  0.00     0.083 A 
HETATM   18  C14 UNK     1      20.350  -1.799  30.188  1.00  0.00     0.288 A 
ENDROOT
TORSDOF 0
ENDMDL
MODEL 2
REMARK VINA RESULT:      -7.8     23.818     25.484
REMARK  0 active torsions:
REMARK  status: ('A' for Active; 'I' for Inactive)
ROOT
HETATM    1  O1  UNK     1      10.094   7.818   8.822  1.00  0.00    -0.333 OA
HETATM    2  O2  UNK     1      14.008   5.029   9.535  1.00  0.00    -0.274 OA
HETATM    3  O3  UNK     1       8.908   4.583   9.527  1.00  0.00    -0.294 OA
HETATM    4  O4  UNK     1      15.891   3.766   9.862  1.00  0.00    -0.260 OA
HETATM    5  C1  UNK     1       9.317   6.696   8.405  1.00  0.00     0.121 C 
HETATM    6  C2  UNK     1      11.201   5.104   9.157  1.00  0.00     0.126 C 
HETATM    7  C3  UNK     1      12.018   6.359   9.192  1.00  0.00     0.017 A 
HETATM    8  C4  UNK     1       9.727   5.399   9.105  1.00  0.00     0.165 C 
HETATM    9  C5  UNK     1      11.432   7.617   9.030  1.00  0.00     0.080 A 
HETATM   10  C6  UNK     1       9.430   6.526   6.886  1.00  0.00     0.055 C 
HETATM   11  C7  UNK     1       7.867   7.040   8.767  1.00  0.00     0.055 C 
HETATM   12  C8  UNK     1      13.407   6.302   9.389  1.00  0.00     0.099 A 
HETATM   13  C9  UNK     1      14.198   7.449   9.448  1.00  0.00    -0.001 A 
HETATM   14  C10 UNK     1      12.212   8.777   9.100  1.00  0.00     0.038 A 
HETATM   15  C11 UNK     1      13.590   8.695   9.306  1.00  0.00     0.017 A 
HETATM   16  C12 UNK     1      15.630   7.312   9.658  1.00  0.00     0.020 A 
HETATM   17  C13 UNK     1      16.180   6.104   9.794  1.00  0.00     0.083 A 
HETATM   18  C14 UNK     1      15.375   4.872   9.737  1.00  0.00     0.288 A 
ENDROOT
TORSDOF 0
ENDMDL
MODEL 3
REMARK VINA RESULT:      -7.7      2.120      3.785
REMARK  0 active torsions:
REMARK  status: ('A' for Active; 'I' for Inactive)
ROOT
HETATM    1  O1  UNK     1      20.385  -3.150  34.013  1.00  0.00    -0.333 OA
HETATM    2  O2  UNK     1      18.682   0.606  31.444  1.00  0.00    -0.274 OA
HETATM    3  O3  UNK     1      17.931  -1.604  36.001  1.00  0.00    -0.294 OA
HETATM    4  O4  UNK     1      17.919   2.360  30.184  1.00  0.00    -0.260 OA
HETATM    5  C1  UNK     1      20.050  -2.515  35.246  1.00  0.00     0.121 C 
HETATM    6  C2  UNK     1      18.754  -0.693  33.961  1.00  0.00     0.126 C 
HETATM    7  C3  UNK     1      19.484  -1.246  32.776  1.00  0.00     0.017 A 
HETATM    8  C4  UNK     1      18.807  -1.631  35.137  1.00  0.00     0.165 C 
HETATM    9  C5  UNK     1      20.239  -2.418  32.866  1.00  0.00     0.080 A 
HETATM   10  C6  UNK     1      21.239  -1.683  35.739  1.00  0.00     0.055 C 
HETATM   11  C7  UNK     1      19.786  -3.654  36.239  1.00  0.00     0.055 C 
HETATM   12  C8  UNK     1      19.430  -0.593  31.535  1.00  0.00     0.099 A 
HETATM   13  C9  UNK     1      20.080  -1.087  30.404  1.00  0.00    -0.001 A 
HETATM   14  C10 UNK     1      20.886  -2.933  31.736  1.00  0.00     0.038 A 
HETATM   15  C11 UNK     1      20.809  -2.270  30.509  1.00  0.00     0.017 A 
HETATM   16  C12 UNK     1      19.975  -0.358  29.151  1.00  0.00     0.020 A 
HETATM   17  C13 UNK     1      19.266   0.771  29.084  1.00  0.00     0.083 A 
HETATM   18  C14 UNK     1      18.567   1.322  30.257  1.00  0.00     0.288 A 
ENDROOT
TORSDOF 0
ENDMDL
MODEL 4
REMARK VINA RESULT:      -7.7      1.719      3.006
REMARK  0 active torsions:
REMARK  status: ('A' for Active; 'I' for Inactive)
ROOT
HETATM    1  O1  UNK     1      18.945  -1.657  35.010  1.00  0.00    -0.333 OA
HETATM    2  O2  UNK     1      18.754   0.628  30.726  1.00  0.00    -0.274 OA
HETATM    3  O3  UNK     1      16.087   0.390  35.090  1.00  0.00    -0.294 OA
HETATM    4  O4  UNK     1      18.717   1.672  28.688  1.00  0.00    -0.260 OA
HETATM    5  C1  UNK     1      18.228  -0.604  35.653  1.00  0.00     0.121 C 
HETATM    6  C2  UNK     1      17.719   0.457  33.359  1.00  0.00     0.126 C 
HETATM    7  C3  UNK     1      18.789  -0.475  32.878  1.00  0.00     0.017 A 
HETATM    8  C4  UNK     1      17.220   0.077  34.726  1.00  0.00     0.165 C 
HETATM    9  C5  UNK     1      19.327  -1.459  33.711  1.00  0.00     0.080 A 
HETATM   10  C6  UNK     1      19.215   0.434  36.201  1.00  0.00     0.055 C 
HETATM   11  C7  UNK     1      17.488  -1.262  36.824  1.00  0.00     0.055 C 
HETATM   12  C8  UNK     1      19.283  -0.381  31.567  1.00  0.00     0.099 A 
HETATM   13  C9  UNK     1      20.263  -1.243  31.078  1.00  0.00    -0.001 A 
HETATM   14  C10 UNK     1      20.302  -2.340  33.228  1.00  0.00     0.038 A 
HETATM   15  C11 UNK     1      20.771  -2.233  31.918  1.00  0.00     0.017 A 
HETATM   16  C12 UNK     1      20.724  -1.087  29.708  1.00  0.00     0.020 A 
HETATM   17  C13 UNK     1      20.214  -0.131  28.929  1.00  0.00     0.083 A 
HETATM   18  C14 UNK     1      19.178   0.797  29.413  1.00  0.00     0.288 A 
ENDROOT
TORSDOF 0
ENDMDL
MODEL 5
REMARK VINA RESULT:      -7.6      4.311      6.096
REMARK  0 active torsions:
REMARK  status: ('A' for Active; 'I' for Inactive)
ROOT
HETATM    1  O1  UNK     1      17.878   7.976  31.938  1.00  0.00    -0.333 OA
HETATM    2  O2  UNK     1      17.984   3.215  32.903  1.00  0.00    -0.274 OA
HETATM    3  O3  UNK     1      17.317   7.639  35.393  1.00  0.00    -0.294 OA
HETATM    4  O4  UNK     1      18.046   0.959  33.295  1.00  0.00    -0.260 OA
HETATM    5  C1  UNK     1      17.029   8.228  33.056  1.00  0.00     0.121 C 
HETATM    6  C2  UNK     1      17.377   5.807  33.873  1.00  0.00     0.126 C 
HETATM    7  C3  UNK     1      17.919   5.597  32.493  1.00  0.00     0.017 A 
HETATM    8  C4  UNK     1      17.282   7.268  34.220  1.00  0.00     0.165 C 
HETATM    9  C5  UNK     1      18.137   6.669  31.624  1.00  0.00     0.080 A 
HETATM   10  C6  UNK     1      15.562   8.142  32.621  1.00  0.00     0.055 C 
HETATM   11  C7  UNK     1      17.341   9.664  33.497  1.00  0.00     0.055 C 
HETATM   12  C8  UNK     1      18.222   4.306  32.033  1.00  0.00     0.099 A 
HETATM   13  C9  UNK     1      18.746   4.072  30.762  1.00  0.00    -0.001 A 
HETATM   14  C10 UNK     1      18.676   6.451  30.350  1.00  0.00     0.038 A 
HETATM   15  C11 UNK     1      18.978   5.158  29.918  1.00  0.00     0.017 A 
HETATM   16  C12 UNK     1      19.038   2.708  30.355  1.00  0.00     0.020 A 
HETATM   17  C13 UNK     1      18.807   1.691  31.189  1.00  0.00     0.083 A 
HETATM   18  C14 UNK     1      18.255   1.901  32.538  1.00  0.00     0.288 A 
ENDROOT
TORSDOF 0
ENDMDL
MODEL 6
REMARK VINA RESULT:      -7.6      1.857      2.429
REMARK  0 active torsions:
REMARK  status: ('A' for Active; 'I' for Inactive)
ROOT
HETATM    1  O1  UNK     1      17.883   1.943  35.743  1.00  0.00    -0.333 OA
HETATM    2  O2  UNK     1      18.660   1.004  31.039  1.00  0.00    -0.274 OA
HETATM    3  O3  UNK     1      18.800  -1.445  35.533  1.00  0.00    -0.294 OA
HETATM    4  O4  UNK     1      19.013   0.624  28.808  1.00  0.00    -0.260 OA
HETATM    5  C1  UNK     1      17.550   0.581  36.004  1.00  0.00     0.121 C 
HETATM    6  C2  UNK     1      18.346  -0.074  33.641  1.00  0.00     0.126 C 
HETATM    7  C3  UNK     1      18.289   1.403  33.395  1.00  0.00     0.017 A 
HETATM    8  C4  UNK     1      18.312  -0.397  35.110  1.00  0.00     0.165 C 
HETATM    9  C5  UNK     1      18.070   2.308  34.437  1.00  0.00     0.080 A 
HETATM   10  C6  UNK     1      16.041   0.376  35.832  1.00  0.00     0.055 C 
HETATM   11  C7  UNK     1      17.926   0.337  37.471  1.00  0.00     0.055 C 
HETATM   12  C8  UNK     1      18.456   1.919  32.100  1.00  0.00     0.099 A 
HETATM   13  C9  UNK     1      18.429   3.288  31.835  1.00  0.00    -0.001 A 
HETATM   14  C10 UNK     1      18.054   3.686  34.188  1.00  0.00     0.038 A 
HETATM   15  C11 UNK     1      18.232   4.175  32.892  1.00  0.00     0.017 A 
HETATM   16  C12 UNK     1      18.613   3.749  30.469  1.00  0.00     0.020 A 
HETATM   17  C13 UNK     1      18.803   2.873  29.481  1.00  0.00     0.083 A 
HETATM   18  C14 UNK     1      18.837   1.420  29.724  1.00  0.00     0.288 A 
ENDROOT
TORSDOF 0
ENDMDL
MODEL 7
REMARK VINA RESULT:      -7.4     13.419     14.658
REMARK  0 active torsions:
REMARK  status: ('A' for Active; 'I' for Inactive)
ROOT
HETATM    1  O1  UNK     1      28.302  -7.841  39.230  1.00  0.00    -0.333 OA
HETATM    2  O2  UNK     1      32.029  -5.980  36.728  1.00  0.00    -0.274 OA
HETATM    3  O3  UNK     1      30.600 -10.460  38.754  1.00  0.00    -0.294 OA
HETATM    4  O4  UNK     1      33.756  -5.045  35.549  1.00  0.00    -0.260 OA
HETATM    5  C1  UNK     1      28.558  -9.149  38.721  1.00  0.00     0.121 C 
HETATM    6  C2  UNK     1      30.783  -8.328  37.710  1.00  0.00     0.126 C 
HETATM    7  C3  UNK     1      30.207  -6.970  37.973  1.00  0.00     0.017 A 
HETATM    8  C4  UNK     1      30.043  -9.402  38.459  1.00  0.00     0.165 C 
HETATM    9  C5  UNK     1      29.028  -6.806  38.704  1.00  0.00     0.080 A 
HETATM   10  C6  UNK     1      27.757  -9.368  37.433  1.00  0.00     0.055 C 
HETATM   11  C7  UNK     1      28.052 -10.117  39.798  1.00  0.00     0.055 C 
HETATM   12  C8  UNK     1      30.844  -5.818  37.485  1.00  0.00     0.099 A 
HETATM   13  C9  UNK     1      30.350  -4.536  37.726  1.00  0.00    -0.001 A 
HETATM   14  C10 UNK     1      28.528  -5.525  38.965  1.00  0.00     0.038 A 
HETATM   15  C11 UNK     1      29.184  -4.393  38.477  1.00  0.00     0.017 A 
HETATM   16  C12 UNK     1      31.065  -3.389  37.192  1.00  0.00     0.020 A 
HETATM   17  C13 UNK     1      32.180  -3.560  36.479  1.00  0.00     0.083 A 
HETATM   18  C14 UNK     1      32.730  -4.899  36.206  1.00  0.00     0.288 A 
ENDROOT
TORSDOF 0
ENDMDL
MODEL 8
REMARK VINA RESULT:      -7.4      6.753      8.546
REMARK  0 active torsions:
REMARK  status: ('A' for Active; 'I' for Inactive)
ROOT
HETATM    1  O1  UNK     1      16.588   9.244  35.122  1.00  0.00    -0.333 OA
HETATM    2  O2  UNK     1      17.991   6.936  31.082  1.00  0.00    -0.274 OA
HETATM    3  O3  UNK     1      13.799   9.181  32.981  1.00  0.00    -0.294 OA
HETATM    4  O4  UNK     1      18.711   5.840  29.204  1.00  0.00    -0.260 OA
HETATM    5  C1  UNK     1      15.593   9.976  34.409  1.00  0.00     0.121 C 
HETATM    6  C2  UNK     1      15.987   8.502  32.331  1.00  0.00     0.126 C 
HETATM    7  C3  UNK     1      17.227   8.093  33.064  1.00  0.00     0.017 A 
HETATM    8  C4  UNK     1      15.003   9.189  33.239  1.00  0.00     0.165 C 
HETATM    9  C5  UNK     1      17.452   8.475  34.388  1.00  0.00     0.080 A 
HETATM   10  C6  UNK     1      16.186  11.296  33.903  1.00  0.00     0.055 C 
HETATM   11  C7  UNK     1      14.491  10.279  35.433  1.00  0.00     0.055 C 
HETATM   12  C8  UNK     1      18.205   7.309  32.430  1.00  0.00     0.099 A 
HETATM   13  C9  UNK     1      19.364   6.892  33.086  1.00  0.00    -0.001 A 
HETATM   14  C10 UNK     1      18.604   8.052  35.063  1.00  0.00     0.038 A 
HETATM   15  C11 UNK     1      19.558   7.265  34.415  1.00  0.00     0.017 A 
HETATM   16  C12 UNK     1      20.331   6.080  32.367  1.00  0.00     0.020 A 
HETATM   17  C13 UNK     1      20.112   5.737  31.096  1.00  0.00     0.083 A 
HETATM   18  C14 UNK     1      18.901   6.160  30.373  1.00  0.00     0.288 A 
ENDROOT
TORSDOF 0
ENDMDL
MODEL 9
REMARK VINA RESULT:      -7.4      9.572     11.210
REMARK  0 active torsions:
REMARK  status: ('A' for Active; 'I' for Inactive)
ROOT
HETATM    1  O1  UNK     1      19.927  -9.154  36.065  1.00  0.00    -0.333 OA
HETATM    2  O2  UNK     1      24.564  -8.579  37.397  1.00  0.00    -0.274 OA
HETATM    3  O3  UNK     1      20.275  -5.802  37.067  1.00  0.00    -0.294 OA
HETATM    4  O4  UNK     1      26.762  -8.369  38.009  1.00  0.00    -0.260 OA
HETATM    5  C1  UNK     1      19.504  -8.098  36.926  1.00  0.00     0.121 C 
HETATM    6  C2  UNK     1      21.963  -7.456  37.357  1.00  0.00     0.126 C 
HETATM    7  C3  UNK     1      22.244  -8.796  36.750  1.00  0.00     0.017 A 
HETATM    8  C4  UNK     1      20.557  -7.000  37.077  1.00  0.00     0.165 C 
HETATM    9  C5  UNK     1      21.234  -9.551  36.149  1.00  0.00     0.080 A 
HETATM   10  C6  UNK     1      19.143  -8.667  38.302  1.00  0.00     0.055 C 
HETATM   11  C7  UNK     1      18.242  -7.516  36.275  1.00  0.00     0.055 C 
HETATM   12  C8  UNK     1      23.542  -9.332  36.772  1.00  0.00     0.099 A 
HETATM   13  C9  UNK     1      23.846 -10.567  36.200  1.00  0.00    -0.001 A 
HETATM   14  C10 UNK     1      21.529 -10.786  35.558  1.00  0.00     0.038 A 
HETATM   15  C11 UNK     1      22.829 -11.294  35.585  1.00  0.00     0.017 A 
HETATM   16  C12 UNK     1      25.214 -11.057  36.257  1.00  0.00     0.020 A 
HETATM   17  C13 UNK     1      26.165 -10.333  36.851  1.00  0.00     0.083 A 
HETATM   18  C14 UNK     1      25.880  -9.025  37.465  1.00  0.00     0.288 A 
ENDROOT
TORSDOF 0
ENDMDL
MODEL 10
REMARK VINA RESULT:      -7.3     24.217     26.606
REMARK  0 active torsions:
REMARK  status: ('A' for Active; 'I' for Inactive)
ROOT
HETATM    1  O1  UNK     1      14.376   7.529   8.414  1.00  0.00    -0.333 OA
HETATM    2  O2  UNK     1       9.543   7.607   8.912  1.00  0.00    -0.274 OA
HETATM    3  O3  UNK     1      13.722   8.602  11.698  1.00  0.00    -0.294 OA
HETATM    4  O4  UNK     1       7.259   7.622   9.086  1.00  0.00    -0.260 OA
HETATM    5  C1  UNK     1      14.538   8.533   9.414  1.00  0.00     0.121 C 
HETATM    6  C2  UNK     1      12.044   8.331  10.032  1.00  0.00     0.126 C 
HETATM    7  C3  UNK     1      11.955   7.591   8.732  1.00  0.00     0.017 A 
HETATM    8  C4  UNK     1      13.467   8.465  10.502  1.00  0.00     0.165 C 
HETATM    9  C5  UNK     1      13.100   7.236   8.015  1.00  0.00     0.080 A 
HETATM   10  C6  UNK     1      14.528   9.920   8.760  1.00  0.00     0.055 C 
HETATM   11  C7  UNK     1      15.918   8.280  10.034  1.00  0.00     0.055 C 
HETATM   12  C8  UNK     1      10.707   7.233   8.198  1.00  0.00     0.099 A 
HETATM   13  C9  UNK     1      10.584   6.527   7.001  1.00  0.00    -0.001 A 
HETATM   14  C10 UNK     1      12.992   6.515   6.819  1.00  0.00     0.038 A 
HETATM   15  C11 UNK     1      11.740   6.163   6.312  1.00  0.00     0.017 A 
HETATM   16  C12 UNK     1       9.259   6.188   6.511  1.00  0.00     0.020 A 
HETATM   17  C13 UNK     1       8.172   6.549   7.197  1.00  0.00     0.083 A 
HETATM   18  C14 UNK     1       8.264   7.295   8.464  1.00  0.00     0.288 A 
ENDROOT
TORSDOF 0
ENDMDL
