MODEL 1
REMARK VINA RESULT:      -7.6      0.000      0.000
REMARK  3 active torsions:
REMARK  status: ('A' for Active; 'I' for Inactive)
REMARK    1  A    between atoms: C11_15  and  O2_2 
REMARK    2  A    between atoms: C9_13  and  O2_2 
REMARK    3  A    between atoms: C4_8  and  C9_13 
ROOT
HETATM    1  O1  UNK     1      18.766   0.477  32.629  1.00  0.00    -0.274 OA
HETATM    2  O3  UNK     1      17.860   2.331  33.609  1.00  0.00    -0.259 OA
HETATM    3  C1  UNK     1      19.519   0.586  30.320  1.00  0.00    -0.001 A 
HETATM    4  C2  UNK     1      19.340  -0.134  31.497  1.00  0.00     0.089 A 
HETATM    5  C3  UNK     1      19.104   1.980  30.277  1.00  0.00     0.038 A 
HETATM    6  C4  UNK     1      18.559   2.554  31.355  1.00  0.00     0.115 A 
HETATM    7  C5  UNK     1      20.091  -0.055  29.218  1.00  0.00     0.014 A 
HETATM    8  C6  UNK     1      19.716  -1.472  31.603  1.00  0.00     0.038 A 
HETATM    9  C7  UNK     1      18.359   1.808  32.618  1.00  0.00     0.304 A 
HETATM   10  C8  UNK     1      20.474  -1.396  29.310  1.00  0.00     0.001 A 
HETATM   11  C10 UNK     1      20.287  -2.103  30.500  1.00  0.00     0.003 A 
ENDROOT
BRANCH   6  12
HETATM   12  C9  UNK     1      18.172   3.963  31.214  1.00  0.00     0.299 C 
HETATM   13  O4  UNK     1      17.445   4.543  32.003  1.00  0.00    -0.259 OA
BRANCH  12  14
HETATM   14  O2  UNK     1      18.752   4.461  30.093  1.00  0.00    -0.318 OA
BRANCH  14  15
HETATM   15  C11 UNK     1      19.230   5.805  30.199  1.00  0.00     0.174 C 
HETATM   16  C12 UNK     1      20.530   5.806  30.974  1.00  0.00     0.034 C 
ENDBRANCH  14  15
ENDBRANCH  12  14
ENDBRANCH   6  12
TORSDOF 3
ENDMDL
MODEL 2
REMARK VINA RESULT:      -7.4      1.848      5.380
REMARK  3 active torsions:
REMARK  status: ('A' for Active; 'I' for Inactive)
REMARK    1  A    between atoms: C11_15  and  O2_2 
REMARK    2  A    between atoms: C9_13  and  O2_2 
REMARK    3  A    between atoms: C4_8  and  C9_13 
ROOT
HETATM    1  O1  UNK     1      18.240   2.788  32.696  1.00  0.00    -0.274 OA
HETATM    2  O3  UNK     1      18.446   0.605  32.054  1.00  0.00    -0.259 OA
HETATM    3  C1  UNK     1      18.578   4.557  31.064  1.00  0.00    -0.001 A 
HETATM    4  C2  UNK     1      18.283   4.156  32.362  1.00  0.00     0.089 A 
HETATM    5  C3  UNK     1      18.839   3.541  30.055  1.00  0.00     0.038 A 
HETATM    6  C4  UNK     1      18.797   2.244  30.378  1.00  0.00     0.115 A 
HETATM    7  C5  UNK     1      18.612   5.923  30.771  1.00  0.00     0.014 A 
HETATM    8  C6  UNK     1      18.023   5.078  33.374  1.00  0.00     0.038 A 
HETATM    9  C7  UNK     1      18.486   1.794  31.754  1.00  0.00     0.304 A 
HETATM   10  C8  UNK     1      18.352   6.860  31.776  1.00  0.00     0.001 A 
HETATM   11  C10 UNK     1      18.059   6.438  33.074  1.00  0.00     0.003 A 
ENDROOT
BRANCH   6  12
HETATM   12  C9  UNK     1      19.076   1.295  29.293  1.00  0.00     0.299 C 
HETATM   13  O4  UNK     1      18.379   1.189  28.298  1.00  0.00    -0.259 OA
BRANCH  12  14
HETATM   14  O2  UNK     1      20.200   0.602  29.603  1.00  0.00    -0.318 OA
BRANCH  14  15
HETATM   15  C11 UNK     1      20.319  -0.678  28.977  1.00  0.00     0.174 C 
HETATM   16  C12 UNK     1      20.347  -1.749  30.046  1.00  0.00     0.034 C 
ENDBRANCH  14  15
ENDBRANCH  12  14
ENDBRANCH   6  12
TORSDOF 3
ENDMDL
MODEL 3
REMARK VINA RESULT:      -7.3      2.585      4.674
REMARK  3 active torsions:
REMARK  status: ('A' for Active; 'I' for Inactive)
REMARK    1  A    between atoms: C11_15  and  O2_2 
REMARK    2  A    between atoms: C9_13  and  O2_2 
REMARK    3  A    between atoms: C4_8  and  C9_13 
ROOT
HETATM    1  O1  UNK     1      18.746   1.234  31.827  1.00  0.00    -0.274 OA
HETATM    2  O3  UNK     1      17.618   1.982  33.667  1.00  0.00    -0.259 OA
HETATM    3  C1  UNK     1      19.457  -1.088  31.716  1.00  0.00    -0.001 A 
HETATM    4  C2  UNK     1      19.383   0.178  31.146  1.00  0.00     0.089 A 
HETATM    5  C3  UNK     1      18.864  -1.306  33.027  1.00  0.00     0.038 A 
HETATM    6  C4  UNK     1      18.260  -0.300  33.669  1.00  0.00     0.115 A 
HETATM    7  C5  UNK     1      20.097  -2.110  31.010  1.00  0.00     0.014 A 
HETATM    8  C6  UNK     1      19.931   0.452  29.894  1.00  0.00     0.038 A 
HETATM    9  C7  UNK     1      18.171   1.057  33.082  1.00  0.00     0.304 A 
HETATM   10  C8  UNK     1      20.650  -1.850  29.752  1.00  0.00     0.001 A 
HETATM   11  C10 UNK     1      20.567  -0.572  29.196  1.00  0.00     0.003 A 
ENDROOT
BRANCH   6  12
HETATM   12  C9  UNK     1      17.693  -0.617  34.986  1.00  0.00     0.299 C 
HETATM   13  O4  UNK     1      16.618  -1.171  35.138  1.00  0.00    -0.259 OA
BRANCH  12  14
HETATM   14  O2  UNK     1      18.558  -0.194  35.942  1.00  0.00    -0.318 OA
BRANCH  14  15
HETATM   15  C11 UNK     1      18.007  -0.087  37.258  1.00  0.00     0.174 C 
HETATM   16  C12 UNK     1      17.568   1.342  37.494  1.00  0.00     0.034 C 
ENDBRANCH  14  15
ENDBRANCH  12  14
ENDBRANCH   6  12
TORSDOF 3
ENDMDL
MODEL 4
REMARK VINA RESULT:      -7.2      1.987      4.130
REMARK  3 active torsions:
REMARK  status: ('A' for Active; 'I' for Inactive)
REMARK    1  A    between atoms: C11_15  and  O2_2 
REMARK    2  A    between atoms: C9_13  and  O2_2 
REMARK    3  A    between atoms: C4_8  and  C9_13 
ROOT
HETATM    1  O1  UNK     1      18.946   1.822  30.736  1.00  0.00    -0.274 OA
HETATM    2  O3  UNK     1      17.934   3.262  32.193  1.00  0.00    -0.259 OA
HETATM    3  C1  UNK     1      19.446  -0.449  31.445  1.00  0.00    -0.001 A 
HETATM    4  C2  UNK     1      19.471   0.542  30.469  1.00  0.00     0.089 A 
HETATM    5  C3  UNK     1      18.868  -0.143  32.745  1.00  0.00     0.038 A 
HETATM    6  C4  UNK     1      18.372   1.074  32.992  1.00  0.00     0.115 A 
HETATM    7  C5  UNK     1      19.976  -1.706  31.142  1.00  0.00     0.014 A 
HETATM    8  C6  UNK     1      20.010   0.314  29.205  1.00  0.00     0.038 A 
HETATM    9  C7  UNK     1      18.388   2.145  31.969  1.00  0.00     0.304 A 
HETATM   10  C8  UNK     1      20.519  -1.950  29.878  1.00  0.00     0.001 A 
HETATM   11  C10 UNK     1      20.536  -0.942  28.911  1.00  0.00     0.003 A 
ENDROOT
BRANCH   6  12
HETATM   12  C9  UNK     1      17.812   1.286  34.333  1.00  0.00     0.299 C 
HETATM   13  O4  UNK     1      18.467   1.688  35.279  1.00  0.00    -0.259 OA
BRANCH  12  14
HETATM   14  O2  UNK     1      16.494   0.964  34.307  1.00  0.00    -0.318 OA
BRANCH  14  15
HETATM   15  C11 UNK     1      16.096  -0.050  35.234  1.00  0.00     0.174 C 
HETATM   16  C12 UNK     1      15.357   0.597  36.385  1.00  0.00     0.034 C 
ENDBRANCH  14  15
ENDBRANCH  12  14
ENDBRANCH   6  12
TORSDOF 3
ENDMDL
MODEL 5
REMARK VINA RESULT:      -7.2      1.437      2.343
REMARK  3 active torsions:
REMARK  status: ('A' for Active; 'I' for Inactive)
REMARK    1  A    between atoms: C11_15  and  O2_2 
REMARK    2  A    between atoms: C9_13  and  O2_2 
REMARK    3  A    between atoms: C4_8  and  C9_13 
ROOT
HETATM    1  O1  UNK     1      18.966   0.738  28.542  1.00  0.00    -0.274 OA
HETATM    2  O3  UNK     1      18.006   2.778  28.172  1.00  0.00    -0.259 OA
HETATM    3  C1  UNK     1      19.725   0.155  30.777  1.00  0.00    -0.001 A 
HETATM    4  C2  UNK     1      19.561  -0.175  29.435  1.00  0.00     0.089 A 
HETATM    5  C3  UNK     1      19.271   1.457  31.242  1.00  0.00     0.038 A 
HETATM    6  C4  UNK     1      18.708   2.319  30.389  1.00  0.00     0.115 A 
HETATM    7  C5  UNK     1      20.319  -0.776  31.632  1.00  0.00     0.014 A 
HETATM    8  C6  UNK     1      19.973  -1.404  28.926  1.00  0.00     0.038 A 
HETATM    9  C7  UNK     1      18.523   1.990  28.957  1.00  0.00     0.304 A 
HETATM   10  C8  UNK     1      20.738  -2.014  31.136  1.00  0.00     0.001 A 
HETATM   11  C10 UNK     1      20.565  -2.327  29.786  1.00  0.00     0.003 A 
ENDROOT
BRANCH   6  12
HETATM   12  C9  UNK     1      18.284   3.607  30.953  1.00  0.00     0.299 C 
HETATM   13  O4  UNK     1      17.460   3.711  31.846  1.00  0.00    -0.259 OA
BRANCH  12  14
HETATM   14  O2  UNK     1      18.955   4.599  30.317  1.00  0.00    -0.318 OA
BRANCH  14  15
HETATM   15  C11 UNK     1      18.886   5.883  30.946  1.00  0.00     0.174 C 
HETATM   16  C12 UNK     1      20.081   6.049  31.859  1.00  0.00     0.034 C 
ENDBRANCH  14  15
ENDBRANCH  12  14
ENDBRANCH   6  12
TORSDOF 3
ENDMDL
MODEL 6
REMARK VINA RESULT:      -7.0     13.729     15.890
REMARK  3 active torsions:
REMARK  status: ('A' for Active; 'I' for Inactive)
REMARK    1  A    between atoms: C11_15  and  O2_2 
REMARK    2  A    between atoms: C9_13  and  O2_2 
REMARK    3  A    between atoms: C4_8  and  C9_13 
ROOT
HETATM    1  O1  UNK     1      19.287   1.032  15.282  1.00  0.00    -0.274 OA
HETATM    2  O3  UNK     1      19.284  -0.537  13.622  1.00  0.00    -0.259 OA
HETATM    3  C1  UNK     1      18.908   0.346  17.584  1.00  0.00    -0.001 A 
HETATM    4  C2  UNK     1      19.159   1.346  16.650  1.00  0.00     0.089 A 
HETATM    5  C3  UNK     1      18.782  -1.029  17.126  1.00  0.00     0.038 A 
HETATM    6  C4  UNK     1      18.904  -1.321  15.826  1.00  0.00     0.115 A 
HETATM    7  C5  UNK     1      18.787   0.697  18.931  1.00  0.00     0.014 A 
HETATM    8  C6  UNK     1      19.290   2.682  17.022  1.00  0.00     0.038 A 
HETATM    9  C7  UNK     1      19.170  -0.273  14.814  1.00  0.00     0.304 A 
HETATM   10  C8  UNK     1      18.917   2.033  19.320  1.00  0.00     0.001 A 
HETATM   11  C10 UNK     1      19.168   3.023  18.368  1.00  0.00     0.003 A 
ENDROOT
BRANCH   6  12
HETATM   12  C9  UNK     1      18.760  -2.736  15.463  1.00  0.00     0.299 C 
HETATM   13  O4  UNK     1      17.806  -3.177  14.845  1.00  0.00    -0.259 OA
BRANCH  12  14
HETATM   14  O2  UNK     1      19.840  -3.414  15.925  1.00  0.00    -0.318 OA
BRANCH  14  15
HETATM   15  C11 UNK     1      20.918  -3.552  14.995  1.00  0.00     0.174 C 
HETATM   16  C12 UNK     1      22.222  -3.629  15.759  1.00  0.00     0.034 C 
ENDBRANCH  14  15
ENDBRANCH  12  14
ENDBRANCH   6  12
TORSDOF 3
ENDMDL
MODEL 7
REMARK VINA RESULT:      -7.0      2.339      5.724
REMARK  3 active torsions:
REMARK  status: ('A' for Active; 'I' for Inactive)
REMARK    1  A    between atoms: C11_15  and  O2_2 
REMARK    2  A    between atoms: C9_13  and  O2_2 
REMARK    3  A    between atoms: C4_8  and  C9_13 
ROOT
HETATM    1  O1  UNK     1      18.935   2.531  30.685  1.00  0.00    -0.274 OA
HETATM    2  O3  UNK     1      18.843   0.372  31.425  1.00  0.00    -0.259 OA
HETATM    3  C1  UNK     1      18.368   4.345  32.201  1.00  0.00    -0.001 A 
HETATM    4  C2  UNK     1      18.774   3.906  30.945  1.00  0.00     0.089 A 
HETATM    5  C3  UNK     1      18.114   3.361  33.243  1.00  0.00     0.038 A 
HETATM    6  C4  UNK     1      18.269   2.057  32.989  1.00  0.00     0.115 A 
HETATM    7  C5  UNK     1      18.218   5.716  32.420  1.00  0.00     0.014 A 
HETATM    8  C6  UNK     1      19.033   4.797  29.905  1.00  0.00     0.038 A 
HETATM    9  C7  UNK     1      18.700   1.566  31.660  1.00  0.00     0.304 A 
HETATM   10  C8  UNK     1      18.475   6.622  31.387  1.00  0.00     0.001 A 
HETATM   11  C10 UNK     1      18.881   6.163  30.132  1.00  0.00     0.003 A 
ENDROOT
BRANCH   6  12
HETATM   12  C9  UNK     1      17.989   1.141  34.103  1.00  0.00     0.299 C 
HETATM   13  O4  UNK     1      18.846   0.726  34.863  1.00  0.00    -0.259 OA
BRANCH  12  14
HETATM   14  O2  UNK     1      16.660   0.869  34.114  1.00  0.00    -0.318 OA
BRANCH  14  15
HETATM   15  C11 UNK     1      16.250  -0.132  35.051  1.00  0.00     0.174 C 
HETATM   16  C12 UNK     1      15.559   0.539  36.218  1.00  0.00     0.034 C 
ENDBRANCH  14  15
ENDBRANCH  12  14
ENDBRANCH   6  12
TORSDOF 3
ENDMDL
MODEL 8
REMARK VINA RESULT:      -6.9     22.816     24.288
REMARK  3 active torsions:
REMARK  status: ('A' for Active; 'I' for Inactive)
REMARK    1  A    between atoms: C11_15  and  O2_2 
REMARK    2  A    between atoms: C9_13  and  O2_2 
REMARK    3  A    between atoms: C4_8  and  C9_13 
ROOT
HETATM    1  O1  UNK     1      11.147   7.130   9.454  1.00  0.00    -0.274 OA
HETATM    2  O3  UNK     1      12.885   7.368  10.917  1.00  0.00    -0.259 OA
HETATM    3  C1  UNK     1      11.579   6.351   7.193  1.00  0.00    -0.001 A 
HETATM    4  C2  UNK     1      10.687   6.781   8.169  1.00  0.00     0.089 A 
HETATM    5  C3  UNK     1      12.995   6.267   7.519  1.00  0.00     0.038 A 
HETATM    6  C4  UNK     1      13.425   6.601   8.741  1.00  0.00     0.115 A 
HETATM    7  C5  UNK     1      11.085   6.013   5.930  1.00  0.00     0.014 A 
HETATM    8  C6  UNK     1       9.320   6.883   7.921  1.00  0.00     0.038 A 
HETATM    9  C7  UNK     1      12.494   7.062   9.796  1.00  0.00     0.304 A 
HETATM   10  C8  UNK     1       9.716   6.110   5.666  1.00  0.00     0.001 A 
HETATM   11  C10 UNK     1       8.836   6.544   6.659  1.00  0.00     0.003 A 
ENDROOT
BRANCH   6  12
HETATM   12  C9  UNK     1      14.870   6.484   8.974  1.00  0.00     0.299 C 
HETATM   13  O4  UNK     1      15.485   5.436   8.872  1.00  0.00    -0.259 OA
BRANCH  12  14
HETATM   14  O2  UNK     1      15.355   7.707   9.306  1.00  0.00    -0.318 OA
BRANCH  14  15
HETATM   15  C11 UNK     1      16.499   7.698  10.164  1.00  0.00     0.174 C 
HETATM   16  C12 UNK     1      16.087   8.179  11.539  1.00  0.00     0.034 C 
ENDBRANCH  14  15
ENDBRANCH  12  14
ENDBRANCH   6  12
TORSDOF 3
ENDMDL
MODEL 9
REMARK VINA RESULT:      -6.9      3.460      4.651
REMARK  3 active torsions:
REMARK  status: ('A' for Active; 'I' for Inactive)
REMARK    1  A    between atoms: C11_15  and  O2_2 
REMARK    2  A    between atoms: C9_13  and  O2_2 
REMARK    3  A    between atoms: C4_8  and  C9_13 
ROOT
HETATM    1  O1  UNK     1      20.567  -2.386  32.129  1.00  0.00    -0.274 OA
HETATM    2  O3  UNK     1      20.370  -3.081  34.296  1.00  0.00    -0.259 OA
HETATM    3  C1  UNK     1      19.430  -0.362  31.408  1.00  0.00    -0.001 A 
HETATM    4  C2  UNK     1      20.247  -1.451  31.125  1.00  0.00     0.089 A 
HETATM    5  C3  UNK     1      18.912  -0.203  32.758  1.00  0.00     0.038 A 
HETATM    6  C4  UNK     1      19.219  -1.094  33.707  1.00  0.00     0.115 A 
HETATM    7  C5  UNK     1      19.135   0.544  30.386  1.00  0.00     0.014 A 
HETATM    8  C6  UNK     1      20.775  -1.661  29.852  1.00  0.00     0.038 A 
HETATM    9  C7  UNK     1      20.086  -2.262  33.429  1.00  0.00     0.304 A 
HETATM   10  C8  UNK     1      19.658   0.347  29.105  1.00  0.00     0.001 A 
HETATM   11  C10 UNK     1      20.476  -0.753  28.839  1.00  0.00     0.003 A 
ENDROOT
BRANCH   6  12
HETATM   12  C9  UNK     1      18.647  -0.849  35.038  1.00  0.00     0.299 C 
HETATM   13  O4  UNK     1      17.696  -1.466  35.484  1.00  0.00    -0.259 OA
BRANCH  12  14
HETATM   14  O2  UNK     1      19.351   0.146  35.634  1.00  0.00    -0.318 OA
BRANCH  14  15
HETATM   15  C11 UNK     1      18.563   1.191  36.209  1.00  0.00     0.174 C 
HETATM   16  C12 UNK     1      18.573   2.385  35.279  1.00  0.00     0.034 C 
ENDBRANCH  14  15
ENDBRANCH  12  14
ENDBRANCH   6  12
TORSDOF 3
ENDMDL
MODEL 10
REMARK VINA RESULT:      -6.9      2.969      4.227
REMARK  3 active torsions:
REMARK  status: ('A' for Active; 'I' for Inactive)
REMARK    1  A    between atoms: C11_15  and  O2_2 
REMARK    2  A    between atoms: C9_13  and  O2_2 
REMARK    3  A    between atoms: C4_8  and  C9_13 
ROOT
HETATM    1  O1  UNK     1      19.680  -1.788  32.857  1.00  0.00    -0.274 OA
HETATM    2  O3  UNK     1      18.916  -1.569  34.998  1.00  0.00    -0.259 OA
HETATM    3  C1  UNK     1      19.356   0.029  31.275  1.00  0.00    -0.001 A 
HETATM    4  C2  UNK     1      19.836  -1.243  31.567  1.00  0.00     0.089 A 
HETATM    5  C3  UNK     1      18.689   0.788  32.322  1.00  0.00     0.038 A 
HETATM    6  C4  UNK     1      18.544   0.265  33.545  1.00  0.00     0.115 A 
HETATM    7  C5  UNK     1      19.529   0.536  29.984  1.00  0.00     0.014 A 
HETATM    8  C6  UNK     1      20.483  -2.021  30.609  1.00  0.00     0.038 A 
HETATM    9  C7  UNK     1      19.047  -1.087  33.879  1.00  0.00     0.304 A 
HETATM   10  C8  UNK     1      20.177  -0.233  29.012  1.00  0.00     0.001 A 
HETATM   11  C10 UNK     1      20.652  -1.508  29.325  1.00  0.00     0.003 A 
ENDROOT
BRANCH   6  12
HETATM   12  C9  UNK     1      17.858   1.107  34.533  1.00  0.00     0.299 C 
HETATM   13  O4  UNK     1      18.443   1.777  35.367  1.00  0.00    -0.259 OA
BRANCH  12  14
HETATM   14  O2  UNK     1      16.520   0.995  34.342  1.00  0.00    -0.318 OA
BRANCH  14  15
HETATM   15  C11 UNK     1      15.865   0.025  35.166  1.00  0.00     0.174 C 
HETATM   16  C12 UNK     1      15.366   0.704  36.423  1.00  0.00     0.034 C 
ENDBRANCH  14  15
ENDBRANCH  12  14
ENDBRANCH   6  12
TORSDOF 3
ENDMDL
