MODEL 1
REMARK VINA RESULT:     -10.2      0.000      0.000
REMARK  6 active torsions:
REMARK  status: ('A' for Active; 'I' for Inactive)
REMARK    1  A    between atoms: C20_26  and  O5_5 
REMARK       I    between atoms: C15_21  and  N1_6 
REMARK    2  A    between atoms: C17_23  and  N1_6 
REMARK    3  A    between atoms: C10_16  and  C7_13 
REMARK    4  A    between atoms: C10_16  and  C15_21 
REMARK    5  A    between atoms: C17_23  and  C18_24 
REMARK    6  A    between atoms: C18_24  and  C19_25 
ROOT
HETATM    1  O1  UNK     1      18.359   0.832  32.114  1.00  0.00    -0.274 OA
HETATM    2  O2  UNK     1      18.711   5.497  30.955  1.00  0.00    -0.321 OA
HETATM    3  O3  UNK     1      18.168  -1.359  32.672  1.00  0.00    -0.259 OA
HETATM    4  C1  UNK     1      18.243   2.558  33.827  1.00  0.00     0.006 A 
HETATM    5  C2  UNK     1      18.383   2.188  32.490  1.00  0.00     0.099 A 
HETATM    6  C3  UNK     1      18.073   1.499  34.846  1.00  0.00    -0.036 A 
HETATM    7  C4  UNK     1      18.425   4.887  33.111  1.00  0.00     0.007 A 
HETATM    8  C5  UNK     1      18.550   3.100  31.438  1.00  0.00     0.008 A 
HETATM    9  C6  UNK     1      18.564   4.441  31.804  1.00  0.00     0.094 A 
HETATM   10  C7  UNK     1      18.017   0.205  34.463  1.00  0.00     0.033 A 
HETATM   11  C8  UNK     1      18.261   3.934  34.138  1.00  0.00     0.029 A 
HETATM   12  C9  UNK     1      18.492   6.304  33.044  1.00  0.00    -0.027 A 
HETATM   13  C11 UNK     1      18.180  -0.186  33.033  1.00  0.00     0.295 A 
HETATM   14  C12 UNK     1      17.989   1.942  36.287  1.00  0.00     0.050 C 
HETATM   15  C13 UNK     1      18.697   2.652  30.025  1.00  0.00     0.054 C 
HETATM   16  C14 UNK     1      18.666   6.621  31.716  1.00  0.00     0.150 A 
HETATM   17  C16 UNK     1      18.395   7.257  34.166  1.00  0.00     0.051 C 
ENDROOT
BRANCH  10  18
HETATM   18  C10 UNK     1      17.782  -0.959  35.391  1.00  0.00     0.148 C 
BRANCH  18  19
HETATM   19  C15 UNK     1      19.118  -1.571  35.740  1.00  0.00     0.222 C 
HETATM   20  O4  UNK     1      20.179  -0.970  35.581  1.00  0.00    -0.273 OA
HETATM   21  N1  UNK     1      18.997  -2.861  36.232  1.00  0.00    -0.360 N 
HETATM   22  H18 UNK     1      18.074  -3.275  36.323  1.00  0.00     0.162 HD
BRANCH  21  23
HETATM   23  C17 UNK     1      20.133  -3.665  36.621  1.00  0.00     0.127 C 
BRANCH  23  24
HETATM   24  C18 UNK     1      20.091  -5.068  36.021  1.00  0.00     0.061 C 
BRANCH  24  25
HETATM   25  C19 UNK     1      19.873  -6.144  37.057  1.00  0.00    -0.023 A 
HETATM   26  C20 UNK     1      19.188  -7.304  36.724  1.00  0.00     0.074 A 
HETATM   27  C22 UNK     1      18.997  -8.288  37.694  1.00  0.00     0.037 A 
HETATM   28  C24 UNK     1      19.492  -8.103  38.984  1.00  0.00     0.003 A 
HETATM   29  C23 UNK     1      20.180  -6.932  39.305  1.00  0.00     0.001 A 
HETATM   30  C21 UNK     1      20.371  -5.948  38.337  1.00  0.00     0.010 A 
BRANCH  26  31
HETATM   31  O5  UNK     1      18.699  -7.502  35.469  1.00  0.00    -0.355 OA
HETATM   32  C25 UNK     1      17.280  -7.519  35.322  1.00  0.00     0.210 C 
ENDBRANCH  26  31
ENDBRANCH  24  25
ENDBRANCH  23  24
ENDBRANCH  21  23
ENDBRANCH  18  19
ENDBRANCH  10  18
TORSDOF 6
ENDMDL
MODEL 2
REMARK VINA RESULT:     -10.0      1.328      2.006
REMARK  6 active torsions:
REMARK  status: ('A' for Active; 'I' for Inactive)
REMARK    1  A    between atoms: C20_26  and  O5_5 
REMARK       I    between atoms: C15_21  and  N1_6 
REMARK    2  A    between atoms: C17_23  and  N1_6 
REMARK    3  A    between atoms: C10_16  and  C7_13 
REMARK    4  A    between atoms: C10_16  and  C15_21 
REMARK    5  A    between atoms: C17_23  and  C18_24 
REMARK    6  A    between atoms: C18_24  and  C19_25 
ROOT
HETATM    1  O1  UNK     1      18.562   0.470  31.838  1.00  0.00    -0.274 OA
HETATM    2  O2  UNK     1      18.755   4.988  30.173  1.00  0.00    -0.321 OA
HETATM    3  O3  UNK     1      18.446  -1.652  32.633  1.00  0.00    -0.259 OA
HETATM    4  C1  UNK     1      18.285   2.368  33.338  1.00  0.00     0.006 A 
HETATM    5  C2  UNK     1      18.506   1.859  32.058  1.00  0.00     0.099 A 
HETATM    6  C3  UNK     1      18.116   1.421  34.463  1.00  0.00    -0.036 A 
HETATM    7  C4  UNK     1      18.395   4.609  32.371  1.00  0.00     0.007 A 
HETATM    8  C5  UNK     1      18.681   2.655  30.918  1.00  0.00     0.008 A 
HETATM    9  C6  UNK     1      18.616   4.027  31.129  1.00  0.00     0.094 A 
HETATM   10  C7  UNK     1      18.138   0.092  34.226  1.00  0.00     0.033 A 
HETATM   11  C8  UNK     1      18.225   3.769  33.491  1.00  0.00     0.029 A 
HETATM   12  C9  UNK     1      18.399   6.011  32.145  1.00  0.00    -0.027 A 
HETATM   13  C11 UNK     1      18.386  -0.447  32.859  1.00  0.00     0.295 A 
HETATM   14  C12 UNK     1      17.943   2.017  35.839  1.00  0.00     0.050 C 
HETATM   15  C13 UNK     1      18.916   2.060  29.572  1.00  0.00     0.054 C 
HETATM   16  C14 UNK     1      18.622   6.187  30.798  1.00  0.00     0.150 A 
HETATM   17  C16 UNK     1      18.206   7.077  33.147  1.00  0.00     0.051 C 
ENDROOT
BRANCH  10  18
HETATM   18  C10 UNK     1      17.912  -0.972  35.270  1.00  0.00     0.148 C 
BRANCH  18  19
HETATM   19  C15 UNK     1      19.256  -1.472  35.744  1.00  0.00     0.222 C 
HETATM   20  O4  UNK     1      20.271  -0.777  35.697  1.00  0.00    -0.273 OA
HETATM   21  N1  UNK     1      19.204  -2.776  36.207  1.00  0.00    -0.360 N 
HETATM   22  H18 UNK     1      18.316  -3.272  36.202  1.00  0.00     0.162 HD
BRANCH  21  23
HETATM   23  C17 UNK     1      20.363  -3.486  36.699  1.00  0.00     0.127 C 
BRANCH  23  24
HETATM   24  C18 UNK     1      19.999  -4.794  37.395  1.00  0.00     0.061 C 
BRANCH  24  25
HETATM   25  C19 UNK     1      20.380  -6.013  36.593  1.00  0.00    -0.023 A 
HETATM   26  C20 UNK     1      21.220  -6.973  37.140  1.00  0.00     0.074 A 
HETATM   27  C22 UNK     1      21.562  -8.094  36.384  1.00  0.00     0.037 A 
HETATM   28  C24 UNK     1      21.062  -8.245  35.091  1.00  0.00     0.003 A 
HETATM   29  C23 UNK     1      20.218  -7.272  34.553  1.00  0.00     0.001 A 
HETATM   30  C21 UNK     1      19.875  -6.151  35.308  1.00  0.00     0.010 A 
BRANCH  26  31
HETATM   31  O5  UNK     1      21.718  -6.843  38.401  1.00  0.00    -0.355 OA
HETATM   32  C25 UNK     1      21.375  -7.858  39.342  1.00  0.00     0.210 C 
ENDBRANCH  26  31
ENDBRANCH  24  25
ENDBRANCH  23  24
ENDBRANCH  21  23
ENDBRANCH  18  19
ENDBRANCH  10  18
TORSDOF 6
ENDMDL
MODEL 3
REMARK VINA RESULT:      -9.8      5.153      8.462
REMARK  6 active torsions:
REMARK  status: ('A' for Active; 'I' for Inactive)
REMARK    1  A    between atoms: C20_26  and  O5_5 
REMARK       I    between atoms: C15_21  and  N1_6 
REMARK    2  A    between atoms: C17_23  and  N1_6 
REMARK    3  A    between atoms: C10_16  and  C7_13 
REMARK    4  A    between atoms: C10_16  and  C15_21 
REMARK    5  A    between atoms: C17_23  and  C18_24 
REMARK    6  A    between atoms: C18_24  and  C19_25 
ROOT
HETATM    1  O1  UNK     1      16.079   7.769  33.031  1.00  0.00    -0.274 OA
HETATM    2  O2  UNK     1      15.175  12.397  34.029  1.00  0.00    -0.321 OA
HETATM    3  O3  UNK     1      16.517   5.587  32.588  1.00  0.00    -0.259 OA
HETATM    4  C1  UNK     1      17.866   9.271  33.725  1.00  0.00     0.006 A 
HETATM    5  C2  UNK     1      16.522   9.046  33.426  1.00  0.00     0.099 A 
HETATM    6  C3  UNK     1      18.820   8.145  33.615  1.00  0.00    -0.036 A 
HETATM    7  C4  UNK     1      17.278  11.593  34.211  1.00  0.00     0.007 A 
HETATM    8  C5  UNK     1      15.528  10.032  33.493  1.00  0.00     0.008 A 
HETATM    9  C6  UNK     1      15.960  11.292  33.892  1.00  0.00     0.094 A 
HETATM   10  C7  UNK     1      18.370   6.920  33.270  1.00  0.00     0.033 A 
HETATM   11  C8  UNK     1      18.244  10.569  34.128  1.00  0.00     0.029 A 
HETATM   12  C9  UNK     1      17.284  12.968  34.564  1.00  0.00    -0.027 A 
HETATM   13  C11 UNK     1      16.935   6.686  32.939  1.00  0.00     0.295 A 
HETATM   14  C12 UNK     1      20.273   8.450  33.887  1.00  0.00     0.050 C 
HETATM   15  C13 UNK     1      14.106   9.739  33.160  1.00  0.00     0.054 C 
HETATM   16  C14 UNK     1      15.986  13.407  34.436  1.00  0.00     0.150 A 
HETATM   17  C16 UNK     1      18.444  13.776  34.985  1.00  0.00     0.051 C 
ENDROOT
BRANCH  10  18
HETATM   18  C10 UNK     1      19.224   5.680  33.188  1.00  0.00     0.148 C 
BRANCH  18  19
HETATM   19  C15 UNK     1      19.429   5.334  31.732  1.00  0.00     0.222 C 
HETATM   20  O4  UNK     1      20.047   6.067  30.962  1.00  0.00    -0.273 OA
HETATM   21  N1  UNK     1      18.834   4.132  31.385  1.00  0.00    -0.360 N 
HETATM   22  H18 UNK     1      18.340   3.597  32.094  1.00  0.00     0.162 HD
BRANCH  21  23
HETATM   23  C17 UNK     1      18.874   3.591  30.045  1.00  0.00     0.127 C 
BRANCH  23  24
HETATM   24  C18 UNK     1      18.055   2.310  29.905  1.00  0.00     0.061 C 
BRANCH  24  25
HETATM   25  C19 UNK     1      18.903   1.063  29.940  1.00  0.00    -0.023 A 
HETATM   26  C20 UNK     1      19.236   0.479  31.154  1.00  0.00     0.074 A 
HETATM   27  C22 UNK     1      20.020  -0.674  31.168  1.00  0.00     0.037 A 
HETATM   28  C24 UNK     1      20.463  -1.231  29.969  1.00  0.00     0.003 A 
HETATM   29  C23 UNK     1      20.121  -0.634  28.754  1.00  0.00     0.001 A 
HETATM   30  C21 UNK     1      19.337   0.518  28.740  1.00  0.00     0.010 A 
BRANCH  26  31
HETATM   31  O5  UNK     1      18.812   1.010  32.335  1.00  0.00    -0.355 OA
HETATM   32  C25 UNK     1      18.572   0.100  33.406  1.00  0.00     0.210 C 
ENDBRANCH  26  31
ENDBRANCH  24  25
ENDBRANCH  23  24
ENDBRANCH  21  23
ENDBRANCH  18  19
ENDBRANCH  10  18
TORSDOF 6
ENDMDL
MODEL 4
REMARK VINA RESULT:      -9.4     26.072     28.758
REMARK  6 active torsions:
REMARK  status: ('A' for Active; 'I' for Inactive)
REMARK    1  A    between atoms: C20_26  and  O5_5 
REMARK       I    between atoms: C15_21  and  N1_6 
REMARK    2  A    between atoms: C17_23  and  N1_6 
REMARK    3  A    between atoms: C10_16  and  C7_13 
REMARK    4  A    between atoms: C10_16  and  C15_21 
REMARK    5  A    between atoms: C17_23  and  C18_24 
REMARK    6  A    between atoms: C18_24  and  C19_25 
ROOT
HETATM    1  O1  UNK     1      17.909   9.674   9.086  1.00  0.00    -0.274 OA
HETATM    2  O2  UNK     1      17.909  13.751   6.516  1.00  0.00    -0.321 OA
HETATM    3  O3  UNK     1      17.888   7.744  10.279  1.00  0.00    -0.259 OA
HETATM    4  C1  UNK     1      15.883  11.004   8.851  1.00  0.00     0.006 A 
HETATM    5  C2  UNK     1      17.236  10.802   8.579  1.00  0.00     0.099 A 
HETATM    6  C3  UNK     1      15.168  10.013   9.685  1.00  0.00    -0.036 A 
HETATM    7  C4  UNK     1      16.010  13.046   7.516  1.00  0.00     0.007 A 
HETATM    8  C5  UNK     1      18.018  11.670   7.804  1.00  0.00     0.008 A 
HETATM    9  C6  UNK     1      17.354  12.780   7.294  1.00  0.00     0.094 A 
HETATM   10  C7  UNK     1      15.821   8.919  10.132  1.00  0.00     0.033 A 
HETATM   11  C8  UNK     1      15.263  12.146   8.303  1.00  0.00     0.029 A 
HETATM   12  C9  UNK     1      15.738  14.257   6.824  1.00  0.00    -0.027 A 
HETATM   13  C11 UNK     1      17.271   8.714   9.850  1.00  0.00     0.295 A 
HETATM   14  C12 UNK     1      13.721  10.305  10.005  1.00  0.00     0.050 C 
HETATM   15  C13 UNK     1      19.462  11.409   7.546  1.00  0.00     0.054 C 
HETATM   16  C14 UNK     1      16.922  14.642   6.237  1.00  0.00     0.150 A 
HETATM   17  C16 UNK     1      14.449  14.969   6.745  1.00  0.00     0.051 C 
ENDROOT
BRANCH  10  18
HETATM   18  C10 UNK     1      15.192   7.807  10.931  1.00  0.00     0.148 C 
BRANCH  18  19
HETATM   19  C15 UNK     1      14.986   6.619  10.021  1.00  0.00     0.222 C 
HETATM   20  O4  UNK     1      15.545   5.540  10.211  1.00  0.00    -0.273 OA
HETATM   21  N1  UNK     1      14.129   6.900   8.970  1.00  0.00    -0.360 N 
HETATM   22  H18 UNK     1      13.719   7.827   8.895  1.00  0.00     0.162 HD
BRANCH  21  23
HETATM   23  C17 UNK     1      13.786   5.933   7.952  1.00  0.00     0.127 C 
BRANCH  23  24
HETATM   24  C18 UNK     1      12.561   5.101   8.322  1.00  0.00     0.061 C 
BRANCH  24  25
HETATM   25  C19 UNK     1      11.293   5.605   7.680  1.00  0.00    -0.023 A 
HETATM   26  C20 UNK     1      10.130   5.718   8.428  1.00  0.00     0.074 A 
HETATM   27  C22 UNK     1       8.966   6.186   7.818  1.00  0.00     0.037 A 
HETATM   28  C24 UNK     1       8.977   6.536   6.469  1.00  0.00     0.003 A 
HETATM   29  C23 UNK     1      10.153   6.418   5.728  1.00  0.00     0.001 A 
HETATM   30  C21 UNK     1      11.317   5.950   6.336  1.00  0.00     0.010 A 
BRANCH  26  31
HETATM   31  O5  UNK     1      10.101   5.381   9.748  1.00  0.00    -0.355 OA
HETATM   32  C25 UNK     1       9.148   4.397  10.145  1.00  0.00     0.210 C 
ENDBRANCH  26  31
ENDBRANCH  24  25
ENDBRANCH  23  24
ENDBRANCH  21  23
ENDBRANCH  18  19
ENDBRANCH  10  18
TORSDOF 6
ENDMDL
MODEL 5
REMARK VINA RESULT:      -9.3     12.460     15.085
REMARK  6 active torsions:
REMARK  status: ('A' for Active; 'I' for Inactive)
REMARK    1  A    between atoms: C20_26  and  O5_5 
REMARK       I    between atoms: C15_21  and  N1_6 
REMARK    2  A    between atoms: C17_23  and  N1_6 
REMARK    3  A    between atoms: C10_16  and  C7_13 
REMARK    4  A    between atoms: C10_16  and  C15_21 
REMARK    5  A    between atoms: C17_23  and  C18_24 
REMARK    6  A    between atoms: C18_24  and  C19_25 
ROOT
HETATM    1  O1  UNK     1      29.481  -8.399  34.790  1.00  0.00    -0.274 OA
HETATM    2  O2  UNK     1      31.275  -4.346  36.684  1.00  0.00    -0.321 OA
HETATM    3  O3  UNK     1      28.661 -10.320  33.904  1.00  0.00    -0.259 OA
HETATM    4  C1  UNK     1      31.537  -7.419  33.929  1.00  0.00     0.006 A 
HETATM    5  C2  UNK     1      30.464  -7.391  34.819  1.00  0.00     0.099 A 
HETATM    6  C3  UNK     1      31.622  -8.525  32.949  1.00  0.00    -0.036 A 
HETATM    7  C4  UNK     1      32.349  -5.368  34.979  1.00  0.00     0.007 A 
HETATM    8  C5  UNK     1      30.276  -6.397  35.790  1.00  0.00     0.008 A 
HETATM    9  C6  UNK     1      31.250  -5.406  35.828  1.00  0.00     0.094 A 
HETATM   10  C7  UNK     1      30.689  -9.501  32.960  1.00  0.00     0.033 A 
HETATM   11  C8  UNK     1      32.496  -6.389  34.017  1.00  0.00     0.029 A 
HETATM   12  C9  UNK     1      33.083  -4.211  35.351  1.00  0.00    -0.027 A 
HETATM   13  C11 UNK     1      29.537  -9.461  33.906  1.00  0.00     0.295 A 
HETATM   14  C12 UNK     1      32.765  -8.480  31.964  1.00  0.00     0.050 C 
HETATM   15  C13 UNK     1      29.110  -6.413  36.716  1.00  0.00     0.054 C 
HETATM   16  C14 UNK     1      32.389  -3.628  36.388  1.00  0.00     0.150 A 
HETATM   17  C16 UNK     1      34.339  -3.720  34.754  1.00  0.00     0.051 C 
ENDROOT
BRANCH  10  18
HETATM   18  C10 UNK     1      30.699 -10.712  32.063  1.00  0.00     0.148 C 
BRANCH  18  19
HETATM   19  C15 UNK     1      30.120 -10.322  30.723  1.00  0.00     0.222 C 
HETATM   20  O4  UNK     1      30.755 -10.429  29.675  1.00  0.00    -0.273 OA
HETATM   21  N1  UNK     1      28.831  -9.826  30.827  1.00  0.00    -0.360 N 
HETATM   22  H18 UNK     1      28.390  -9.772  31.741  1.00  0.00     0.162 HD
BRANCH  21  23
HETATM   23  C17 UNK     1      28.068  -9.368  29.688  1.00  0.00     0.127 C 
BRANCH  23  24
HETATM   24  C18 UNK     1      27.289  -8.089  29.980  1.00  0.00     0.061 C 
BRANCH  24  25
HETATM   25  C19 UNK     1      28.109  -7.056  30.713  1.00  0.00    -0.023 A 
HETATM   26  C20 UNK     1      29.332  -6.645  30.201  1.00  0.00     0.074 A 
HETATM   27  C22 UNK     1      30.077  -5.689  30.892  1.00  0.00     0.037 A 
HETATM   28  C24 UNK     1      29.592  -5.153  32.084  1.00  0.00     0.003 A 
HETATM   29  C23 UNK     1      28.360  -5.575  32.588  1.00  0.00     0.001 A 
HETATM   30  C21 UNK     1      27.616  -6.531  31.899  1.00  0.00     0.010 A 
BRANCH  26  31
HETATM   31  O5  UNK     1      29.821  -7.157  29.038  1.00  0.00    -0.355 OA
HETATM   32  C25 UNK     1      31.220  -7.016  28.804  1.00  0.00     0.210 C 
ENDBRANCH  26  31
ENDBRANCH  24  25
ENDBRANCH  23  24
ENDBRANCH  21  23
ENDBRANCH  18  19
ENDBRANCH  10  18
TORSDOF 6
ENDMDL
MODEL 6
REMARK VINA RESULT:      -9.3      5.662     12.569
REMARK  6 active torsions:
REMARK  status: ('A' for Active; 'I' for Inactive)
REMARK    1  A    between atoms: C20_26  and  O5_5 
REMARK       I    between atoms: C15_21  and  N1_6 
REMARK    2  A    between atoms: C17_23  and  N1_6 
REMARK    3  A    between atoms: C10_16  and  C7_13 
REMARK    4  A    between atoms: C10_16  and  C15_21 
REMARK    5  A    between atoms: C17_23  and  C18_24 
REMARK    6  A    between atoms: C18_24  and  C19_25 
ROOT
HETATM    1  O1  UNK     1      17.945   4.696  34.066  1.00  0.00    -0.274 OA
HETATM    2  O2  UNK     1      18.748   0.182  32.581  1.00  0.00    -0.321 OA
HETATM    3  O3  UNK     1      17.547   6.824  34.745  1.00  0.00    -0.259 OA
HETATM    4  C1  UNK     1      18.548   4.229  31.754  1.00  0.00     0.006 A 
HETATM    5  C2  UNK     1      18.284   3.783  33.049  1.00  0.00     0.099 A 
HETATM    6  C3  UNK     1      18.471   5.679  31.468  1.00  0.00    -0.036 A 
HETATM    7  C4  UNK     1      18.921   1.898  31.123  1.00  0.00     0.007 A 
HETATM    8  C5  UNK     1      18.326   2.438  33.439  1.00  0.00     0.008 A 
HETATM    9  C6  UNK     1      18.650   1.533  32.435  1.00  0.00     0.094 A 
HETATM   10  C7  UNK     1      18.110   6.535  32.448  1.00  0.00     0.033 A 
HETATM   11  C8  UNK     1      18.868   3.264  30.776  1.00  0.00     0.029 A 
HETATM   12  C9  UNK     1      19.198   0.687  30.435  1.00  0.00    -0.027 A 
HETATM   13  C11 UNK     1      17.840   6.056  33.834  1.00  0.00     0.295 A 
HETATM   14  C12 UNK     1      18.827   6.121  30.069  1.00  0.00     0.050 C 
HETATM   15  C13 UNK     1      18.037   2.015  34.838  1.00  0.00     0.054 C 
HETATM   16  C14 UNK     1      19.081  -0.322  31.364  1.00  0.00     0.150 A 
HETATM   17  C16 UNK     1      19.545   0.528  29.010  1.00  0.00     0.051 C 
ENDROOT
BRANCH  10  18
HETATM   18  C10 UNK     1      17.930   8.021  32.272  1.00  0.00     0.148 C 
BRANCH  18  19
HETATM   19  C15 UNK     1      16.472   8.298  31.995  1.00  0.00     0.222 C 
HETATM   20  O4  UNK     1      16.010   8.315  30.855  1.00  0.00    -0.273 OA
HETATM   21  N1  UNK     1      15.749   8.540  33.152  1.00  0.00    -0.360 N 
HETATM   22  H18 UNK     1      16.222   8.508  34.051  1.00  0.00     0.162 HD
BRANCH  21  23
HETATM   23  C17 UNK     1      14.337   8.848  33.149  1.00  0.00     0.127 C 
BRANCH  23  24
HETATM   24  C18 UNK     1      13.967   9.910  34.181  1.00  0.00     0.061 C 
BRANCH  24  25
HETATM   25  C19 UNK     1      14.146  11.317  33.666  1.00  0.00    -0.023 A 
HETATM   26  C20 UNK     1      15.298  12.030  33.969  1.00  0.00     0.074 A 
HETATM   27  C22 UNK     1      15.447  13.329  33.485  1.00  0.00     0.037 A 
HETATM   28  C24 UNK     1      14.445  13.902  32.702  1.00  0.00     0.003 A 
HETATM   29  C23 UNK     1      13.292  13.174  32.404  1.00  0.00     0.001 A 
HETATM   30  C21 UNK     1      13.142  11.875  32.888  1.00  0.00     0.010 A 
BRANCH  26  31
HETATM   31  O5  UNK     1      16.286  11.486  34.732  1.00  0.00    -0.355 OA
HETATM   32  C25 UNK     1      17.601  11.479  34.181  1.00  0.00     0.210 C 
ENDBRANCH  26  31
ENDBRANCH  24  25
ENDBRANCH  23  24
ENDBRANCH  21  23
ENDBRANCH  18  19
ENDBRANCH  10  18
TORSDOF 6
ENDMDL
MODEL 7
REMARK VINA RESULT:      -9.3      9.275     13.147
REMARK  6 active torsions:
REMARK  status: ('A' for Active; 'I' for Inactive)
REMARK    1  A    between atoms: C20_26  and  O5_5 
REMARK       I    between atoms: C15_21  and  N1_6 
REMARK    2  A    between atoms: C17_23  and  N1_6 
REMARK    3  A    between atoms: C10_16  and  C7_13 
REMARK    4  A    between atoms: C10_16  and  C15_21 
REMARK    5  A    between atoms: C17_23  and  C18_24 
REMARK    6  A    between atoms: C18_24  and  C19_25 
ROOT
HETATM    1  O1  UNK     1      29.756  -4.608  37.905  1.00  0.00    -0.274 OA
HETATM    2  O2  UNK     1      33.815  -3.974  35.384  1.00  0.00    -0.321 OA
HETATM    3  O3  UNK     1      27.859  -4.922  39.110  1.00  0.00    -0.259 OA
HETATM    4  C1  UNK     1      31.055  -6.514  37.126  1.00  0.00     0.006 A 
HETATM    5  C2  UNK     1      30.867  -5.135  37.220  1.00  0.00     0.099 A 
HETATM    6  C3  UNK     1      30.062  -7.414  37.754  1.00  0.00    -0.036 A 
HETATM    7  C4  UNK     1      33.099  -6.061  35.865  1.00  0.00     0.007 A 
HETATM    8  C5  UNK     1      31.737  -4.186  36.665  1.00  0.00     0.008 A 
HETATM    9  C6  UNK     1      32.840  -4.703  35.997  1.00  0.00     0.094 A 
HETATM   10  C7  UNK     1      29.022  -6.889  38.437  1.00  0.00     0.033 A 
HETATM   11  C8  UNK     1      32.195  -6.980  36.439  1.00  0.00     0.029 A 
HETATM   12  C9  UNK     1      34.308  -6.154  35.127  1.00  0.00    -0.027 A 
HETATM   13  C11 UNK     1      28.819  -5.415  38.525  1.00  0.00     0.295 A 
HETATM   14  C12 UNK     1      30.273  -8.898  37.573  1.00  0.00     0.050 C 
HETATM   15  C13 UNK     1      31.488  -2.723  36.793  1.00  0.00     0.054 C 
HETATM   16  C14 UNK     1      34.699  -4.861  34.860  1.00  0.00     0.150 A 
HETATM   17  C16 UNK     1      35.014  -7.383  34.720  1.00  0.00     0.051 C 
ENDROOT
BRANCH  10  18
HETATM   18  C10 UNK     1      27.984  -7.693  39.177  1.00  0.00     0.148 C 
BRANCH  18  19
HETATM   19  C15 UNK     1      26.741  -7.773  38.322  1.00  0.00     0.222 C 
HETATM   20  O4  UNK     1      26.779  -7.687  37.096  1.00  0.00    -0.273 OA
HETATM   21  N1  UNK     1      25.589  -7.931  39.076  1.00  0.00    -0.360 N 
HETATM   22  H18 UNK     1      25.660  -7.987  40.088  1.00  0.00     0.162 HD
BRANCH  21  23
HETATM   23  C17 UNK     1      24.270  -8.016  38.491  1.00  0.00     0.127 C 
BRANCH  23  24
HETATM   24  C18 UNK     1      23.256  -7.121  39.199  1.00  0.00     0.061 C 
BRANCH  24  25
HETATM   25  C19 UNK     1      21.827  -7.504  38.904  1.00  0.00    -0.023 A 
HETATM   26  C20 UNK     1      21.080  -6.764  37.998  1.00  0.00     0.074 A 
HETATM   27  C22 UNK     1      19.760  -7.132  37.737  1.00  0.00     0.037 A 
HETATM   28  C24 UNK     1      19.202  -8.234  38.383  1.00  0.00     0.003 A 
HETATM   29  C23 UNK     1      19.964  -8.970  39.291  1.00  0.00     0.001 A 
HETATM   30  C21 UNK     1      21.284  -8.603  39.553  1.00  0.00     0.010 A 
BRANCH  26  31
HETATM   31  O5  UNK     1      21.610  -5.685  37.358  1.00  0.00    -0.355 OA
HETATM   32  C25 UNK     1      20.911  -4.448  37.485  1.00  0.00     0.210 C 
ENDBRANCH  26  31
ENDBRANCH  24  25
ENDBRANCH  23  24
ENDBRANCH  21  23
ENDBRANCH  18  19
ENDBRANCH  10  18
TORSDOF 6
ENDMDL
MODEL 8
REMARK VINA RESULT:      -9.2      1.356      2.686
REMARK  6 active torsions:
REMARK  status: ('A' for Active; 'I' for Inactive)
REMARK    1  A    between atoms: C20_26  and  O5_5 
REMARK       I    between atoms: C15_21  and  N1_6 
REMARK    2  A    between atoms: C17_23  and  N1_6 
REMARK    3  A    between atoms: C10_16  and  C7_13 
REMARK    4  A    between atoms: C10_16  and  C15_21 
REMARK    5  A    between atoms: C17_23  and  C18_24 
REMARK    6  A    between atoms: C18_24  and  C19_25 
ROOT
HETATM    1  O1  UNK     1      18.394   2.769  35.516  1.00  0.00    -0.274 OA
HETATM    2  O2  UNK     1      18.709   4.865  31.188  1.00  0.00    -0.321 OA
HETATM    3  O3  UNK     1      18.267   1.764  37.547  1.00  0.00    -0.259 OA
HETATM    4  C1  UNK     1      18.189   1.459  33.474  1.00  0.00     0.006 A 
HETATM    5  C2  UNK     1      18.375   2.686  34.111  1.00  0.00     0.099 A 
HETATM    6  C3  UNK     1      18.006   0.246  34.302  1.00  0.00    -0.036 A 
HETATM    7  C4  UNK     1      18.375   2.637  31.341  1.00  0.00     0.007 A 
HETATM    8  C5  UNK     1      18.558   3.900  33.435  1.00  0.00     0.008 A 
HETATM    9  C6  UNK     1      18.549   3.820  32.047  1.00  0.00     0.094 A 
HETATM   10  C7  UNK     1      18.063   0.340  35.648  1.00  0.00     0.033 A 
HETATM   11  C8  UNK     1      18.194   1.439  32.064  1.00  0.00     0.029 A 
HETATM   12  C9  UNK     1      18.435   2.995  29.968  1.00  0.00    -0.027 A 
HETATM   13  C11 UNK     1      18.250   1.656  36.324  1.00  0.00     0.295 A 
HETATM   14  C12 UNK     1      17.744  -1.049  33.571  1.00  0.00     0.050 C 
HETATM   15  C13 UNK     1      18.751   5.185  34.164  1.00  0.00     0.054 C 
HETATM   16  C14 UNK     1      18.638   4.356  29.931  1.00  0.00     0.150 A 
HETATM   17  C16 UNK     1      18.307   2.097  28.806  1.00  0.00     0.051 C 
ENDROOT
BRANCH  10  18
HETATM   18  C10 UNK     1      17.959  -0.825  36.598  1.00  0.00     0.148 C 
BRANCH  18  19
HETATM   19  C15 UNK     1      19.246  -1.612  36.534  1.00  0.00     0.222 C 
HETATM   20  O4  UNK     1      20.224  -1.224  35.896  1.00  0.00    -0.273 OA
HETATM   21  N1  UNK     1      19.179  -2.797  37.249  1.00  0.00    -0.360 N 
HETATM   22  H18 UNK     1      18.322  -3.034  37.742  1.00  0.00     0.162 HD
BRANCH  21  23
HETATM   23  C17 UNK     1      20.277  -3.734  37.326  1.00  0.00     0.127 C 
BRANCH  23  24
HETATM   24  C18 UNK     1      20.031  -4.994  36.501  1.00  0.00     0.061 C 
BRANCH  24  25
HETATM   25  C19 UNK     1      19.841  -6.226  37.351  1.00  0.00    -0.023 A 
HETATM   26  C20 UNK     1      19.225  -7.351  36.822  1.00  0.00     0.074 A 
HETATM   27  C22 UNK     1      19.057  -8.481  37.622  1.00  0.00     0.037 A 
HETATM   28  C24 UNK     1      19.508  -8.476  38.941  1.00  0.00     0.003 A 
HETATM   29  C23 UNK     1      20.128  -7.338  39.461  1.00  0.00     0.001 A 
HETATM   30  C21 UNK     1      20.295  -6.208  38.662  1.00  0.00     0.010 A 
BRANCH  26  31
HETATM   31  O5  UNK     1      18.778  -7.374  35.535  1.00  0.00    -0.355 OA
HETATM   32  C25 UNK     1      17.367  -7.444  35.339  1.00  0.00     0.210 C 
ENDBRANCH  26  31
ENDBRANCH  24  25
ENDBRANCH  23  24
ENDBRANCH  21  23
ENDBRANCH  18  19
ENDBRANCH  10  18
TORSDOF 6
ENDMDL
MODEL 9
REMARK VINA RESULT:      -9.1      9.465     13.427
REMARK  6 active torsions:
REMARK  status: ('A' for Active; 'I' for Inactive)
REMARK    1  A    between atoms: C20_26  and  O5_5 
REMARK       I    between atoms: C15_21  and  N1_6 
REMARK    2  A    between atoms: C17_23  and  N1_6 
REMARK    3  A    between atoms: C10_16  and  C7_13 
REMARK    4  A    between atoms: C10_16  and  C15_21 
REMARK    5  A    between atoms: C17_23  and  C18_24 
REMARK    6  A    between atoms: C18_24  and  C19_25 
ROOT
HETATM    1  O1  UNK     1      30.362  -8.794  37.117  1.00  0.00    -0.274 OA
HETATM    2  O2  UNK     1      33.952  -7.187  34.332  1.00  0.00    -0.321 OA
HETATM    3  O3  UNK     1      28.655  -9.531  38.417  1.00  0.00    -0.259 OA
HETATM    4  C1  UNK     1      31.037  -6.455  37.173  1.00  0.00     0.006 A 
HETATM    5  C2  UNK     1      31.191  -7.747  36.671  1.00  0.00     0.099 A 
HETATM    6  C3  UNK     1      29.989  -6.204  38.187  1.00  0.00    -0.036 A 
HETATM    7  C4  UNK     1      32.865  -5.762  35.706  1.00  0.00     0.007 A 
HETATM    8  C5  UNK     1      32.147  -8.106  35.710  1.00  0.00     0.008 A 
HETATM    9  C6  UNK     1      32.961  -7.073  35.260  1.00  0.00     0.094 A 
HETATM   10  C7  UNK     1      29.180  -7.213  38.576  1.00  0.00     0.033 A 
HETATM   11  C8  UNK     1      31.889  -5.447  36.675  1.00  0.00     0.029 A 
HETATM   12  C9  UNK     1      33.863  -5.041  35.000  1.00  0.00    -0.027 A 
HETATM   13  C11 UNK     1      29.357  -8.595  38.046  1.00  0.00     0.295 A 
HETATM   14  C12 UNK     1      29.901  -4.805  38.747  1.00  0.00     0.050 C 
HETATM   15  C13 UNK     1      32.271  -9.504  35.209  1.00  0.00     0.054 C 
HETATM   16  C14 UNK     1      34.493  -5.951  34.181  1.00  0.00     0.150 A 
HETATM   17  C16 UNK     1      34.173  -3.603  35.112  1.00  0.00     0.051 C 
ENDROOT
BRANCH  10  18
HETATM   18  C10 UNK     1      28.036  -7.074  39.548  1.00  0.00     0.148 C 
BRANCH  18  19
HETATM   19  C15 UNK     1      26.755  -6.930  38.762  1.00  0.00     0.222 C 
HETATM   20  O4  UNK     1      26.555  -5.988  37.996  1.00  0.00    -0.273 OA
HETATM   21  N1  UNK     1      25.857  -7.952  39.022  1.00  0.00    -0.360 N 
HETATM   22  H18 UNK     1      26.112  -8.686  39.677  1.00  0.00     0.162 HD
BRANCH  21  23
HETATM   23  C17 UNK     1      24.551  -8.029  38.406  1.00  0.00     0.127 C 
BRANCH  23  24
HETATM   24  C18 UNK     1      23.519  -7.152  39.109  1.00  0.00     0.061 C 
BRANCH  24  25
HETATM   25  C19 UNK     1      22.102  -7.622  38.892  1.00  0.00    -0.023 A 
HETATM   26  C20 UNK     1      21.269  -6.943  38.014  1.00  0.00     0.074 A 
HETATM   27  C22 UNK     1      19.962  -7.391  37.825  1.00  0.00     0.037 A 
HETATM   28  C24 UNK     1      19.501  -8.513  38.515  1.00  0.00     0.003 A 
HETATM   29  C23 UNK     1      20.350  -9.187  39.394  1.00  0.00     0.001 A 
HETATM   30  C21 UNK     1      21.656  -8.739  39.584  1.00  0.00     0.010 A 
BRANCH  26  31
HETATM   31  O5  UNK     1      21.702  -5.846  37.333  1.00  0.00    -0.355 OA
HETATM   32  C25 UNK     1      21.063  -4.606  37.627  1.00  0.00     0.210 C 
ENDBRANCH  26  31
ENDBRANCH  24  25
ENDBRANCH  23  24
ENDBRANCH  21  23
ENDBRANCH  18  19
ENDBRANCH  10  18
TORSDOF 6
ENDMDL
MODEL 10
REMARK VINA RESULT:      -9.1     12.324     14.918
REMARK  6 active torsions:
REMARK  status: ('A' for Active; 'I' for Inactive)
REMARK    1  A    between atoms: C20_26  and  O5_5 
REMARK       I    between atoms: C15_21  and  N1_6 
REMARK    2  A    between atoms: C17_23  and  N1_6 
REMARK    3  A    between atoms: C10_16  and  C7_13 
REMARK    4  A    between atoms: C10_16  and  C15_21 
REMARK    5  A    between atoms: C17_23  and  C18_24 
REMARK    6  A    between atoms: C18_24  and  C19_25 
ROOT
HETATM    1  O1  UNK     1      32.280  -7.542  33.317  1.00  0.00    -0.274 OA
HETATM    2  O2  UNK     1      31.149  -4.395  36.789  1.00  0.00    -0.321 OA
HETATM    3  O3  UNK     1      32.787  -9.020  31.672  1.00  0.00    -0.259 OA
HETATM    4  C1  UNK     1      30.329  -7.889  34.732  1.00  0.00     0.006 A 
HETATM    5  C2  UNK     1      31.443  -7.131  34.373  1.00  0.00     0.099 A 
HETATM    6  C3  UNK     1      30.043  -9.135  33.988  1.00  0.00    -0.036 A 
HETATM    7  C4  UNK     1      29.857  -6.217  36.451  1.00  0.00     0.007 A 
HETATM    8  C5  UNK     1      31.815  -5.935  35.003  1.00  0.00     0.008 A 
HETATM    9  C6  UNK     1      30.986  -5.521  36.039  1.00  0.00     0.094 A 
HETATM   10  C7  UNK     1      30.837  -9.494  32.956  1.00  0.00     0.033 A 
HETATM   11  C8  UNK     1      29.522  -7.416  35.789  1.00  0.00     0.029 A 
HETATM   12  C9  UNK     1      29.305  -5.459  37.518  1.00  0.00    -0.027 A 
HETATM   13  C11 UNK     1      32.034  -8.688  32.583  1.00  0.00     0.295 A 
HETATM   14  C12 UNK     1      28.864  -9.955  34.453  1.00  0.00     0.050 C 
HETATM   15  C13 UNK     1      33.018  -5.164  34.581  1.00  0.00     0.054 C 
HETATM   16  C14 UNK     1      30.126  -4.366  37.682  1.00  0.00     0.150 A 
HETATM   17  C16 UNK     1      28.094  -5.770  38.301  1.00  0.00     0.051 C 
ENDROOT
BRANCH  10  18
HETATM   18  C10 UNK     1      30.617 -10.700  32.079  1.00  0.00     0.148 C 
BRANCH  18  19
HETATM   19  C15 UNK     1      30.032 -10.237  30.766  1.00  0.00     0.222 C 
HETATM   20  O4  UNK     1      30.670 -10.269  29.714  1.00  0.00    -0.273 OA
HETATM   21  N1  UNK     1      28.734  -9.773  30.898  1.00  0.00    -0.360 N 
HETATM   22  H18 UNK     1      28.292  -9.783  31.813  1.00  0.00     0.162 HD
BRANCH  21  23
HETATM   23  C17 UNK     1      27.964  -9.258  29.788  1.00  0.00     0.127 C 
BRANCH  23  24
HETATM   24  C18 UNK     1      27.227  -7.967  30.134  1.00  0.00     0.061 C 
BRANCH  24  25
HETATM   25  C19 UNK     1      28.101  -6.964  30.847  1.00  0.00    -0.023 A 
HETATM   26  C20 UNK     1      29.311  -6.575  30.291  1.00  0.00     0.074 A 
HETATM   27  C22 UNK     1      30.106  -5.647  30.963  1.00  0.00     0.037 A 
HETATM   28  C24 UNK     1      29.683  -5.118  32.182  1.00  0.00     0.003 A 
HETATM   29  C23 UNK     1      28.463  -5.517  32.729  1.00  0.00     0.001 A 
HETATM   30  C21 UNK     1      27.668  -6.445  32.058  1.00  0.00     0.010 A 
BRANCH  26  31
HETATM   31  O5  UNK     1      29.740  -7.082  29.102  1.00  0.00    -0.355 OA
HETATM   32  C25 UNK     1      31.139  -7.013  28.834  1.00  0.00     0.210 C 
ENDBRANCH  26  31
ENDBRANCH  24  25
ENDBRANCH  23  24
ENDBRANCH  21  23
ENDBRANCH  18  19
ENDBRANCH  10  18
TORSDOF 6
ENDMDL
