MODEL 1
REMARK VINA RESULT:      -8.2      0.000      0.000
REMARK  3 active torsions:
REMARK  status: ('A' for Active; 'I' for Inactive)
REMARK    1  A    between atoms: C11_15  and  O3_3 
REMARK    2  A    between atoms: C15_19  and  O4_4 
REMARK    3  A    between atoms: C1_5  and  C3_7 
ROOT
HETATM    1  O1  UNK     1      19.249  -0.255  32.663  1.00  0.00    -0.309 OA
HETATM    2  O2  UNK     1      18.405   2.850  30.164  1.00  0.00    -0.287 OA
HETATM    3  C1  UNK     1      18.678   0.919  33.129  1.00  0.00     0.090 A 
HETATM    4  C2  UNK     1      19.256   0.659  30.412  1.00  0.00     0.048 A 
HETATM    5  C4  UNK     1      19.522  -0.362  31.322  1.00  0.00     0.090 A 
HETATM    6  C5  UNK     1      18.383   1.975  32.355  1.00  0.00     0.093 A 
HETATM    7  C6  UNK     1      18.659   1.910  30.905  1.00  0.00     0.187 A 
HETATM    8  C8  UNK     1      19.556   0.495  29.058  1.00  0.00     0.018 A 
HETATM    9  C10 UNK     1      20.090  -1.558  30.882  1.00  0.00     0.038 A 
HETATM   10  C13 UNK     1      20.122  -0.703  28.620  1.00  0.00     0.001 A 
HETATM   11  C14 UNK     1      20.389  -1.727  29.530  1.00  0.00     0.003 A 
ENDROOT
BRANCH   3  12
HETATM   12  C3  UNK     1      18.432   0.931  34.585  1.00  0.00     0.001 A 
HETATM   13  C7  UNK     1      18.264  -0.271  35.278  1.00  0.00     0.053 A 
HETATM   14  C11 UNK     1      18.032  -0.260  36.653  1.00  0.00     0.099 A 
HETATM   15  C15 UNK     1      17.969   0.952  37.340  1.00  0.00     0.098 A 
HETATM   16  C12 UNK     1      18.137   2.154  36.652  1.00  0.00     0.040 A 
HETATM   17  C9  UNK     1      18.368   2.143  35.277  1.00  0.00     0.017 A 
BRANCH  14  18
HETATM   18  O3  UNK     1      17.868  -1.440  37.314  1.00  0.00    -0.358 OA
HETATM   19  H9  UNK     1      17.699  -1.267  38.254  1.00  0.00     0.217 HD
ENDBRANCH  14  18
BRANCH  15  20
HETATM   20  O4  UNK     1      17.743   0.974  38.683  1.00  0.00    -0.358 OA
HETATM   21  H10 UNK     1      17.600   1.888  38.977  1.00  0.00     0.217 HD
ENDBRANCH  15  20
ENDBRANCH   3  12
TORSDOF 3
ENDMDL
MODEL 2
REMARK VINA RESULT:      -8.2      1.630      2.868
REMARK  3 active torsions:
REMARK  status: ('A' for Active; 'I' for Inactive)
REMARK    1  A    between atoms: C11_15  and  O3_3 
REMARK    2  A    between atoms: C15_19  and  O4_4 
REMARK    3  A    between atoms: C1_5  and  C3_7 
ROOT
HETATM    1  O1  UNK     1      18.725   0.272  32.424  1.00  0.00    -0.309 OA
HETATM    2  O2  UNK     1      20.892  -3.171  32.635  1.00  0.00    -0.287 OA
HETATM    3  C1  UNK     1      18.811  -0.462  33.597  1.00  0.00     0.090 A 
HETATM    4  C2  UNK     1      20.161  -1.347  31.322  1.00  0.00     0.048 A 
HETATM    5  C4  UNK     1      19.400  -0.180  31.318  1.00  0.00     0.090 A 
HETATM    6  C5  UNK     1      19.506  -1.604  33.724  1.00  0.00     0.093 A 
HETATM    7  C6  UNK     1      20.248  -2.134  32.562  1.00  0.00     0.187 A 
HETATM    8  C8  UNK     1      20.827  -1.760  30.166  1.00  0.00     0.018 A 
HETATM    9  C10 UNK     1      19.299   0.584  30.155  1.00  0.00     0.038 A 
HETATM   10  C13 UNK     1      20.727  -0.993  29.004  1.00  0.00     0.001 A 
HETATM   11  C14 UNK     1      19.964   0.176  28.999  1.00  0.00     0.003 A 
ENDROOT
BRANCH   3  12
HETATM   12  C3  UNK     1      18.044   0.110  34.721  1.00  0.00     0.001 A 
HETATM   13  C7  UNK     1      18.682   0.915  35.669  1.00  0.00     0.053 A 
HETATM   14  C11 UNK     1      17.957   1.455  36.731  1.00  0.00     0.099 A 
HETATM   15  C15 UNK     1      16.591   1.194  36.848  1.00  0.00     0.098 A 
HETATM   16  C12 UNK     1      15.951   0.392  35.903  1.00  0.00     0.040 A 
HETATM   17  C9  UNK     1      16.676  -0.149  34.842  1.00  0.00     0.017 A 
BRANCH  14  18
HETATM   18  O3  UNK     1      18.593   2.236  37.648  1.00  0.00    -0.358 OA
HETATM   19  H9  UNK     1      18.253   3.145  37.596  1.00  0.00     0.217 HD
ENDBRANCH  14  18
BRANCH  15  20
HETATM   20  O4  UNK     1      15.874   1.717  37.881  1.00  0.00    -0.358 OA
HETATM   21  H10 UNK     1      14.957   1.867  37.600  1.00  0.00     0.217 HD
ENDBRANCH  15  20
ENDBRANCH   3  12
TORSDOF 3
ENDMDL
MODEL 3
REMARK VINA RESULT:      -8.2      2.068      7.090
REMARK  3 active torsions:
REMARK  status: ('A' for Active; 'I' for Inactive)
REMARK    1  A    between atoms: C11_15  and  O3_3 
REMARK    2  A    between atoms: C15_19  and  O4_4 
REMARK    3  A    between atoms: C1_5  and  C3_7 
ROOT
HETATM    1  O1  UNK     1      18.739  -0.656  34.036  1.00  0.00    -0.309 OA
HETATM    2  O2  UNK     1      20.604  -3.652  36.072  1.00  0.00    -0.287 OA
HETATM    3  C1  UNK     1      19.605  -1.535  33.405  1.00  0.00     0.090 A 
HETATM    4  C2  UNK     1      19.109  -1.823  36.134  1.00  0.00     0.048 A 
HETATM    5  C4  UNK     1      18.507  -0.818  35.379  1.00  0.00     0.090 A 
HETATM    6  C5  UNK     1      20.250  -2.536  34.024  1.00  0.00     0.093 A 
HETATM    7  C6  UNK     1      20.036  -2.752  35.470  1.00  0.00     0.187 A 
HETATM    8  C8  UNK     1      18.836  -1.940  37.499  1.00  0.00     0.018 A 
HETATM    9  C10 UNK     1      17.626   0.077  35.986  1.00  0.00     0.038 A 
HETATM   10  C13 UNK     1      17.953  -1.045  38.103  1.00  0.00     0.001 A 
HETATM   11  C14 UNK     1      17.349  -0.038  37.348  1.00  0.00     0.003 A 
ENDROOT
BRANCH   3  12
HETATM   12  C3  UNK     1      19.787  -1.267  31.964  1.00  0.00     0.001 A 
HETATM   13  C7  UNK     1      19.556   0.012  31.453  1.00  0.00     0.053 A 
HETATM   14  C11 UNK     1      19.728   0.266  30.092  1.00  0.00     0.099 A 
HETATM   15  C15 UNK     1      20.132  -0.760  29.238  1.00  0.00     0.098 A 
HETATM   16  C12 UNK     1      20.364  -2.039  29.744  1.00  0.00     0.040 A 
HETATM   17  C9  UNK     1      20.192  -2.292  31.105  1.00  0.00     0.017 A 
BRANCH  14  18
HETATM   18  O3  UNK     1      19.498   1.518  29.610  1.00  0.00    -0.358 OA
HETATM   19  H9  UNK     1      19.903   2.176  30.198  1.00  0.00     0.217 HD
ENDBRANCH  14  18
BRANCH  15  20
HETATM   20  O4  UNK     1      20.303  -0.524  27.907  1.00  0.00    -0.358 OA
HETATM   21  H10 UNK     1      19.462  -0.649  27.442  1.00  0.00     0.217 HD
ENDBRANCH  15  20
ENDBRANCH   3  12
TORSDOF 3
ENDMDL
MODEL 4
REMARK VINA RESULT:      -8.1     14.647     18.887
REMARK  3 active torsions:
REMARK  status: ('A' for Active; 'I' for Inactive)
REMARK    1  A    between atoms: C11_15  and  O3_3 
REMARK    2  A    between atoms: C15_19  and  O4_4 
REMARK    3  A    between atoms: C1_5  and  C3_7 
ROOT
HETATM    1  O1  UNK     1      19.220   0.473  15.538  1.00  0.00    -0.309 OA
HETATM    2  O2  UNK     1      18.783  -0.889  19.353  1.00  0.00    -0.287 OA
HETATM    3  C1  UNK     1      19.010  -0.870  15.811  1.00  0.00     0.090 A 
HETATM    4  C2  UNK     1      19.126   0.956  17.917  1.00  0.00     0.048 A 
HETATM    5  C4  UNK     1      19.271   1.354  16.589  1.00  0.00     0.090 A 
HETATM    6  C5  UNK     1      18.863  -1.376  17.046  1.00  0.00     0.093 A 
HETATM    7  C6  UNK     1      18.912  -0.469  18.211  1.00  0.00     0.187 A 
HETATM    8  C8  UNK     1      19.187   1.898  18.947  1.00  0.00     0.018 A 
HETATM    9  C10 UNK     1      19.477   2.699  16.282  1.00  0.00     0.038 A 
HETATM   10  C13 UNK     1      19.392   3.243  18.638  1.00  0.00     0.001 A 
HETATM   11  C14 UNK     1      19.537   3.643  17.308  1.00  0.00     0.003 A 
ENDROOT
BRANCH   3  12
HETATM   12  C3  UNK     1      18.978  -1.728  14.610  1.00  0.00     0.001 A 
HETATM   13  C7  UNK     1      18.979  -1.155  13.336  1.00  0.00     0.053 A 
HETATM   14  C11 UNK     1      18.951  -1.966  12.202  1.00  0.00     0.099 A 
HETATM   15  C15 UNK     1      18.921  -3.354  12.338  1.00  0.00     0.098 A 
HETATM   16  C12 UNK     1      18.920  -3.931  13.608  1.00  0.00     0.040 A 
HETATM   17  C9  UNK     1      18.949  -3.119  14.743  1.00  0.00     0.017 A 
BRANCH  14  18
HETATM   18  O3  UNK     1      18.951  -1.392  10.967  1.00  0.00    -0.358 OA
HETATM   19  H9  UNK     1      19.371  -1.990  10.328  1.00  0.00     0.217 HD
ENDBRANCH  14  18
BRANCH  15  20
HETATM   20  O4  UNK     1      18.893  -4.156  11.237  1.00  0.00    -0.358 OA
HETATM   21  H10 UNK     1      19.603  -4.815  11.294  1.00  0.00     0.217 HD
ENDBRANCH  15  20
ENDBRANCH   3  12
TORSDOF 3
ENDMDL
MODEL 5
REMARK VINA RESULT:      -8.0      3.712      5.882
REMARK  3 active torsions:
REMARK  status: ('A' for Active; 'I' for Inactive)
REMARK    1  A    between atoms: C11_15  and  O3_3 
REMARK    2  A    between atoms: C15_19  and  O4_4 
REMARK    3  A    between atoms: C1_5  and  C3_7 
ROOT
HETATM    1  O1  UNK     1      18.022   3.146  33.251  1.00  0.00    -0.309 OA
HETATM    2  O2  UNK     1      19.220   1.656  29.653  1.00  0.00    -0.287 OA
HETATM    3  C1  UNK     1      18.171   3.961  32.140  1.00  0.00     0.090 A 
HETATM    4  C2  UNK     1      18.689   1.229  31.916  1.00  0.00     0.048 A 
HETATM    5  C4  UNK     1      18.279   1.804  33.118  1.00  0.00     0.090 A 
HETATM    6  C5  UNK     1      18.566   3.528  30.932  1.00  0.00     0.093 A 
HETATM    7  C6  UNK     1      18.857   2.092  30.737  1.00  0.00     0.187 A 
HETATM    8  C8  UNK     1      18.936  -0.143  31.839  1.00  0.00     0.018 A 
HETATM    9  C10 UNK     1      18.114   1.009  34.252  1.00  0.00     0.038 A 
HETATM   10  C13 UNK     1      18.769  -0.938  32.974  1.00  0.00     0.001 A 
HETATM   11  C14 UNK     1      18.359  -0.363  34.178  1.00  0.00     0.003 A 
ENDROOT
BRANCH   3  12
HETATM   12  C3  UNK     1      17.875   5.385  32.396  1.00  0.00     0.001 A 
HETATM   13  C7  UNK     1      17.348   6.186  31.380  1.00  0.00     0.053 A 
HETATM   14  C11 UNK     1      17.068   7.531  31.622  1.00  0.00     0.099 A 
HETATM   15  C15 UNK     1      17.314   8.079  32.881  1.00  0.00     0.098 A 
HETATM   16  C12 UNK     1      17.841   7.282  33.898  1.00  0.00     0.040 A 
HETATM   17  C9  UNK     1      18.121   5.937  33.656  1.00  0.00     0.017 A 
BRANCH  14  18
HETATM   18  O3  UNK     1      16.555   8.299  30.621  1.00  0.00    -0.358 OA
HETATM   19  H9  UNK     1      15.597   8.396  30.741  1.00  0.00     0.217 HD
ENDBRANCH  14  18
BRANCH  15  20
HETATM   20  O4  UNK     1      17.045   9.391  33.128  1.00  0.00    -0.358 OA
HETATM   21  H10 UNK     1      17.289   9.927  32.357  1.00  0.00     0.217 HD
ENDBRANCH  15  20
ENDBRANCH   3  12
TORSDOF 3
ENDMDL
MODEL 6
REMARK VINA RESULT:      -8.0      3.426      4.503
REMARK  3 active torsions:
REMARK  status: ('A' for Active; 'I' for Inactive)
REMARK    1  A    between atoms: C11_15  and  O3_3 
REMARK    2  A    between atoms: C15_19  and  O4_4 
REMARK    3  A    between atoms: C1_5  and  C3_7 
ROOT
HETATM    1  O1  UNK     1      19.226   1.930  31.383  1.00  0.00    -0.309 OA
HETATM    2  O2  UNK     1      17.728   2.064  27.597  1.00  0.00    -0.287 OA
HETATM    3  C1  UNK     1      18.454   2.994  30.944  1.00  0.00     0.090 A 
HETATM    4  C2  UNK     1      18.990   0.880  29.206  1.00  0.00     0.048 A 
HETATM    5  C4  UNK     1      19.475   0.899  30.512  1.00  0.00     0.090 A 
HETATM    6  C5  UNK     1      17.939   3.095  29.709  1.00  0.00     0.093 A 
HETATM    7  C6  UNK     1      18.179   2.012  28.733  1.00  0.00     0.187 A 
HETATM    8  C8  UNK     1      19.276  -0.197  28.362  1.00  0.00     0.018 A 
HETATM    9  C10 UNK     1      20.249  -0.161  30.985  1.00  0.00     0.038 A 
HETATM   10  C13 UNK     1      20.049  -1.257  28.838  1.00  0.00     0.001 A 
HETATM   11  C14 UNK     1      20.534  -1.239  30.146  1.00  0.00     0.003 A 
ENDROOT
BRANCH   3  12
HETATM   12  C3  UNK     1      18.254   4.049  31.958  1.00  0.00     0.001 A 
HETATM   13  C7  UNK     1      17.997   5.364  31.562  1.00  0.00     0.053 A 
HETATM   14  C11 UNK     1      17.807   6.360  32.519  1.00  0.00     0.099 A 
HETATM   15  C15 UNK     1      17.873   6.044  33.876  1.00  0.00     0.098 A 
HETATM   16  C12 UNK     1      18.130   4.733  34.276  1.00  0.00     0.040 A 
HETATM   17  C9  UNK     1      18.319   3.737  33.318  1.00  0.00     0.017 A 
BRANCH  14  18
HETATM   18  O3  UNK     1      17.559   7.637  32.117  1.00  0.00    -0.358 OA
HETATM   19  H9  UNK     1      18.065   7.831  31.311  1.00  0.00     0.217 HD
ENDBRANCH  14  18
BRANCH  15  20
HETATM   20  O4  UNK     1      17.690   7.009  34.820  1.00  0.00    -0.358 OA
HETATM   21  H10 UNK     1      17.425   6.601  35.659  1.00  0.00     0.217 HD
ENDBRANCH  15  20
ENDBRANCH   3  12
TORSDOF 3
ENDMDL
MODEL 7
REMARK VINA RESULT:      -8.0      2.518      5.329
REMARK  3 active torsions:
REMARK  status: ('A' for Active; 'I' for Inactive)
REMARK    1  A    between atoms: C11_15  and  O3_3 
REMARK    2  A    between atoms: C15_19  and  O4_4 
REMARK    3  A    between atoms: C1_5  and  C3_7 
ROOT
HETATM    1  O1  UNK     1      19.318   1.811  30.659  1.00  0.00    -0.309 OA
HETATM    2  O2  UNK     1      18.420  -0.538  33.865  1.00  0.00    -0.287 OA
HETATM    3  C1  UNK     1      18.718   2.330  31.796  1.00  0.00     0.090 A 
HETATM    4  C2  UNK     1      19.343  -0.387  31.694  1.00  0.00     0.048 A 
HETATM    5  C4  UNK     1      19.619   0.472  30.632  1.00  0.00     0.090 A 
HETATM    6  C5  UNK     1      18.396   1.605  32.879  1.00  0.00     0.093 A 
HETATM    7  C6  UNK     1      18.698   0.159  32.898  1.00  0.00     0.187 A 
HETATM    8  C8  UNK     1      19.671  -1.742  31.611  1.00  0.00     0.018 A 
HETATM    9  C10 UNK     1      20.228  -0.020  29.478  1.00  0.00     0.038 A 
HETATM   10  C13 UNK     1      20.282  -2.231  30.456  1.00  0.00     0.001 A 
HETATM   11  C14 UNK     1      20.560  -1.372  29.391  1.00  0.00     0.003 A 
ENDROOT
BRANCH   3  12
HETATM   12  C3  UNK     1      18.433   3.777  31.716  1.00  0.00     0.001 A 
HETATM   13  C7  UNK     1      18.770   4.497  30.568  1.00  0.00     0.053 A 
HETATM   14  C11 UNK     1      18.500   5.863  30.492  1.00  0.00     0.099 A 
HETATM   15  C15 UNK     1      17.891   6.514  31.566  1.00  0.00     0.098 A 
HETATM   16  C12 UNK     1      17.553   5.798  32.714  1.00  0.00     0.040 A 
HETATM   17  C9  UNK     1      17.823   4.432  32.790  1.00  0.00     0.017 A 
BRANCH  14  18
HETATM   18  O3  UNK     1      18.836   6.551  29.366  1.00  0.00    -0.358 OA
HETATM   19  H9  UNK     1      19.563   6.097  28.910  1.00  0.00     0.217 HD
ENDBRANCH  14  18
BRANCH  15  20
HETATM   20  O4  UNK     1      17.623   7.848  31.503  1.00  0.00    -0.358 OA
HETATM   21  H10 UNK     1      18.454   8.348  31.463  1.00  0.00     0.217 HD
ENDBRANCH  15  20
ENDBRANCH   3  12
TORSDOF 3
ENDMDL
MODEL 8
REMARK VINA RESULT:      -7.9      4.110      6.092
REMARK  3 active torsions:
REMARK  status: ('A' for Active; 'I' for Inactive)
REMARK    1  A    between atoms: C11_15  and  O3_3 
REMARK    2  A    between atoms: C15_19  and  O4_4 
REMARK    3  A    between atoms: C1_5  and  C3_7 
ROOT
HETATM    1  O1  UNK     1      18.182   4.222  31.279  1.00  0.00    -0.309 OA
HETATM    2  O2  UNK     1      18.630   1.511  34.288  1.00  0.00    -0.287 OA
HETATM    3  C1  UNK     1      18.014   4.577  32.609  1.00  0.00     0.090 A 
HETATM    4  C2  UNK     1      18.689   1.948  31.966  1.00  0.00     0.048 A 
HETATM    5  C4  UNK     1      18.518   2.924  30.986  1.00  0.00     0.090 A 
HETATM    6  C5  UNK     1      18.144   3.727  33.640  1.00  0.00     0.093 A 
HETATM    7  C6  UNK     1      18.502   2.318  33.377  1.00  0.00     0.187 A 
HETATM    8  C8  UNK     1      19.031   0.641  31.609  1.00  0.00     0.018 A 
HETATM    9  C10 UNK     1      18.687   2.599  29.640  1.00  0.00     0.038 A 
HETATM   10  C13 UNK     1      19.201   0.318  30.262  1.00  0.00     0.001 A 
HETATM   11  C14 UNK     1      19.030   1.295  29.280  1.00  0.00     0.003 A 
ENDROOT
BRANCH   3  12
HETATM   12  C3  UNK     1      17.649   5.993  32.810  1.00  0.00     0.001 A 
HETATM   13  C7  UNK     1      16.881   6.663  31.855  1.00  0.00     0.053 A 
HETATM   14  C11 UNK     1      16.536   8.001  32.046  1.00  0.00     0.099 A 
HETATM   15  C15 UNK     1      16.958   8.673  33.193  1.00  0.00     0.098 A 
HETATM   16  C12 UNK     1      17.725   8.008  34.149  1.00  0.00     0.040 A 
HETATM   17  C9  UNK     1      18.070   6.670  33.958  1.00  0.00     0.017 A 
BRANCH  14  18
HETATM   18  O3  UNK     1      15.787   8.641  31.105  1.00  0.00    -0.358 OA
HETATM   19  H9  UNK     1      15.281   9.357  31.521  1.00  0.00     0.217 HD
ENDBRANCH  14  18
BRANCH  15  20
HETATM   20  O4  UNK     1      16.627   9.980  33.389  1.00  0.00    -0.358 OA
HETATM   21  H10 UNK     1      17.263  10.392  33.995  1.00  0.00     0.217 HD
ENDBRANCH  15  20
ENDBRANCH   3  12
TORSDOF 3
ENDMDL
MODEL 9
REMARK VINA RESULT:      -7.9      2.491      4.340
REMARK  3 active torsions:
REMARK  status: ('A' for Active; 'I' for Inactive)
REMARK    1  A    between atoms: C11_15  and  O3_3 
REMARK    2  A    between atoms: C15_19  and  O4_4 
REMARK    3  A    between atoms: C1_5  and  C3_7 
ROOT
HETATM    1  O1  UNK     1      18.258   3.504  34.283  1.00  0.00    -0.309 OA
HETATM    2  O2  UNK     1      18.315   2.596  30.312  1.00  0.00    -0.287 OA
HETATM    3  C1  UNK     1      18.197   2.193  33.836  1.00  0.00     0.090 A 
HETATM    4  C2  UNK     1      18.376   4.268  31.980  1.00  0.00     0.048 A 
HETATM    5  C4  UNK     1      18.349   4.509  33.353  1.00  0.00     0.090 A 
HETATM    6  C5  UNK     1      18.208   1.835  32.542  1.00  0.00     0.093 A 
HETATM    7  C6  UNK     1      18.302   2.879  31.502  1.00  0.00     0.187 A 
HETATM    8  C8  UNK     1      18.469   5.331  31.078  1.00  0.00     0.018 A 
HETATM    9  C10 UNK     1      18.415   5.817  33.833  1.00  0.00     0.038 A 
HETATM   10  C13 UNK     1      18.537   6.639  31.562  1.00  0.00     0.001 A 
HETATM   11  C14 UNK     1      18.509   6.881  32.936  1.00  0.00     0.003 A 
ENDROOT
BRANCH   3  12
HETATM   12  C3  UNK     1      18.096   1.194  34.918  1.00  0.00     0.001 A 
HETATM   13  C7  UNK     1      18.041   1.606  36.252  1.00  0.00     0.053 A 
HETATM   14  C11 UNK     1      17.945   0.663  37.274  1.00  0.00     0.099 A 
HETATM   15  C15 UNK     1      17.902  -0.697  36.966  1.00  0.00     0.098 A 
HETATM   16  C12 UNK     1      17.956  -1.113  35.636  1.00  0.00     0.040 A 
HETATM   17  C9  UNK     1      18.052  -0.169  34.614  1.00  0.00     0.017 A 
BRANCH  14  18
HETATM   18  O3  UNK     1      17.894   1.081  38.569  1.00  0.00    -0.358 OA
HETATM   19  H9  UNK     1      17.985   2.047  38.605  1.00  0.00     0.217 HD
ENDBRANCH  14  18
BRANCH  15  20
HETATM   20  O4  UNK     1      17.808  -1.628  37.957  1.00  0.00    -0.358 OA
HETATM   21  H10 UNK     1      18.397  -1.387  38.689  1.00  0.00     0.217 HD
ENDBRANCH  15  20
ENDBRANCH   3  12
TORSDOF 3
ENDMDL
MODEL 10
REMARK VINA RESULT:      -7.8     24.262     26.599
REMARK  3 active torsions:
REMARK  status: ('A' for Active; 'I' for Inactive)
REMARK    1  A    between atoms: C11_15  and  O3_3 
REMARK    2  A    between atoms: C15_19  and  O4_4 
REMARK    3  A    between atoms: C1_5  and  C3_7 
ROOT
HETATM    1  O1  UNK     1      11.501   7.223   9.159  1.00  0.00    -0.309 OA
HETATM    2  O2  UNK     1      10.718   5.772   5.433  1.00  0.00    -0.287 OA
HETATM    3  C1  UNK     1      12.512   6.761   8.331  1.00  0.00     0.090 A 
HETATM    4  C2  UNK     1       9.873   6.714   7.429  1.00  0.00     0.048 A 
HETATM    5  C4  UNK     1      10.210   7.194   8.693  1.00  0.00     0.090 A 
HETATM    6  C5  UNK     1      12.314   6.269   7.098  1.00  0.00     0.093 A 
HETATM    7  C6  UNK     1      10.942   6.214   6.552  1.00  0.00     0.187 A 
HETATM    8  C8  UNK     1       8.541   6.707   7.008  1.00  0.00     0.018 A 
HETATM    9  C10 UNK     1       9.215   7.672   9.547  1.00  0.00     0.038 A 
HETATM   10  C13 UNK     1       7.548   7.188   7.863  1.00  0.00     0.001 A 
HETATM   11  C14 UNK     1       7.884   7.669   9.129  1.00  0.00     0.003 A 
ENDROOT
BRANCH   3  12
HETATM   12  C3  UNK     1      13.859   6.833   8.931  1.00  0.00     0.001 A 
HETATM   13  C7  UNK     1      14.687   5.707   8.936  1.00  0.00     0.053 A 
HETATM   14  C11 UNK     1      15.959   5.775   9.503  1.00  0.00     0.099 A 
HETATM   15  C15 UNK     1      16.409   6.969  10.066  1.00  0.00     0.098 A 
HETATM   16  C12 UNK     1      15.586   8.095  10.063  1.00  0.00     0.040 A 
HETATM   17  C9  UNK     1      14.314   8.027   9.496  1.00  0.00     0.017 A 
BRANCH  14  18
HETATM   18  O3  UNK     1      16.753   4.668   9.501  1.00  0.00    -0.358 OA
HETATM   19  H9  UNK     1      16.214   3.878   9.667  1.00  0.00     0.217 HD
ENDBRANCH  14  18
BRANCH  15  20
HETATM   20  O4  UNK     1      17.650   7.046  10.622  1.00  0.00    -0.358 OA
HETATM   21  H10 UNK     1      18.320   7.095   9.923  1.00  0.00     0.217 HD
ENDBRANCH  15  20
ENDBRANCH   3  12
TORSDOF 3
ENDMDL
