MODEL 1
REMARK VINA RESULT:      -8.2      0.000      0.000
REMARK  1 active torsions:
REMARK  status: ('A' for Active; 'I' for Inactive)
REMARK    1  A    between atoms: C1_3  and  C5_7 
ROOT
HETATM    1  O1  UNK     1      19.648  -1.871  32.707  1.00  0.00    -0.321 OA
HETATM    2  O2  UNK     1      18.113   1.905  32.503  1.00  0.00    -0.286 OA
HETATM    3  C1  UNK     1      18.458  -0.060  33.804  1.00  0.00     0.048 A 
HETATM    4  C2  UNK     1      19.224   0.139  31.413  1.00  0.00     0.049 A 
HETATM    5  C3  UNK     1      18.553   0.764  32.567  1.00  0.00     0.197 A 
HETATM    6  C4  UNK     1      19.739  -1.151  31.544  1.00  0.00     0.089 A 
HETATM    7  C6  UNK     1      19.003  -1.286  33.769  1.00  0.00     0.159 A 
HETATM    8  C7  UNK     1      19.347   0.825  30.202  1.00  0.00     0.018 A 
HETATM    9  C8  UNK     1      20.381  -1.760  30.465  1.00  0.00     0.038 A 
HETATM   10  C11 UNK     1      19.988   0.214  29.125  1.00  0.00     0.001 A 
HETATM   11  C12 UNK     1      20.504  -1.076  29.255  1.00  0.00     0.003 A 
ENDROOT
BRANCH   3  12
HETATM   12  C5  UNK     1      17.780   0.430  35.016  1.00  0.00    -0.020 A 
HETATM   13  C10 UNK     1      18.493   1.149  35.976  1.00  0.00     0.012 A 
HETATM   14  C14 UNK     1      17.850   1.613  37.124  1.00  0.00     0.001 A 
HETATM   15  C15 UNK     1      16.492   1.360  37.313  1.00  0.00     0.000 A 
HETATM   16  C13 UNK     1      15.776   0.641  36.355  1.00  0.00     0.001 A 
HETATM   17  C9  UNK     1      16.420   0.177  35.207  1.00  0.00     0.012 A 
ENDBRANCH   3  12
TORSDOF 1
ENDMDL
MODEL 2
REMARK VINA RESULT:      -8.2      0.757      2.004
REMARK  1 active torsions:
REMARK  status: ('A' for Active; 'I' for Inactive)
REMARK    1  A    between atoms: C1_3  and  C5_7 
ROOT
HETATM    1  O1  UNK     1      18.723   1.690  31.230  1.00  0.00    -0.321 OA
HETATM    2  O2  UNK     1      18.983  -1.557  33.688  1.00  0.00    -0.286 OA
HETATM    3  C1  UNK     1      18.319   0.714  33.417  1.00  0.00     0.048 A 
HETATM    4  C2  UNK     1      19.424  -0.608  31.580  1.00  0.00     0.049 A 
HETATM    5  C3  UNK     1      18.919  -0.572  32.965  1.00  0.00     0.197 A 
HETATM    6  C4  UNK     1      19.299   0.529  30.782  1.00  0.00     0.089 A 
HETATM    7  C6  UNK     1      18.274   1.718  32.528  1.00  0.00     0.159 A 
HETATM    8  C7  UNK     1      20.020  -1.764  31.069  1.00  0.00     0.018 A 
HETATM    9  C8  UNK     1      19.768   0.515  29.468  1.00  0.00     0.038 A 
HETATM   10  C11 UNK     1      20.489  -1.774  29.755  1.00  0.00     0.001 A 
HETATM   11  C12 UNK     1      20.363  -0.637  28.956  1.00  0.00     0.003 A 
ENDROOT
BRANCH   3  12
HETATM   12  C5  UNK     1      17.811   0.896  34.787  1.00  0.00    -0.020 A 
HETATM   13  C10 UNK     1      18.599   1.534  35.747  1.00  0.00     0.012 A 
HETATM   14  C14 UNK     1      18.117   1.707  37.045  1.00  0.00     0.001 A 
HETATM   15  C15 UNK     1      16.847   1.243  37.386  1.00  0.00     0.000 A 
HETATM   16  C13 UNK     1      16.058   0.605  36.429  1.00  0.00     0.001 A 
HETATM   17  C9  UNK     1      16.539   0.432  35.130  1.00  0.00     0.012 A 
ENDBRANCH   3  12
TORSDOF 1
ENDMDL
MODEL 3
REMARK VINA RESULT:      -7.9      3.587      6.710
REMARK  1 active torsions:
REMARK  status: ('A' for Active; 'I' for Inactive)
REMARK    1  A    between atoms: C1_3  and  C5_7 
ROOT
HETATM    1  O1  UNK     1      17.957   3.308  33.228  1.00  0.00    -0.321 OA
HETATM    2  O2  UNK     1      19.127   4.279  29.442  1.00  0.00    -0.286 OA
HETATM    3  C1  UNK     1      18.719   2.566  31.045  1.00  0.00     0.048 A 
HETATM    4  C2  UNK     1      18.436   5.014  31.568  1.00  0.00     0.049 A 
HETATM    5  C3  UNK     1      18.796   3.979  30.582  1.00  0.00     0.197 A 
HETATM    6  C4  UNK     1      18.032   4.622  32.845  1.00  0.00     0.089 A 
HETATM    7  C6  UNK     1      18.314   2.354  32.307  1.00  0.00     0.159 A 
HETATM    8  C7  UNK     1      18.493   6.369  31.234  1.00  0.00     0.018 A 
HETATM    9  C8  UNK     1      17.683   5.585  33.793  1.00  0.00     0.038 A 
HETATM   10  C11 UNK     1      18.145   7.329  32.184  1.00  0.00     0.001 A 
HETATM   11  C12 UNK     1      17.741   6.938  33.461  1.00  0.00     0.003 A 
ENDROOT
BRANCH   3  12
HETATM   12  C5  UNK     1      19.089   1.439  30.172  1.00  0.00    -0.020 A 
HETATM   13  C10 UNK     1      18.398   1.222  28.978  1.00  0.00     0.012 A 
HETATM   14  C14 UNK     1      18.749   0.154  28.151  1.00  0.00     0.001 A 
HETATM   15  C15 UNK     1      19.791  -0.697  28.516  1.00  0.00     0.000 A 
HETATM   16  C13 UNK     1      20.483  -0.483  29.709  1.00  0.00     0.001 A 
HETATM   17  C9  UNK     1      20.132   0.585  30.536  1.00  0.00     0.012 A 
ENDBRANCH   3  12
TORSDOF 1
ENDMDL
MODEL 4
REMARK VINA RESULT:      -7.9     24.419     26.518
REMARK  1 active torsions:
REMARK  status: ('A' for Active; 'I' for Inactive)
REMARK    1  A    between atoms: C1_3  and  C5_7 
ROOT
HETATM    1  O1  UNK     1      14.816   5.165   8.873  1.00  0.00    -0.321 OA
HETATM    2  O2  UNK     1      12.744   8.674   8.665  1.00  0.00    -0.286 OA
HETATM    3  C1  UNK     1      12.785   6.332   8.232  1.00  0.00     0.048 A 
HETATM    4  C2  UNK     1      14.736   7.562   9.246  1.00  0.00     0.049 A 
HETATM    5  C3  UNK     1      13.365   7.620   8.705  1.00  0.00     0.197 A 
HETATM    6  C4  UNK     1      15.391   6.333   9.302  1.00  0.00     0.089 A 
HETATM    7  C6  UNK     1      13.547   5.234   8.353  1.00  0.00     0.159 A 
HETATM    8  C7  UNK     1      15.373   8.721   9.698  1.00  0.00     0.018 A 
HETATM    9  C8  UNK     1      16.688   6.255   9.813  1.00  0.00     0.038 A 
HETATM   10  C11 UNK     1      16.669   8.640  10.208  1.00  0.00     0.001 A 
HETATM   11  C12 UNK     1      17.325   7.411  10.265  1.00  0.00     0.003 A 
ENDROOT
BRANCH   3  12
HETATM   12  C5  UNK     1      11.441   6.257   7.635  1.00  0.00    -0.020 A 
HETATM   13  C10 UNK     1      11.289   6.266   6.248  1.00  0.00     0.012 A 
HETATM   14  C14 UNK     1      10.016   6.194   5.682  1.00  0.00     0.001 A 
HETATM   15  C15 UNK     1       8.891   6.112   6.504  1.00  0.00     0.000 A 
HETATM   16  C13 UNK     1       9.040   6.103   7.891  1.00  0.00     0.001 A 
HETATM   17  C9  UNK     1      10.314   6.174   8.456  1.00  0.00     0.012 A 
ENDBRANCH   3  12
TORSDOF 1
ENDMDL
MODEL 5
REMARK VINA RESULT:      -7.8     24.703     26.926
REMARK  1 active torsions:
REMARK  status: ('A' for Active; 'I' for Inactive)
REMARK    1  A    between atoms: C1_3  and  C5_7 
ROOT
HETATM    1  O1  UNK     1      10.857   7.547   9.475  1.00  0.00    -0.321 OA
HETATM    2  O2  UNK     1      13.722   6.953   6.630  1.00  0.00    -0.286 OA
HETATM    3  C1  UNK     1      13.193   7.702   8.829  1.00  0.00     0.048 A 
HETATM    4  C2  UNK     1      11.448   6.844   7.228  1.00  0.00     0.049 A 
HETATM    5  C3  UNK     1      12.866   7.153   7.482  1.00  0.00     0.197 A 
HETATM    6  C4  UNK     1      10.514   7.057   8.242  1.00  0.00     0.089 A 
HETATM    7  C6  UNK     1      12.179   7.850   9.694  1.00  0.00     0.159 A 
HETATM    8  C7  UNK     1      11.039   6.342   5.989  1.00  0.00     0.018 A 
HETATM    9  C8  UNK     1       9.166   6.767   8.022  1.00  0.00     0.038 A 
HETATM   10  C11 UNK     1       9.691   6.054   5.773  1.00  0.00     0.001 A 
HETATM   11  C12 UNK     1       8.757   6.266   6.787  1.00  0.00     0.003 A 
ENDROOT
BRANCH   3  12
HETATM   12  C5  UNK     1      14.565   8.088   9.199  1.00  0.00    -0.020 A 
HETATM   13  C10 UNK     1      15.014   9.389   8.963  1.00  0.00     0.012 A 
HETATM   14  C14 UNK     1      16.314   9.755   9.314  1.00  0.00     0.001 A 
HETATM   15  C15 UNK     1      17.166   8.822   9.904  1.00  0.00     0.000 A 
HETATM   16  C13 UNK     1      16.720   7.521  10.141  1.00  0.00     0.001 A 
HETATM   17  C9  UNK     1      15.420   7.155   9.790  1.00  0.00     0.012 A 
ENDBRANCH   3  12
TORSDOF 1
ENDMDL
MODEL 6
REMARK VINA RESULT:      -7.7     24.226     26.818
REMARK  1 active torsions:
REMARK  status: ('A' for Active; 'I' for Inactive)
REMARK    1  A    between atoms: C1_3  and  C5_7 
ROOT
HETATM    1  O1  UNK     1      12.358   6.545   6.239  1.00  0.00    -0.321 OA
HETATM    2  O2  UNK     1      11.793   7.777  10.087  1.00  0.00    -0.286 OA
HETATM    3  C1  UNK     1      13.329   7.331   8.322  1.00  0.00     0.048 A 
HETATM    4  C2  UNK     1      10.846   6.970   8.090  1.00  0.00     0.049 A 
HETATM    5  C3  UNK     1      11.975   7.390   8.941  1.00  0.00     0.197 A 
HETATM    6  C4  UNK     1      11.098   6.568   6.778  1.00  0.00     0.089 A 
HETATM    7  C6  UNK     1      13.404   6.919   7.047  1.00  0.00     0.159 A 
HETATM    8  C7  UNK     1       9.540   6.974   8.586  1.00  0.00     0.018 A 
HETATM    9  C8  UNK     1      10.044   6.170   5.955  1.00  0.00     0.038 A 
HETATM   10  C11 UNK     1       8.488   6.574   7.761  1.00  0.00     0.001 A 
HETATM   11  C12 UNK     1       8.739   6.173   6.448  1.00  0.00     0.003 A 
ENDROOT
BRANCH   3  12
HETATM   12  C5  UNK     1      14.544   7.686   9.073  1.00  0.00    -0.020 A 
HETATM   13  C10 UNK     1      15.248   6.703   9.771  1.00  0.00     0.012 A 
HETATM   14  C14 UNK     1      16.400   7.040  10.483  1.00  0.00     0.001 A 
HETATM   15  C15 UNK     1      16.850   8.360  10.498  1.00  0.00     0.000 A 
HETATM   16  C13 UNK     1      16.147   9.344   9.802  1.00  0.00     0.001 A 
HETATM   17  C9  UNK     1      14.996   9.008   9.090  1.00  0.00     0.012 A 
ENDBRANCH   3  12
TORSDOF 1
ENDMDL
MODEL 7
REMARK VINA RESULT:      -7.6      1.721      5.996
REMARK  1 active torsions:
REMARK  status: ('A' for Active; 'I' for Inactive)
REMARK    1  A    between atoms: C1_3  and  C5_7 
ROOT
HETATM    1  O1  UNK     1      20.112  -2.655  34.968  1.00  0.00    -0.321 OA
HETATM    2  O2  UNK     1      17.869   0.284  33.241  1.00  0.00    -0.286 OA
HETATM    3  C1  UNK     1      19.552  -1.381  32.977  1.00  0.00     0.048 A 
HETATM    4  C2  UNK     1      18.438  -0.911  35.187  1.00  0.00     0.049 A 
HETATM    5  C3  UNK     1      18.560  -0.586  33.755  1.00  0.00     0.197 A 
HETATM    6  C4  UNK     1      19.223  -1.933  35.721  1.00  0.00     0.089 A 
HETATM    7  C6  UNK     1      20.232  -2.330  33.639  1.00  0.00     0.159 A 
HETATM    8  C7  UNK     1      17.548  -0.209  36.004  1.00  0.00     0.018 A 
HETATM    9  C8  UNK     1      19.120  -2.259  37.074  1.00  0.00     0.038 A 
HETATM   10  C11 UNK     1      17.448  -0.536  37.356  1.00  0.00     0.001 A 
HETATM   11  C12 UNK     1      18.232  -1.559  37.891  1.00  0.00     0.003 A 
ENDROOT
BRANCH   3  12
HETATM   12  C5  UNK     1      19.800  -1.132  31.548  1.00  0.00    -0.020 A 
HETATM   13  C10 UNK     1      20.156  -2.186  30.705  1.00  0.00     0.012 A 
HETATM   14  C14 UNK     1      20.392  -1.950  29.350  1.00  0.00     0.001 A 
HETATM   15  C15 UNK     1      20.270  -0.660  28.835  1.00  0.00     0.000 A 
HETATM   16  C13 UNK     1      19.914   0.396  29.675  1.00  0.00     0.001 A 
HETATM   17  C9  UNK     1      19.679   0.160  31.030  1.00  0.00     0.012 A 
ENDBRANCH   3  12
TORSDOF 1
ENDMDL
MODEL 8
REMARK VINA RESULT:      -7.5      3.968      7.249
REMARK  1 active torsions:
REMARK  status: ('A' for Active; 'I' for Inactive)
REMARK    1  A    between atoms: C1_3  and  C5_7 
ROOT
HETATM    1  O1  UNK     1      19.011   6.026  30.467  1.00  0.00    -0.321 OA
HETATM    2  O2  UNK     1      17.812   2.716  32.531  1.00  0.00    -0.286 OA
HETATM    3  C1  UNK     1      18.703   3.617  30.514  1.00  0.00     0.048 A 
HETATM    4  C2  UNK     1      18.060   5.056  32.479  1.00  0.00     0.049 A 
HETATM    5  C3  UNK     1      18.155   3.705  31.897  1.00  0.00     0.197 A 
HETATM    6  C4  UNK     1      18.495   6.150  31.731  1.00  0.00     0.089 A 
HETATM    7  C6  UNK     1      19.077   4.764  29.927  1.00  0.00     0.159 A 
HETATM    8  C7  UNK     1      17.542   5.244  33.763  1.00  0.00     0.018 A 
HETATM    9  C8  UNK     1      18.416   7.437  32.264  1.00  0.00     0.038 A 
HETATM   10  C11 UNK     1      17.464   6.532  34.294  1.00  0.00     0.001 A 
HETATM   11  C12 UNK     1      17.900   7.626  33.546  1.00  0.00     0.003 A 
ENDROOT
BRANCH   3  12
HETATM   12  C5  UNK     1      18.816   2.333  29.802  1.00  0.00    -0.020 A 
HETATM   13  C10 UNK     1      17.969   2.050  28.730  1.00  0.00     0.012 A 
HETATM   14  C14 UNK     1      18.076   0.833  28.055  1.00  0.00     0.001 A 
HETATM   15  C15 UNK     1      19.032  -0.102  28.451  1.00  0.00     0.000 A 
HETATM   16  C13 UNK     1      19.880   0.179  29.523  1.00  0.00     0.001 A 
HETATM   17  C9  UNK     1      19.773   1.395  30.197  1.00  0.00     0.012 A 
ENDBRANCH   3  12
TORSDOF 1
ENDMDL
MODEL 9
REMARK VINA RESULT:      -7.4     24.485     26.669
REMARK  1 active torsions:
REMARK  status: ('A' for Active; 'I' for Inactive)
REMARK    1  A    between atoms: C1_3  and  C5_7 
ROOT
HETATM    1  O1  UNK     1      13.819   9.156   9.195  1.00  0.00    -0.321 OA
HETATM    2  O2  UNK     1      13.564   5.194   8.252  1.00  0.00    -0.286 OA
HETATM    3  C1  UNK     1      12.508   7.329   8.278  1.00  0.00     0.048 A 
HETATM    4  C2  UNK     1      14.826   6.947   9.188  1.00  0.00     0.049 A 
HETATM    5  C3  UNK     1      13.624   6.380   8.550  1.00  0.00     0.197 A 
HETATM    6  C4  UNK     1      14.861   8.311   9.478  1.00  0.00     0.089 A 
HETATM    7  C6  UNK     1      12.697   8.613   8.618  1.00  0.00     0.159 A 
HETATM    8  C7  UNK     1      15.918   6.134   9.499  1.00  0.00     0.018 A 
HETATM    9  C8  UNK     1      15.990   8.869  10.079  1.00  0.00     0.038 A 
HETATM   10  C11 UNK     1      17.045   6.694  10.101  1.00  0.00     0.001 A 
HETATM   11  C12 UNK     1      17.082   8.058  10.391  1.00  0.00     0.003 A 
ENDROOT
BRANCH   3  12
HETATM   12  C5  UNK     1      11.238   6.886   7.679  1.00  0.00    -0.020 A 
HETATM   13  C10 UNK     1      10.138   6.611   8.494  1.00  0.00     0.012 A 
HETATM   14  C14 UNK     1       8.935   6.191   7.927  1.00  0.00     0.001 A 
HETATM   15  C15 UNK     1       8.828   6.047   6.544  1.00  0.00     0.000 A 
HETATM   16  C13 UNK     1       9.925   6.321   5.727  1.00  0.00     0.001 A 
HETATM   17  C9  UNK     1      11.129   6.741   6.294  1.00  0.00     0.012 A 
ENDBRANCH   3  12
TORSDOF 1
ENDMDL
MODEL 10
REMARK VINA RESULT:      -7.2      2.090      6.252
REMARK  1 active torsions:
REMARK  status: ('A' for Active; 'I' for Inactive)
REMARK    1  A    between atoms: C1_3  and  C5_7 
ROOT
HETATM    1  O1  UNK     1      17.824  -0.650  34.709  1.00  0.00    -0.321 OA
HETATM    2  O2  UNK     1      21.221  -2.532  33.457  1.00  0.00    -0.286 OA
HETATM    3  C1  UNK     1      19.357  -1.159  32.896  1.00  0.00     0.048 A 
HETATM    4  C2  UNK     1      19.716  -2.086  35.210  1.00  0.00     0.049 A 
HETATM    5  C3  UNK     1      20.190  -1.980  33.818  1.00  0.00     0.197 A 
HETATM    6  C4  UNK     1      18.553  -1.412  35.584  1.00  0.00     0.089 A 
HETATM    7  C6  UNK     1      18.264  -0.575  33.410  1.00  0.00     0.159 A 
HETATM    8  C7  UNK     1      20.418  -2.848  36.147  1.00  0.00     0.018 A 
HETATM    9  C8  UNK     1      18.089  -1.496  36.898  1.00  0.00     0.038 A 
HETATM   10  C11 UNK     1      19.951  -2.931  37.459  1.00  0.00     0.001 A 
HETATM   11  C12 UNK     1      18.789  -2.256  37.834  1.00  0.00     0.003 A 
ENDROOT
BRANCH   3  12
HETATM   12  C5  UNK     1      19.697  -1.003  31.472  1.00  0.00    -0.020 A 
HETATM   13  C10 UNK     1      19.628   0.255  30.869  1.00  0.00     0.012 A 
HETATM   14  C14 UNK     1      19.950   0.402  29.519  1.00  0.00     0.001 A 
HETATM   15  C15 UNK     1      20.343  -0.707  28.770  1.00  0.00     0.000 A 
HETATM   16  C13 UNK     1      20.413  -1.964  29.370  1.00  0.00     0.001 A 
HETATM   17  C9  UNK     1      20.091  -2.112  30.720  1.00  0.00     0.012 A 
ENDBRANCH   3  12
TORSDOF 1
ENDMDL
