MODEL 1
REMARK VINA RESULT:      -9.0      0.000      0.000
REMARK  6 active torsions:
REMARK  status: ('A' for Active; 'I' for Inactive)
REMARK    1  A    between atoms: C5_11  and  O1_1 
REMARK    2  A    between atoms: C6_12  and  O1_1 
REMARK    3  A    between atoms: C13_19  and  O4_4 
REMARK    4  A    between atoms: C15_21  and  O4_4 
REMARK    5  A    between atoms: C18_24  and  O6_6 
REMARK    6  A    between atoms: C1_7  and  C5_11 
ROOT
HETATM    1  O3  UNK     1      17.983   3.024  33.186  1.00  0.00    -0.319 OA
HETATM    2  O5  UNK     1      19.190   2.072  29.403  1.00  0.00    -0.284 OA
HETATM    3  C6  UNK     1      18.251   6.389  31.807  1.00  0.00     0.082 A 
HETATM    4  C7  UNK     1      18.632   3.761  30.960  1.00  0.00     0.051 A 
HETATM    5  C8  UNK     1      18.218   4.021  32.269  1.00  0.00     0.092 A 
HETATM    6  C9  UNK     1      18.027   5.335  32.694  1.00  0.00     0.075 A 
HETATM    7  C10 UNK     1      18.664   6.129  30.499  1.00  0.00     0.038 A 
HETATM    8  C11 UNK     1      18.857   4.815  30.071  1.00  0.00     0.021 A 
HETATM    9  C12 UNK     1      18.828   2.364  30.535  1.00  0.00     0.220 A 
HETATM   10  C13 UNK     1      18.561   1.330  31.561  1.00  0.00     0.149 A 
HETATM   11  C14 UNK     1      18.171   1.727  32.775  1.00  0.00     0.184 A 
ENDROOT
BRANCH  10  12
HETATM   12  O4  UNK     1      18.722   0.002  31.243  1.00  0.00    -0.305 OA
BRANCH  12  13
HETATM   13  C15 UNK     1      19.203  -0.818  32.227  1.00  0.00     0.076 A 
HETATM   14  C16 UNK     1      18.609  -0.810  33.486  1.00  0.00     0.040 A 
HETATM   15  C19 UNK     1      19.100  -1.646  34.488  1.00  0.00     0.039 A 
HETATM   16  C18 UNK     1      20.181  -2.487  34.227  1.00  0.00     0.068 A 
HETATM   17  C20 UNK     1      20.773  -2.491  32.964  1.00  0.00     0.039 A 
HETATM   18  C17 UNK     1      20.282  -1.654  31.961  1.00  0.00     0.040 A 
BRANCH  16  19
HETATM   19  O6  UNK     1      20.660  -3.302  35.206  1.00  0.00    -0.356 OA
HETATM   20  C21 UNK     1      20.332  -2.964  36.552  1.00  0.00     0.210 C 
ENDBRANCH  16  19
ENDBRANCH  12  13
ENDBRANCH  10  12
BRANCH   3  21
HETATM   21  O1  UNK     1      18.065   7.673  32.217  1.00  0.00    -0.278 OA
BRANCH  21  22
HETATM   22  C5  UNK     1      16.762   8.170  32.012  1.00  0.00     0.271 C 
HETATM   23  O2  UNK     1      16.240   8.309  30.912  1.00  0.00    -0.264 OA
BRANCH  22  24
HETATM   24  C1  UNK     1      16.087   8.510  33.346  1.00  0.00     0.037 C 
HETATM   25  C2  UNK     1      15.321   9.836  33.206  1.00  0.00     0.025 C 
HETATM   26  C3  UNK     1      17.153   8.664  34.437  1.00  0.00     0.025 C 
HETATM   27  C4  UNK     1      15.095   7.399  33.716  1.00  0.00     0.025 C 
ENDBRANCH  22  24
ENDBRANCH  21  22
ENDBRANCH   3  21
TORSDOF 6
ENDMDL
MODEL 2
REMARK VINA RESULT:      -8.8     14.713     18.036
REMARK  6 active torsions:
REMARK  status: ('A' for Active; 'I' for Inactive)
REMARK    1  A    between atoms: C5_11  and  O1_1 
REMARK    2  A    between atoms: C6_12  and  O1_1 
REMARK    3  A    between atoms: C13_19  and  O4_4 
REMARK    4  A    between atoms: C15_21  and  O4_4 
REMARK    5  A    between atoms: C18_24  and  O6_6 
REMARK    6  A    between atoms: C1_7  and  C5_11 
ROOT
HETATM    1  O3  UNK     1      32.621  -7.079  37.924  1.00  0.00    -0.319 OA
HETATM    2  O5  UNK     1      32.902  -3.418  36.137  1.00  0.00    -0.284 OA
HETATM    3  C6  UNK     1      29.366  -5.731  38.864  1.00  0.00     0.082 A 
HETATM    4  C7  UNK     1      31.613  -4.921  37.428  1.00  0.00     0.051 A 
HETATM    5  C8  UNK     1      31.579  -6.187  38.017  1.00  0.00     0.092 A 
HETATM    6  C9  UNK     1      30.455  -6.594  38.735  1.00  0.00     0.075 A 
HETATM    7  C10 UNK     1      29.401  -4.466  38.275  1.00  0.00     0.038 A 
HETATM    8  C11 UNK     1      30.523  -4.055  37.556  1.00  0.00     0.021 A 
HETATM    9  C12 UNK     1      32.812  -4.513  36.674  1.00  0.00     0.220 A 
HETATM   10  C13 UNK     1      33.905  -5.510  36.606  1.00  0.00     0.149 A 
HETATM   11  C14 UNK     1      33.732  -6.684  37.220  1.00  0.00     0.184 A 
ENDROOT
BRANCH  10  12
HETATM   12  O4  UNK     1      35.058  -5.206  35.922  1.00  0.00    -0.305 OA
BRANCH  12  13
HETATM   13  C15 UNK     1      35.393  -6.021  34.876  1.00  0.00     0.076 A 
HETATM   14  C16 UNK     1      34.611  -6.024  33.724  1.00  0.00     0.040 A 
HETATM   15  C19 UNK     1      34.954  -6.856  32.659  1.00  0.00     0.039 A 
HETATM   16  C18 UNK     1      36.076  -7.679  32.748  1.00  0.00     0.068 A 
HETATM   17  C20 UNK     1      36.855  -7.672  33.904  1.00  0.00     0.039 A 
HETATM   18  C17 UNK     1      36.514  -6.841  34.972  1.00  0.00     0.040 A 
BRANCH  16  19
HETATM   19  O6  UNK     1      36.408  -8.491  31.708  1.00  0.00    -0.356 OA
HETATM   20  C21 UNK     1      37.161  -9.664  32.013  1.00  0.00     0.210 C 
ENDBRANCH  16  19
ENDBRANCH  12  13
ENDBRANCH  10  12
BRANCH   3  21
HETATM   21  O1  UNK     1      28.267  -6.125  39.564  1.00  0.00    -0.278 OA
BRANCH  21  22
HETATM   22  C5  UNK     1      27.119  -6.341  38.776  1.00  0.00     0.271 C 
HETATM   23  O2  UNK     1      26.435  -5.447  38.291  1.00  0.00    -0.264 OA
BRANCH  22  24
HETATM   24  C1  UNK     1      26.841  -7.839  38.608  1.00  0.00     0.037 C 
HETATM   25  C2  UNK     1      25.327  -8.091  38.707  1.00  0.00     0.025 C 
HETATM   26  C3  UNK     1      27.550  -8.621  39.720  1.00  0.00     0.025 C 
HETATM   27  C4  UNK     1      27.333  -8.299  37.228  1.00  0.00     0.025 C 
ENDBRANCH  22  24
ENDBRANCH  21  22
ENDBRANCH   3  21
TORSDOF 6
ENDMDL
MODEL 3
REMARK VINA RESULT:      -8.7     22.331     25.182
REMARK  6 active torsions:
REMARK  status: ('A' for Active; 'I' for Inactive)
REMARK    1  A    between atoms: C5_11  and  O1_1 
REMARK    2  A    between atoms: C6_12  and  O1_1 
REMARK    3  A    between atoms: C13_19  and  O4_4 
REMARK    4  A    between atoms: C15_21  and  O4_4 
REMARK    5  A    between atoms: C18_24  and  O6_6 
REMARK    6  A    between atoms: C1_7  and  C5_11 
ROOT
HETATM    1  O3  UNK     1      10.240   8.491   9.703  1.00  0.00    -0.319 OA
HETATM    2  O5  UNK     1       8.467   5.461   7.618  1.00  0.00    -0.284 OA
HETATM    3  C6  UNK     1      13.235   6.744   8.576  1.00  0.00     0.082 A 
HETATM    4  C7  UNK     1      10.469   6.484   8.347  1.00  0.00     0.051 A 
HETATM    5  C8  UNK     1      11.014   7.545   9.076  1.00  0.00     0.092 A 
HETATM    6  C9  UNK     1      12.397   7.675   9.191  1.00  0.00     0.075 A 
HETATM    7  C10 UNK     1      12.689   5.684   7.848  1.00  0.00     0.038 A 
HETATM    8  C11 UNK     1      11.306   5.550   7.731  1.00  0.00     0.021 A 
HETATM    9  C12 UNK     1       9.004   6.367   8.241  1.00  0.00     0.220 A 
HETATM   10  C13 UNK     1       8.217   7.412   8.935  1.00  0.00     0.149 A 
HETATM   11  C14 UNK     1       8.876   8.368   9.596  1.00  0.00     0.184 A 
ENDROOT
BRANCH  10  12
HETATM   12  O4  UNK     1       6.844   7.372   8.885  1.00  0.00    -0.305 OA
BRANCH  12  13
HETATM   13  C15 UNK     1       6.186   7.120  10.058  1.00  0.00     0.076 A 
HETATM   14  C16 UNK     1       5.486   8.142  10.692  1.00  0.00     0.040 A 
HETATM   15  C19 UNK     1       4.817   7.883  11.887  1.00  0.00     0.039 A 
HETATM   16  C18 UNK     1       4.849   6.604  12.442  1.00  0.00     0.068 A 
HETATM   17  C20 UNK     1       5.552   5.583  11.802  1.00  0.00     0.039 A 
HETATM   18  C17 UNK     1       6.222   5.842  10.606  1.00  0.00     0.040 A 
BRANCH  16  19
HETATM   19  O6  UNK     1       4.196   6.352  13.609  1.00  0.00    -0.356 OA
HETATM   20  C21 UNK     1       4.812   5.439  14.516  1.00  0.00     0.210 C 
ENDBRANCH  16  19
ENDBRANCH  12  13
ENDBRANCH  10  12
BRANCH   3  21
HETATM   21  O1  UNK     1      14.585   6.868   8.685  1.00  0.00    -0.278 OA
BRANCH  21  22
HETATM   22  C5  UNK     1      15.091   6.647   9.981  1.00  0.00     0.271 C 
HETATM   23  O2  UNK     1      14.836   5.662  10.664  1.00  0.00    -0.264 OA
BRANCH  22  24
HETATM   24  C1  UNK     1      16.001   7.800  10.421  1.00  0.00     0.037 C 
HETATM   25  C2  UNK     1      15.826   8.984   9.456  1.00  0.00     0.025 C 
HETATM   26  C3  UNK     1      17.464   7.341  10.386  1.00  0.00     0.025 C 
HETATM   27  C4  UNK     1      15.611   8.248  11.836  1.00  0.00     0.025 C 
ENDBRANCH  22  24
ENDBRANCH  21  22
ENDBRANCH   3  21
TORSDOF 6
ENDMDL
MODEL 4
REMARK VINA RESULT:      -8.5      2.614     10.151
REMARK  6 active torsions:
REMARK  status: ('A' for Active; 'I' for Inactive)
REMARK    1  A    between atoms: C5_11  and  O1_1 
REMARK    2  A    between atoms: C6_12  and  O1_1 
REMARK    3  A    between atoms: C13_19  and  O4_4 
REMARK    4  A    between atoms: C15_21  and  O4_4 
REMARK    5  A    between atoms: C18_24  and  O6_6 
REMARK    6  A    between atoms: C1_7  and  C5_11 
ROOT
HETATM    1  O3  UNK     1      19.567  -1.074  33.356  1.00  0.00    -0.319 OA
HETATM    2  O5  UNK     1      17.065   0.798  35.985  1.00  0.00    -0.284 OA
HETATM    3  C6  UNK     1      20.221  -3.104  36.314  1.00  0.00     0.082 A 
HETATM    4  C7  UNK     1      18.641  -0.921  35.601  1.00  0.00     0.051 A 
HETATM    5  C8  UNK     1      19.478  -1.517  34.654  1.00  0.00     0.092 A 
HETATM    6  C9  UNK     1      20.269  -2.609  35.010  1.00  0.00     0.075 A 
HETATM    7  C10 UNK     1      19.384  -2.507  37.259  1.00  0.00     0.038 A 
HETATM    8  C11 UNK     1      18.593  -1.414  36.907  1.00  0.00     0.021 A 
HETATM    9  C12 UNK     1      17.816   0.233  35.202  1.00  0.00     0.220 A 
HETATM   10  C13 UNK     1      17.950   0.670  33.794  1.00  0.00     0.149 A 
HETATM   11  C14 UNK     1      18.792   0.003  32.999  1.00  0.00     0.184 A 
ENDROOT
BRANCH  10  12
HETATM   12  O4  UNK     1      17.214   1.740  33.343  1.00  0.00    -0.305 OA
BRANCH  12  13
HETATM   13  C15 UNK     1      17.895   2.900  33.089  1.00  0.00     0.076 A 
HETATM   14  C16 UNK     1      18.132   3.289  31.775  1.00  0.00     0.040 A 
HETATM   15  C19 UNK     1      18.826   4.471  31.518  1.00  0.00     0.039 A 
HETATM   16  C18 UNK     1      19.280   5.258  32.576  1.00  0.00     0.068 A 
HETATM   17  C20 UNK     1      19.039   4.863  33.892  1.00  0.00     0.039 A 
HETATM   18  C17 UNK     1      18.345   3.680  34.150  1.00  0.00     0.040 A 
BRANCH  16  19
HETATM   19  O6  UNK     1      19.958   6.411  32.325  1.00  0.00    -0.356 OA
HETATM   20  C21 UNK     1      20.114   7.323  33.411  1.00  0.00     0.210 C 
ENDBRANCH  16  19
ENDBRANCH  12  13
ENDBRANCH  10  12
BRANCH   3  21
HETATM   21  O1  UNK     1      20.991  -4.170  36.664  1.00  0.00    -0.278 OA
BRANCH  21  22
HETATM   22  C5  UNK     1      20.280  -5.376  36.824  1.00  0.00     0.271 C 
HETATM   23  O2  UNK     1      19.237  -5.648  36.241  1.00  0.00    -0.264 OA
BRANCH  22  24
HETATM   24  C1  UNK     1      20.986  -6.302  37.822  1.00  0.00     0.037 C 
HETATM   25  C2  UNK     1      19.996  -6.713  38.924  1.00  0.00     0.025 C 
HETATM   26  C3  UNK     1      22.166  -5.562  38.464  1.00  0.00     0.025 C 
HETATM   27  C4  UNK     1      21.473  -7.563  37.095  1.00  0.00     0.025 C 
ENDBRANCH  22  24
ENDBRANCH  21  22
ENDBRANCH   3  21
TORSDOF 6
ENDMDL
MODEL 5
REMARK VINA RESULT:      -8.5      3.882      6.608
REMARK  6 active torsions:
REMARK  status: ('A' for Active; 'I' for Inactive)
REMARK    1  A    between atoms: C5_11  and  O1_1 
REMARK    2  A    between atoms: C6_12  and  O1_1 
REMARK    3  A    between atoms: C13_19  and  O4_4 
REMARK    4  A    between atoms: C15_21  and  O4_4 
REMARK    5  A    between atoms: C18_24  and  O6_6 
REMARK    6  A    between atoms: C1_7  and  C5_11 
ROOT
HETATM    1  O3  UNK     1      16.208   8.070  34.054  1.00  0.00    -0.319 OA
HETATM    2  O5  UNK     1      20.281   7.988  33.774  1.00  0.00    -0.284 OA
HETATM    3  C6  UNK     1      16.869  11.650  34.274  1.00  0.00     0.082 A 
HETATM    4  C7  UNK     1      18.317   9.283  34.000  1.00  0.00     0.051 A 
HETATM    5  C8  UNK     1      16.923   9.243  34.092  1.00  0.00     0.092 A 
HETATM    6  C9  UNK     1      16.198  10.427  34.229  1.00  0.00     0.075 A 
HETATM    7  C10 UNK     1      18.262  11.688  34.182  1.00  0.00     0.038 A 
HETATM    8  C11 UNK     1      18.991  10.506  34.046  1.00  0.00     0.021 A 
HETATM    9  C12 UNK     1      19.061   8.019  33.858  1.00  0.00     0.220 A 
HETATM   10  C13 UNK     1      18.243   6.785  33.823  1.00  0.00     0.149 A 
HETATM   11  C14 UNK     1      16.915   6.901  33.922  1.00  0.00     0.184 A 
ENDROOT
BRANCH  10  12
HETATM   12  O4  UNK     1      18.862   5.564  33.693  1.00  0.00    -0.305 OA
BRANCH  12  13
HETATM   13  C15 UNK     1      18.776   4.952  32.472  1.00  0.00     0.076 A 
HETATM   14  C16 UNK     1      19.291   5.583  31.344  1.00  0.00     0.040 A 
HETATM   15  C19 UNK     1      19.203   4.958  30.101  1.00  0.00     0.039 A 
HETATM   16  C18 UNK     1      18.602   3.704  29.992  1.00  0.00     0.068 A 
HETATM   17  C20 UNK     1      18.088   3.075  31.126  1.00  0.00     0.039 A 
HETATM   18  C17 UNK     1      18.176   3.701  32.370  1.00  0.00     0.040 A 
BRANCH  16  19
HETATM   19  O6  UNK     1      18.517   3.094  28.778  1.00  0.00    -0.356 OA
HETATM   20  C21 UNK     1      17.868   1.824  28.732  1.00  0.00     0.210 C 
ENDBRANCH  16  19
ENDBRANCH  12  13
ENDBRANCH  10  12
BRANCH   3  21
HETATM   21  O1  UNK     1      16.166  12.807  34.406  1.00  0.00    -0.278 OA
BRANCH  21  22
HETATM   22  C5  UNK     1      15.532  12.966  35.654  1.00  0.00     0.271 C 
HETATM   23  O2  UNK     1      16.095  12.851  36.736  1.00  0.00    -0.264 OA
BRANCH  22  24
HETATM   24  C1  UNK     1      14.047  13.304  35.477  1.00  0.00     0.037 C 
HETATM   25  C2  UNK     1      13.668  14.452  36.427  1.00  0.00     0.025 C 
HETATM   26  C3  UNK     1      13.196  12.074  35.819  1.00  0.00     0.025 C 
HETATM   27  C4  UNK     1      13.791  13.749  34.030  1.00  0.00     0.025 C 
ENDBRANCH  22  24
ENDBRANCH  21  22
ENDBRANCH   3  21
TORSDOF 6
ENDMDL
MODEL 6
REMARK VINA RESULT:      -8.5      1.481      2.073
REMARK  6 active torsions:
REMARK  status: ('A' for Active; 'I' for Inactive)
REMARK    1  A    between atoms: C5_11  and  O1_1 
REMARK    2  A    between atoms: C6_12  and  O1_1 
REMARK    3  A    between atoms: C13_19  and  O4_4 
REMARK    4  A    between atoms: C15_21  and  O4_4 
REMARK    5  A    between atoms: C18_24  and  O6_6 
REMARK    6  A    between atoms: C1_7  and  C5_11 
ROOT
HETATM    1  O3  UNK     1      18.279   3.138  34.516  1.00  0.00    -0.319 OA
HETATM    2  O5  UNK     1      18.279   1.164  30.941  1.00  0.00    -0.284 OA
HETATM    3  C6  UNK     1      18.825   5.977  32.295  1.00  0.00     0.082 A 
HETATM    4  C7  UNK     1      18.468   3.220  32.092  1.00  0.00     0.051 A 
HETATM    5  C8  UNK     1      18.459   3.836  33.347  1.00  0.00     0.092 A 
HETATM    6  C9  UNK     1      18.637   5.215  33.449  1.00  0.00     0.075 A 
HETATM    7  C10 UNK     1      18.834   5.361  31.042  1.00  0.00     0.038 A 
HETATM    8  C11 UNK     1      18.657   3.981  30.936  1.00  0.00     0.021 A 
HETATM    9  C12 UNK     1      18.279   1.761  32.010  1.00  0.00     0.220 A 
HETATM   10  C13 UNK     1      18.090   1.057  33.298  1.00  0.00     0.149 A 
HETATM   11  C14 UNK     1      18.105   1.779  34.423  1.00  0.00     0.184 A 
ENDROOT
BRANCH  10  12
HETATM   12  O4  UNK     1      17.908  -0.305  33.307  1.00  0.00    -0.305 OA
BRANCH  12  13
HETATM   13  C15 UNK     1      18.433  -0.995  34.366  1.00  0.00     0.076 A 
HETATM   14  C16 UNK     1      19.621  -1.702  34.210  1.00  0.00     0.040 A 
HETATM   15  C19 UNK     1      20.154  -2.405  35.290  1.00  0.00     0.039 A 
HETATM   16  C18 UNK     1      19.498  -2.397  36.520  1.00  0.00     0.068 A 
HETATM   17  C20 UNK     1      18.307  -1.688  36.671  1.00  0.00     0.039 A 
HETATM   18  C17 UNK     1      17.772  -0.984  35.590  1.00  0.00     0.040 A 
BRANCH  16  19
HETATM   19  O6  UNK     1      20.018  -3.084  37.573  1.00  0.00    -0.356 OA
HETATM   20  C21 UNK     1      20.629  -4.342  37.291  1.00  0.00     0.210 C 
ENDBRANCH  16  19
ENDBRANCH  12  13
ENDBRANCH  10  12
BRANCH   3  21
HETATM   21  O1  UNK     1      18.998   7.324  32.391  1.00  0.00    -0.278 OA
BRANCH  21  22
HETATM   22  C5  UNK     1      17.827   8.044  32.698  1.00  0.00     0.271 C 
HETATM   23  O2  UNK     1      16.845   8.110  31.968  1.00  0.00    -0.264 OA
BRANCH  22  24
HETATM   24  C1  UNK     1      17.945   8.729  34.064  1.00  0.00     0.037 C 
HETATM   25  C2  UNK     1      17.541  10.207  33.929  1.00  0.00     0.025 C 
HETATM   26  C3  UNK     1      19.396   8.653  34.554  1.00  0.00     0.025 C 
HETATM   27  C4  UNK     1      17.003   8.044  35.064  1.00  0.00     0.025 C 
ENDBRANCH  22  24
ENDBRANCH  21  22
ENDBRANCH   3  21
TORSDOF 6
ENDMDL
MODEL 7
REMARK VINA RESULT:      -8.4      3.495      6.627
REMARK  6 active torsions:
REMARK  status: ('A' for Active; 'I' for Inactive)
REMARK    1  A    between atoms: C5_11  and  O1_1 
REMARK    2  A    between atoms: C6_12  and  O1_1 
REMARK    3  A    between atoms: C13_19  and  O4_4 
REMARK    4  A    between atoms: C15_21  and  O4_4 
REMARK    5  A    between atoms: C18_24  and  O6_6 
REMARK    6  A    between atoms: C1_7  and  C5_11 
ROOT
HETATM    1  O3  UNK     1      15.930   8.503  31.300  1.00  0.00    -0.319 OA
HETATM    2  O5  UNK     1      18.207   7.739  34.603  1.00  0.00    -0.284 OA
HETATM    3  C6  UNK     1      14.018  10.393  33.763  1.00  0.00     0.082 A 
HETATM    4  C7  UNK     1      16.312   8.812  33.683  1.00  0.00     0.051 A 
HETATM    5  C8  UNK     1      15.576   9.035  32.517  1.00  0.00     0.092 A 
HETATM    6  C9  UNK     1      14.428   9.826  32.556  1.00  0.00     0.075 A 
HETATM    7  C10 UNK     1      14.755  10.170  34.928  1.00  0.00     0.038 A 
HETATM    8  C11 UNK     1      15.903   9.379  34.893  1.00  0.00     0.021 A 
HETATM    9  C12 UNK     1      17.521   7.972  33.617  1.00  0.00     0.220 A 
HETATM   10  C13 UNK     1      17.857   7.423  32.283  1.00  0.00     0.149 A 
HETATM   11  C14 UNK     1      17.058   7.722  31.255  1.00  0.00     0.184 A 
ENDROOT
BRANCH  10  12
HETATM   12  O4  UNK     1      18.970   6.629  32.138  1.00  0.00    -0.305 OA
BRANCH  12  13
HETATM   13  C15 UNK     1      18.775   5.375  31.627  1.00  0.00     0.076 A 
HETATM   14  C16 UNK     1      19.131   5.101  30.310  1.00  0.00     0.040 A 
HETATM   15  C19 UNK     1      18.932   3.823  29.791  1.00  0.00     0.039 A 
HETATM   16  C18 UNK     1      18.377   2.823  30.590  1.00  0.00     0.068 A 
HETATM   17  C20 UNK     1      18.021   3.103  31.909  1.00  0.00     0.039 A 
HETATM   18  C17 UNK     1      18.221   4.382  32.430  1.00  0.00     0.040 A 
BRANCH  16  19
HETATM   19  O6  UNK     1      18.182   1.576  30.082  1.00  0.00    -0.356 OA
HETATM   20  C21 UNK     1      17.874   1.481  28.692  1.00  0.00     0.210 C 
ENDBRANCH  16  19
ENDBRANCH  12  13
ENDBRANCH  10  12
BRANCH   3  21
HETATM   21  O1  UNK     1      12.899  11.167  33.806  1.00  0.00    -0.278 OA
BRANCH  21  22
HETATM   22  C5  UNK     1      13.114  12.523  33.493  1.00  0.00     0.271 C 
HETATM   23  O2  UNK     1      13.463  12.933  32.391  1.00  0.00    -0.264 OA
BRANCH  22  24
HETATM   24  C1  UNK     1      12.851  13.417  34.710  1.00  0.00     0.037 C 
HETATM   25  C2  UNK     1      14.191  13.800  35.360  1.00  0.00     0.025 C 
HETATM   26  C3  UNK     1      12.002  12.654  35.734  1.00  0.00     0.025 C 
HETATM   27  C4  UNK     1      12.131  14.696  34.261  1.00  0.00     0.025 C 
ENDBRANCH  22  24
ENDBRANCH  21  22
ENDBRANCH   3  21
TORSDOF 6
ENDMDL
MODEL 8
REMARK VINA RESULT:      -8.4     22.221     24.507
REMARK  6 active torsions:
REMARK  status: ('A' for Active; 'I' for Inactive)
REMARK    1  A    between atoms: C5_11  and  O1_1 
REMARK    2  A    between atoms: C6_12  and  O1_1 
REMARK    3  A    between atoms: C13_19  and  O4_4 
REMARK    4  A    between atoms: C15_21  and  O4_4 
REMARK    5  A    between atoms: C18_24  and  O6_6 
REMARK    6  A    between atoms: C1_7  and  C5_11 
ROOT
HETATM    1  O3  UNK     1       7.343   4.096  10.021  1.00  0.00    -0.319 OA
HETATM    2  O5  UNK     1       5.231   6.930  12.066  1.00  0.00    -0.284 OA
HETATM    3  C6  UNK     1       9.093   7.071   8.846  1.00  0.00     0.082 A 
HETATM    4  C7  UNK     1       6.982   6.442  10.554  1.00  0.00     0.051 A 
HETATM    5  C8  UNK     1       7.665   5.424   9.882  1.00  0.00     0.092 A 
HETATM    6  C9  UNK     1       8.721   5.739   9.028  1.00  0.00     0.075 A 
HETATM    7  C10 UNK     1       8.410   8.087   9.518  1.00  0.00     0.038 A 
HETATM    8  C11 UNK     1       7.352   7.777  10.373  1.00  0.00     0.021 A 
HETATM    9  C12 UNK     1       5.868   6.085  11.451  1.00  0.00     0.220 A 
HETATM   10  C13 UNK     1       5.563   4.641  11.564  1.00  0.00     0.149 A 
HETATM   11  C14 UNK     1       6.303   3.779  10.859  1.00  0.00     0.184 A 
ENDROOT
BRANCH  10  12
HETATM   12  O4  UNK     1       4.537   4.225  12.380  1.00  0.00    -0.305 OA
BRANCH  12  13
HETATM   13  C15 UNK     1       4.885   3.677  13.584  1.00  0.00     0.076 A 
HETATM   14  C16 UNK     1       4.743   2.308  13.787  1.00  0.00     0.040 A 
HETATM   15  C19 UNK     1       5.098   1.750  15.014  1.00  0.00     0.039 A 
HETATM   16  C18 UNK     1       5.594   2.563  16.033  1.00  0.00     0.068 A 
HETATM   17  C20 UNK     1       5.734   3.935  15.825  1.00  0.00     0.039 A 
HETATM   18  C17 UNK     1       5.379   4.494  14.596  1.00  0.00     0.040 A 
BRANCH  16  19
HETATM   19  O6  UNK     1       5.939   2.018  17.231  1.00  0.00    -0.356 OA
HETATM   20  C21 UNK     1       4.878   1.691  18.127  1.00  0.00     0.210 C 
ENDBRANCH  16  19
ENDBRANCH  12  13
ENDBRANCH  10  12
BRANCH   3  21
HETATM   21  O1  UNK     1      10.124   7.382   8.014  1.00  0.00    -0.278 OA
BRANCH  21  22
HETATM   22  C5  UNK     1      11.396   7.025   8.501  1.00  0.00     0.271 C 
HETATM   23  O2  UNK     1      11.821   7.324   9.611  1.00  0.00    -0.264 OA
BRANCH  22  24
HETATM   24  C1  UNK     1      12.176   6.213   7.460  1.00  0.00     0.037 C 
HETATM   25  C2  UNK     1      13.544   6.872   7.220  1.00  0.00     0.025 C 
HETATM   26  C3  UNK     1      11.397   6.188   6.140  1.00  0.00     0.025 C 
HETATM   27  C4  UNK     1      12.395   4.786   7.983  1.00  0.00     0.025 C 
ENDBRANCH  22  24
ENDBRANCH  21  22
ENDBRANCH   3  21
TORSDOF 6
ENDMDL
MODEL 9
REMARK VINA RESULT:      -8.3      3.551      6.319
REMARK  6 active torsions:
REMARK  status: ('A' for Active; 'I' for Inactive)
REMARK    1  A    between atoms: C5_11  and  O1_1 
REMARK    2  A    between atoms: C6_12  and  O1_1 
REMARK    3  A    between atoms: C13_19  and  O4_4 
REMARK    4  A    between atoms: C15_21  and  O4_4 
REMARK    5  A    between atoms: C18_24  and  O6_6 
REMARK    6  A    between atoms: C1_7  and  C5_11 
ROOT
HETATM    1  O3  UNK     1      17.760   8.130  34.848  1.00  0.00    -0.319 OA
HETATM    2  O5  UNK     1      17.050   7.771  30.843  1.00  0.00    -0.284 OA
HETATM    3  C6  UNK     1      14.616   9.968  34.656  1.00  0.00     0.082 A 
HETATM    4  C7  UNK     1      16.334   8.605  32.935  1.00  0.00     0.051 A 
HETATM    5  C8  UNK     1      16.634   8.694  34.297  1.00  0.00     0.092 A 
HETATM    6  C9  UNK     1      15.775   9.375  35.158  1.00  0.00     0.075 A 
HETATM    7  C10 UNK     1      14.317   9.879  33.295  1.00  0.00     0.038 A 
HETATM    8  C11 UNK     1      15.174   9.199  32.430  1.00  0.00     0.021 A 
HETATM    9  C12 UNK     1      17.257   7.881  32.043  1.00  0.00     0.220 A 
HETATM   10  C13 UNK     1      18.454   7.295  32.688  1.00  0.00     0.149 A 
HETATM   11  C14 UNK     1      18.611   7.460  34.005  1.00  0.00     0.184 A 
ENDROOT
BRANCH  10  12
HETATM   12  O4  UNK     1      19.366   6.604  31.925  1.00  0.00    -0.305 OA
BRANCH  12  13
HETATM   13  C15 UNK     1      18.989   5.369  31.473  1.00  0.00     0.076 A 
HETATM   14  C16 UNK     1      18.412   4.458  32.353  1.00  0.00     0.040 A 
HETATM   15  C19 UNK     1      18.028   3.199  31.891  1.00  0.00     0.039 A 
HETATM   16  C18 UNK     1      18.222   2.858  30.553  1.00  0.00     0.068 A 
HETATM   17  C20 UNK     1      18.800   3.775  29.675  1.00  0.00     0.039 A 
HETATM   18  C17 UNK     1      19.184   5.035  30.137  1.00  0.00     0.040 A 
BRANCH  16  19
HETATM   19  O6  UNK     1      17.847   1.629  30.103  1.00  0.00    -0.356 OA
HETATM   20  C21 UNK     1      17.964   1.386  28.702  1.00  0.00     0.210 C 
ENDBRANCH  16  19
ENDBRANCH  12  13
ENDBRANCH  10  12
BRANCH   3  21
HETATM   21  O1  UNK     1      13.774  10.632  35.494  1.00  0.00    -0.278 OA
BRANCH  21  22
HETATM   22  C5  UNK     1      14.249  11.887  35.925  1.00  0.00     0.271 C 
HETATM   23  O2  UNK     1      15.153  12.043  36.738  1.00  0.00    -0.264 OA
BRANCH  22  24
HETATM   24  C1  UNK     1      13.486  13.028  35.242  1.00  0.00     0.037 C 
HETATM   25  C2  UNK     1      13.279  14.175  36.245  1.00  0.00     0.025 C 
HETATM   26  C3  UNK     1      12.116  12.522  34.774  1.00  0.00     0.025 C 
HETATM   27  C4  UNK     1      14.302  13.549  34.051  1.00  0.00     0.025 C 
ENDBRANCH  22  24
ENDBRANCH  21  22
ENDBRANCH   3  21
TORSDOF 6
ENDMDL
MODEL 10
REMARK VINA RESULT:      -8.3     22.303     24.739
REMARK  6 active torsions:
REMARK  status: ('A' for Active; 'I' for Inactive)
REMARK    1  A    between atoms: C5_11  and  O1_1 
REMARK    2  A    between atoms: C6_12  and  O1_1 
REMARK    3  A    between atoms: C13_19  and  O4_4 
REMARK    4  A    between atoms: C15_21  and  O4_4 
REMARK    5  A    between atoms: C18_24  and  O6_6 
REMARK    6  A    between atoms: C1_7  and  C5_11 
ROOT
HETATM    1  O3  UNK     1      10.136   4.543  10.199  1.00  0.00    -0.319 OA
HETATM    2  O5  UNK     1       7.736   6.613   7.625  1.00  0.00    -0.284 OA
HETATM    3  C6  UNK     1      12.687   6.522   8.504  1.00  0.00     0.082 A 
HETATM    4  C7  UNK     1       9.921   6.190   8.421  1.00  0.00     0.051 A 
HETATM    5  C8  UNK     1      10.687   5.450   9.325  1.00  0.00     0.092 A 
HETATM    6  C9  UNK     1      12.071   5.616   9.367  1.00  0.00     0.075 A 
HETATM    7  C10 UNK     1      11.920   7.261   7.600  1.00  0.00     0.038 A 
HETATM    8  C11 UNK     1      10.536   7.098   7.555  1.00  0.00     0.021 A 
HETATM    9  C12 UNK     1       8.460   5.996   8.394  1.00  0.00     0.220 A 
HETATM   10  C13 UNK     1       7.919   5.008   9.355  1.00  0.00     0.149 A 
HETATM   11  C14 UNK     1       8.774   4.373  10.162  1.00  0.00     0.184 A 
ENDROOT
BRANCH  10  12
HETATM   12  O4  UNK     1       6.565   4.769   9.392  1.00  0.00    -0.305 OA
BRANCH  12  13
HETATM   13  C15 UNK     1       6.079   4.125  10.497  1.00  0.00     0.076 A 
HETATM   14  C16 UNK     1       5.812   2.761  10.440  1.00  0.00     0.040 A 
HETATM   15  C19 UNK     1       5.316   2.106  11.566  1.00  0.00     0.039 A 
HETATM   16  C18 UNK     1       5.090   2.817  12.744  1.00  0.00     0.068 A 
HETATM   17  C20 UNK     1       5.359   4.185  12.796  1.00  0.00     0.039 A 
HETATM   18  C17 UNK     1       5.855   4.841  11.669  1.00  0.00     0.040 A 
BRANCH  16  19
HETATM   19  O6  UNK     1       4.605   2.177  13.843  1.00  0.00    -0.356 OA
HETATM   20  C21 UNK     1       5.454   2.117  14.988  1.00  0.00     0.210 C 
ENDBRANCH  16  19
ENDBRANCH  12  13
ENDBRANCH  10  12
BRANCH   3  21
HETATM   21  O1  UNK     1      14.037   6.688   8.542  1.00  0.00    -0.278 OA
BRANCH  21  22
HETATM   22  C5  UNK     1      14.571   6.838   9.837  1.00  0.00     0.271 C 
HETATM   23  O2  UNK     1      14.866   5.907  10.577  1.00  0.00    -0.264 OA
BRANCH  22  24
HETATM   24  C1  UNK     1      14.735   8.320  10.196  1.00  0.00     0.037 C 
HETATM   25  C2  UNK     1      16.000   8.501  11.050  1.00  0.00     0.025 C 
HETATM   26  C3  UNK     1      13.518   8.790  11.003  1.00  0.00     0.025 C 
HETATM   27  C4  UNK     1      14.879   9.145   8.910  1.00  0.00     0.025 C 
ENDBRANCH  22  24
ENDBRANCH  21  22
ENDBRANCH   3  21
TORSDOF 6
ENDMDL
