MODEL 1
REMARK VINA RESULT:      -8.9      0.000      0.000
REMARK  4 active torsions:
REMARK  status: ('A' for Active; 'I' for Inactive)
REMARK    1  A    between atoms: C10_14  and  O2_2 
REMARK    2  A    between atoms: C13_17  and  O2_2 
REMARK    3  A    between atoms: C3_7  and  C5_9 
REMARK    4  A    between atoms: C13_17  and  C14_18 
ROOT
HETATM    1  O1  UNK     1      16.672   7.754  31.933  1.00  0.00    -0.274 OA
HETATM    2  O3  UNK     1      15.527   9.556  32.704  1.00  0.00    -0.259 OA
HETATM    3  C1  UNK     1      18.799   8.433  33.674  1.00  0.00    -0.037 A 
HETATM    4  C2  UNK     1      18.895   7.256  32.786  1.00  0.00     0.005 A 
HETATM    5  C3  UNK     1      17.697   9.212  33.626  1.00  0.00     0.024 A 
HETATM    6  C4  UNK     1      17.826   6.956  31.947  1.00  0.00     0.093 A 
HETATM    7  C6  UNK     1      20.014   6.410  32.723  1.00  0.00     0.017 A 
HETATM    8  C7  UNK     1      16.549   8.878  32.734  1.00  0.00     0.295 A 
HETATM    9  C8  UNK     1      19.959   8.681  34.605  1.00  0.00     0.050 C 
HETATM   10  C9  UNK     1      17.835   5.862  31.078  1.00  0.00     0.075 A 
HETATM   11  C10 UNK     1      18.951   5.036  31.036  1.00  0.00     0.082 A 
HETATM   12  C11 UNK     1      20.041   5.309  31.858  1.00  0.00     0.038 A 
ENDROOT
BRANCH  11  13
HETATM   13  O2  UNK     1      18.980   3.966  30.196  1.00  0.00    -0.275 OA
BRANCH  13  14
HETATM   14  C13 UNK     1      18.408   2.804  30.722  1.00  0.00     0.298 C 
HETATM   15  O4  UNK     1      17.570   2.763  31.611  1.00  0.00    -0.259 OA
BRANCH  14  16
HETATM   16  C14 UNK     1      18.941   1.590  30.051  1.00  0.00     0.039 A 
HETATM   17  C15 UNK     1      19.929   0.860  30.681  1.00  0.00     0.017 A 
HETATM   18  C17 UNK     1      20.429  -0.279  30.051  1.00  0.00     0.001 A 
HETATM   19  C19 UNK     1      19.932  -0.662  28.805  1.00  0.00     0.000 A 
HETATM   20  C18 UNK     1      18.935   0.094  28.189  1.00  0.00     0.001 A 
HETATM   21  C16 UNK     1      18.434   1.232  28.820  1.00  0.00     0.017 A 
ENDBRANCH  14  16
ENDBRANCH  13  14
ENDBRANCH  11  13
BRANCH   5  22
HETATM   22  C5  UNK     1      17.497  10.473  34.427  1.00  0.00     0.041 C 
HETATM   23  C12 UNK     1      18.314  11.617  33.868  1.00  0.00     0.010 C 
ENDBRANCH   5  22
TORSDOF 4
ENDMDL
MODEL 2
REMARK VINA RESULT:      -8.3     16.229     18.418
REMARK  4 active torsions:
REMARK  status: ('A' for Active; 'I' for Inactive)
REMARK    1  A    between atoms: C10_14  and  O2_2 
REMARK    2  A    between atoms: C13_17  and  O2_2 
REMARK    3  A    between atoms: C3_7  and  C5_9 
REMARK    4  A    between atoms: C13_17  and  C14_18 
ROOT
HETATM    1  O1  UNK     1      32.255  -7.029  37.673  1.00  0.00    -0.274 OA
HETATM    2  O3  UNK     1      34.274  -7.550  36.775  1.00  0.00    -0.259 OA
HETATM    3  C1  UNK     1      32.568  -4.389  36.699  1.00  0.00    -0.037 A 
HETATM    4  C2  UNK     1      31.362  -4.776  37.461  1.00  0.00     0.005 A 
HETATM    5  C3  UNK     1      33.545  -5.298  36.497  1.00  0.00     0.024 A 
HETATM    6  C4  UNK     1      31.248  -6.085  37.920  1.00  0.00     0.093 A 
HETATM    7  C6  UNK     1      30.312  -3.897  37.767  1.00  0.00     0.017 A 
HETATM    8  C7  UNK     1      33.410  -6.703  36.981  1.00  0.00     0.295 A 
HETATM    9  C8  UNK     1      32.618  -2.976  36.174  1.00  0.00     0.050 C 
HETATM   10  C9  UNK     1      30.142  -6.533  38.648  1.00  0.00     0.075 A 
HETATM   11  C10 UNK     1      29.111  -5.647  38.934  1.00  0.00     0.082 A 
HETATM   12  C11 UNK     1      29.196  -4.328  38.495  1.00  0.00     0.038 A 
ENDROOT
BRANCH  11  13
HETATM   13  O2  UNK     1      28.026  -6.063  39.642  1.00  0.00    -0.275 OA
BRANCH  13  14
HETATM   14  C13 UNK     1      26.928  -6.422  38.855  1.00  0.00     0.298 C 
HETATM   15  O4  UNK     1      26.092  -5.651  38.408  1.00  0.00    -0.259 OA
BRANCH  14  16
HETATM   16  C14 UNK     1      26.900  -7.886  38.608  1.00  0.00     0.039 A 
HETATM   17  C15 UNK     1      27.260  -8.742  39.629  1.00  0.00     0.017 A 
HETATM   18  C17 UNK     1      27.233 -10.117  39.398  1.00  0.00     0.001 A 
HETATM   19  C19 UNK     1      26.847 -10.606  38.149  1.00  0.00     0.000 A 
HETATM   20  C18 UNK     1      26.488  -9.720  37.133  1.00  0.00     0.001 A 
HETATM   21  C16 UNK     1      26.515  -8.345  37.366  1.00  0.00     0.017 A 
ENDBRANCH  14  16
ENDBRANCH  13  14
ENDBRANCH  11  13
BRANCH   5  22
HETATM   22  C5  UNK     1      34.849  -5.021  35.795  1.00  0.00     0.041 C 
HETATM   23  C12 UNK     1      34.727  -5.227  34.301  1.00  0.00     0.010 C 
ENDBRANCH   5  22
TORSDOF 4
ENDMDL
MODEL 3
REMARK VINA RESULT:      -8.3     14.827     20.017
REMARK  4 active torsions:
REMARK  status: ('A' for Active; 'I' for Inactive)
REMARK    1  A    between atoms: C10_14  and  O2_2 
REMARK    2  A    between atoms: C13_17  and  O2_2 
REMARK    3  A    between atoms: C3_7  and  C5_9 
REMARK    4  A    between atoms: C13_17  and  C14_18 
ROOT
HETATM    1  O1  UNK     1      20.230  -1.403  12.425  1.00  0.00    -0.274 OA
HETATM    2  O3  UNK     1      21.249  -1.355  10.397  1.00  0.00    -0.259 OA
HETATM    3  C1  UNK     1      19.497  -4.092  11.928  1.00  0.00    -0.037 A 
HETATM    4  C2  UNK     1      19.107  -3.422  13.187  1.00  0.00     0.005 A 
HETATM    5  C3  UNK     1      20.180  -3.399  10.992  1.00  0.00     0.024 A 
HETATM    6  C4  UNK     1      19.489  -2.100  13.391  1.00  0.00     0.093 A 
HETATM    7  C6  UNK     1      18.357  -4.036  14.202  1.00  0.00     0.017 A 
HETATM    8  C7  UNK     1      20.598  -1.986  11.224  1.00  0.00     0.295 A 
HETATM    9  C8  UNK     1      19.109  -5.542  11.779  1.00  0.00     0.050 C 
HETATM   10  C9  UNK     1      19.163  -1.393  14.552  1.00  0.00     0.075 A 
HETATM   11  C10 UNK     1      18.424  -2.022  15.546  1.00  0.00     0.082 A 
HETATM   12  C11 UNK     1      18.019  -3.343  15.371  1.00  0.00     0.038 A 
ENDROOT
BRANCH  11  13
HETATM   13  O2  UNK     1      18.094  -1.352  16.683  1.00  0.00    -0.275 OA
BRANCH  13  14
HETATM   14  C13 UNK     1      19.188  -0.971  17.465  1.00  0.00     0.298 C 
HETATM   15  O4  UNK     1      20.132  -1.688  17.765  1.00  0.00    -0.259 OA
BRANCH  14  16
HETATM   16  C14 UNK     1      19.076   0.447  17.894  1.00  0.00     0.039 A 
HETATM   17  C15 UNK     1      18.788   0.724  19.215  1.00  0.00     0.017 A 
HETATM   18  C17 UNK     1      18.683   2.054  19.617  1.00  0.00     0.001 A 
HETATM   19  C19 UNK     1      18.866   3.080  18.689  1.00  0.00     0.000 A 
HETATM   20  C18 UNK     1      19.156   2.774  17.360  1.00  0.00     0.001 A 
HETATM   21  C16 UNK     1      19.262   1.443  16.958  1.00  0.00     0.017 A 
ENDBRANCH  14  16
ENDBRANCH  13  14
ENDBRANCH  11  13
BRANCH   5  22
HETATM   22  C5  UNK     1      20.583  -3.939   9.644  1.00  0.00     0.041 C 
HETATM   23  C12 UNK     1      19.463  -3.800   8.636  1.00  0.00     0.010 C 
ENDBRANCH   5  22
TORSDOF 4
ENDMDL
MODEL 4
REMARK VINA RESULT:      -8.3      2.794      7.652
REMARK  4 active torsions:
REMARK  status: ('A' for Active; 'I' for Inactive)
REMARK    1  A    between atoms: C10_14  and  O2_2 
REMARK    2  A    between atoms: C13_17  and  O2_2 
REMARK    3  A    between atoms: C3_7  and  C5_9 
REMARK    4  A    between atoms: C13_17  and  C14_18 
ROOT
HETATM    1  O1  UNK     1      17.871   2.223  34.399  1.00  0.00    -0.274 OA
HETATM    2  O3  UNK     1      17.605   1.019  36.305  1.00  0.00    -0.259 OA
HETATM    3  C1  UNK     1      18.673  -0.151  33.081  1.00  0.00    -0.037 A 
HETATM    4  C2  UNK     1      18.625   1.137  32.357  1.00  0.00     0.005 A 
HETATM    5  C3  UNK     1      18.364  -0.185  34.395  1.00  0.00     0.024 A 
HETATM    6  C4  UNK     1      18.223   2.279  33.043  1.00  0.00     0.093 A 
HETATM    7  C6  UNK     1      18.971   1.290  31.005  1.00  0.00     0.017 A 
HETATM    8  C7  UNK     1      17.922   1.041  35.120  1.00  0.00     0.295 A 
HETATM    9  C8  UNK     1      19.057  -1.370  32.280  1.00  0.00     0.050 C 
HETATM   10  C9  UNK     1      18.150   3.535  32.434  1.00  0.00     0.075 A 
HETATM   11  C10 UNK     1      18.492   3.662  31.093  1.00  0.00     0.082 A 
HETATM   12  C11 UNK     1      18.904   2.540  30.379  1.00  0.00     0.038 A 
ENDROOT
BRANCH  11  13
HETATM   13  O2  UNK     1      18.429   4.876  30.482  1.00  0.00    -0.275 OA
BRANCH  13  14
HETATM   14  C13 UNK     1      19.496   5.728  30.778  1.00  0.00     0.298 C 
HETATM   15  O4  UNK     1      20.561   5.769  30.178  1.00  0.00    -0.259 OA
BRANCH  14  16
HETATM   16  C14 UNK     1      19.177   6.610  31.930  1.00  0.00     0.039 A 
HETATM   17  C15 UNK     1      17.971   7.281  31.941  1.00  0.00     0.017 A 
HETATM   18  C17 UNK     1      17.671   8.109  33.022  1.00  0.00     0.001 A 
HETATM   19  C19 UNK     1      18.584   8.250  34.068  1.00  0.00     0.000 A 
HETATM   20  C18 UNK     1      19.796   7.561  34.032  1.00  0.00     0.001 A 
HETATM   21  C16 UNK     1      20.095   6.733  32.951  1.00  0.00     0.017 A 
ENDBRANCH  14  16
ENDBRANCH  13  14
ENDBRANCH  11  13
BRANCH   5  22
HETATM   22  C5  UNK     1      18.433  -1.414  35.265  1.00  0.00     0.041 C 
HETATM   23  C12 UNK     1      19.825  -1.617  35.823  1.00  0.00     0.010 C 
ENDBRANCH   5  22
TORSDOF 4
ENDMDL
MODEL 5
REMARK VINA RESULT:      -8.1      2.081      8.330
REMARK  4 active torsions:
REMARK  status: ('A' for Active; 'I' for Inactive)
REMARK    1  A    between atoms: C10_14  and  O2_2 
REMARK    2  A    between atoms: C13_17  and  O2_2 
REMARK    3  A    between atoms: C3_7  and  C5_9 
REMARK    4  A    between atoms: C13_17  and  C14_18 
ROOT
HETATM    1  O1  UNK     1      18.609   0.815  32.982  1.00  0.00    -0.274 OA
HETATM    2  O3  UNK     1      18.946  -1.218  33.935  1.00  0.00    -0.259 OA
HETATM    3  C1  UNK     1      19.585  -0.232  30.540  1.00  0.00    -0.037 A 
HETATM    4  C2  UNK     1      19.154   1.178  30.640  1.00  0.00     0.005 A 
HETATM    5  C3  UNK     1      19.544  -1.017  31.637  1.00  0.00     0.024 A 
HETATM    6  C4  UNK     1      18.679   1.652  31.859  1.00  0.00     0.093 A 
HETATM    7  C6  UNK     1      19.201   2.090  29.573  1.00  0.00     0.017 A 
HETATM    8  C7  UNK     1      19.021  -0.506  32.938  1.00  0.00     0.295 A 
HETATM    9  C8  UNK     1      20.037  -0.712  29.183  1.00  0.00     0.050 C 
HETATM   10  C9  UNK     1      18.252   2.970  32.039  1.00  0.00     0.075 A 
HETATM   11  C10 UNK     1      18.302   3.854  30.968  1.00  0.00     0.082 A 
HETATM   12  C11 UNK     1      18.778   3.415  29.735  1.00  0.00     0.038 A 
ENDROOT
BRANCH  11  13
HETATM   13  O2  UNK     1      17.892   5.142  31.122  1.00  0.00    -0.275 OA
BRANCH  13  14
HETATM   14  C13 UNK     1      18.854   5.991  31.676  1.00  0.00     0.298 C 
HETATM   15  O4  UNK     1      19.967   6.200  31.217  1.00  0.00    -0.259 OA
BRANCH  14  16
HETATM   16  C14 UNK     1      18.351   6.638  32.916  1.00  0.00     0.039 A 
HETATM   17  C15 UNK     1      17.005   6.559  33.210  1.00  0.00     0.017 A 
HETATM   18  C17 UNK     1      16.533   7.166  34.373  1.00  0.00     0.001 A 
HETATM   19  C19 UNK     1      17.417   7.840  35.216  1.00  0.00     0.000 A 
HETATM   20  C18 UNK     1      18.772   7.906  34.896  1.00  0.00     0.001 A 
HETATM   21  C16 UNK     1      19.244   7.298  33.732  1.00  0.00     0.017 A 
ENDBRANCH  14  16
ENDBRANCH  13  14
ENDBRANCH  11  13
BRANCH   5  22
HETATM   22  C5  UNK     1      20.012  -2.449  31.691  1.00  0.00     0.041 C 
HETATM   23  C12 UNK     1      21.292  -2.582  32.487  1.00  0.00     0.010 C 
ENDBRANCH   5  22
TORSDOF 4
ENDMDL
MODEL 6
REMARK VINA RESULT:      -8.1     21.401     23.947
REMARK  4 active torsions:
REMARK  status: ('A' for Active; 'I' for Inactive)
REMARK    1  A    between atoms: C10_14  and  O2_2 
REMARK    2  A    between atoms: C13_17  and  O2_2 
REMARK    3  A    between atoms: C3_7  and  C5_9 
REMARK    4  A    between atoms: C13_17  and  C14_18 
ROOT
HETATM    1  O1  UNK     1      11.223   5.340  10.042  1.00  0.00    -0.274 OA
HETATM    2  O3  UNK     1       8.965   5.121  10.116  1.00  0.00    -0.259 OA
HETATM    3  C1  UNK     1      11.000   6.152   7.340  1.00  0.00    -0.037 A 
HETATM    4  C2  UNK     1      12.322   6.055   7.993  1.00  0.00     0.005 A 
HETATM    5  C3  UNK     1       9.891   5.814   8.032  1.00  0.00     0.024 A 
HETATM    6  C4  UNK     1      12.387   5.653   9.324  1.00  0.00     0.093 A 
HETATM    7  C6  UNK     1      13.537   6.335   7.349  1.00  0.00     0.017 A 
HETATM    8  C7  UNK     1       9.967   5.397   9.463  1.00  0.00     0.295 A 
HETATM    9  C8  UNK     1      10.978   6.647   5.915  1.00  0.00     0.050 C 
HETATM   10  C9  UNK     1      13.595   5.536  10.016  1.00  0.00     0.075 A 
HETATM   11  C10 UNK     1      14.786   5.824   9.360  1.00  0.00     0.082 A 
HETATM   12  C11 UNK     1      14.757   6.223   8.026  1.00  0.00     0.038 A 
ENDROOT
BRANCH  11  13
HETATM   13  O2  UNK     1      15.973   5.715  10.016  1.00  0.00    -0.275 OA
BRANCH  13  14
HETATM   14  C13 UNK     1      16.792   6.843   9.916  1.00  0.00     0.298 C 
HETATM   15  O4  UNK     1      17.926   6.861   9.460  1.00  0.00    -0.259 OA
BRANCH  14  16
HETATM   16  C14 UNK     1      16.104   8.055  10.432  1.00  0.00     0.039 A 
HETATM   17  C15 UNK     1      15.978   9.153   9.605  1.00  0.00     0.017 A 
HETATM   18  C17 UNK     1      15.332  10.290  10.088  1.00  0.00     0.001 A 
HETATM   19  C19 UNK     1      14.826  10.305  11.388  1.00  0.00     0.000 A 
HETATM   20  C18 UNK     1      14.967   9.182  12.204  1.00  0.00     0.001 A 
HETATM   21  C16 UNK     1      15.613   8.045  11.720  1.00  0.00     0.017 A 
ENDBRANCH  14  16
ENDBRANCH  13  14
ENDBRANCH  11  13
BRANCH   5  22
HETATM   22  C5  UNK     1       8.493   5.806   7.471  1.00  0.00     0.041 C 
HETATM   23  C12 UNK     1       7.816   7.147   7.655  1.00  0.00     0.010 C 
ENDBRANCH   5  22
TORSDOF 4
ENDMDL
MODEL 7
REMARK VINA RESULT:      -8.1      9.309     14.095
REMARK  4 active torsions:
REMARK  status: ('A' for Active; 'I' for Inactive)
REMARK    1  A    between atoms: C10_14  and  O2_2 
REMARK    2  A    between atoms: C13_17  and  O2_2 
REMARK    3  A    between atoms: C3_7  and  C5_9 
REMARK    4  A    between atoms: C13_17  and  C14_18 
ROOT
HETATM    1  O1  UNK     1      22.428  -6.972  37.582  1.00  0.00    -0.274 OA
HETATM    2  O3  UNK     1      23.532  -8.954  37.674  1.00  0.00    -0.259 OA
HETATM    3  C1  UNK     1      20.076  -8.382  36.877  1.00  0.00    -0.037 A 
HETATM    4  C2  UNK     1      20.067  -6.909  36.997  1.00  0.00     0.005 A 
HETATM    5  C3  UNK     1      21.229  -9.056  37.071  1.00  0.00     0.024 A 
HETATM    6  C4  UNK     1      21.245  -6.255  37.348  1.00  0.00     0.093 A 
HETATM    7  C6  UNK     1      18.936  -6.110  36.769  1.00  0.00     0.017 A 
HETATM    8  C7  UNK     1      22.485  -8.351  37.460  1.00  0.00     0.295 A 
HETATM    9  C8  UNK     1      18.762  -9.047  36.552  1.00  0.00     0.050 C 
HETATM   10  C9  UNK     1      21.323  -4.867  37.484  1.00  0.00     0.075 A 
HETATM   11  C10 UNK     1      20.189  -4.096  37.258  1.00  0.00     0.082 A 
HETATM   12  C11 UNK     1      18.995  -4.717  36.900  1.00  0.00     0.038 A 
ENDROOT
BRANCH  11  13
HETATM   13  O2  UNK     1      20.244  -2.743  37.384  1.00  0.00    -0.275 OA
BRANCH  13  14
HETATM   14  C13 UNK     1      20.220  -2.049  36.171  1.00  0.00     0.298 C 
HETATM   15  O4  UNK     1      21.099  -2.070  35.322  1.00  0.00    -0.259 OA
BRANCH  14  16
HETATM   16  C14 UNK     1      18.963  -1.271  36.022  1.00  0.00     0.039 A 
HETATM   17  C15 UNK     1      18.557  -0.897  34.757  1.00  0.00     0.017 A 
HETATM   18  C17 UNK     1      17.378  -0.166  34.617  1.00  0.00     0.001 A 
HETATM   19  C19 UNK     1      16.630   0.175  35.744  1.00  0.00     0.000 A 
HETATM   20  C18 UNK     1      17.063  -0.214  37.012  1.00  0.00     0.001 A 
HETATM   21  C16 UNK     1      18.242  -0.945  37.151  1.00  0.00     0.017 A 
ENDBRANCH  14  16
ENDBRANCH  13  14
ENDBRANCH  11  13
BRANCH   5  22
HETATM   22  C5  UNK     1      21.392 -10.547  36.918  1.00  0.00     0.041 C 
HETATM   23  C12 UNK     1      21.743 -10.920  35.494  1.00  0.00     0.010 C 
ENDBRANCH   5  22
TORSDOF 4
ENDMDL
MODEL 8
REMARK VINA RESULT:      -8.1     22.049     24.422
REMARK  4 active torsions:
REMARK  status: ('A' for Active; 'I' for Inactive)
REMARK    1  A    between atoms: C10_14  and  O2_2 
REMARK    2  A    between atoms: C13_17  and  O2_2 
REMARK    3  A    between atoms: C3_7  and  C5_9 
REMARK    4  A    between atoms: C13_17  and  C14_18 
ROOT
HETATM    1  O1  UNK     1      13.817   4.944   8.943  1.00  0.00    -0.274 OA
HETATM    2  O3  UNK     1      15.926   4.622   9.718  1.00  0.00    -0.259 OA
HETATM    3  C1  UNK     1      14.294   7.734   8.971  1.00  0.00    -0.037 A 
HETATM    4  C2  UNK     1      12.987   7.194   8.539  1.00  0.00     0.005 A 
HETATM    5  C3  UNK     1      15.256   6.885   9.389  1.00  0.00     0.024 A 
HETATM    6  C4  UNK     1      12.796   5.816   8.539  1.00  0.00     0.093 A 
HETATM    7  C6  UNK     1      11.905   7.991   8.132  1.00  0.00     0.017 A 
HETATM    8  C7  UNK     1      15.049   5.408   9.373  1.00  0.00     0.295 A 
HETATM    9  C8  UNK     1      14.471   9.230   8.898  1.00  0.00     0.050 C 
HETATM   10  C9  UNK     1      11.592   5.224   8.146  1.00  0.00     0.075 A 
HETATM   11  C10 UNK     1      10.537   6.032   7.742  1.00  0.00     0.082 A 
HETATM   12  C11 UNK     1      10.692   7.416   7.736  1.00  0.00     0.038 A 
ENDROOT
BRANCH  11  13
HETATM   13  O2  UNK     1       9.356   5.475   7.356  1.00  0.00    -0.275 OA
BRANCH  13  14
HETATM   14  C13 UNK     1       8.232   6.255   7.640  1.00  0.00     0.298 C 
HETATM   15  O4  UNK     1       7.707   7.051   6.876  1.00  0.00    -0.259 OA
BRANCH  14  16
HETATM   16  C14 UNK     1       7.725   5.988   9.011  1.00  0.00     0.039 A 
HETATM   17  C15 UNK     1       7.462   7.057   9.844  1.00  0.00     0.017 A 
HETATM   18  C17 UNK     1       6.986   6.808  11.130  1.00  0.00     0.001 A 
HETATM   19  C19 UNK     1       6.784   5.495  11.557  1.00  0.00     0.000 A 
HETATM   20  C18 UNK     1       7.058   4.432  10.696  1.00  0.00     0.001 A 
HETATM   21  C16 UNK     1       7.533   4.682   9.409  1.00  0.00     0.017 A 
ENDBRANCH  14  16
ENDBRANCH  13  14
ENDBRANCH  11  13
BRANCH   5  22
HETATM   22  C5  UNK     1      16.606   7.303   9.914  1.00  0.00     0.041 C 
HETATM   23  C12 UNK     1      16.524   7.743  11.360  1.00  0.00     0.010 C 
ENDBRANCH   5  22
TORSDOF 4
ENDMDL
MODEL 9
REMARK VINA RESULT:      -8.1      5.683      8.825
REMARK  4 active torsions:
REMARK  status: ('A' for Active; 'I' for Inactive)
REMARK    1  A    between atoms: C10_14  and  O2_2 
REMARK    2  A    between atoms: C13_17  and  O2_2 
REMARK    3  A    between atoms: C3_7  and  C5_9 
REMARK    4  A    between atoms: C13_17  and  C14_18 
ROOT
HETATM    1  O1  UNK     1      18.180   1.244  32.953  1.00  0.00    -0.274 OA
HETATM    2  O3  UNK     1      17.621   3.038  31.679  1.00  0.00    -0.259 OA
HETATM    3  C1  UNK     1      19.632   0.208  30.754  1.00  0.00    -0.037 A 
HETATM    4  C2  UNK     1      19.561  -0.533  32.031  1.00  0.00     0.005 A 
HETATM    5  C3  UNK     1      18.966   1.375  30.628  1.00  0.00     0.024 A 
HETATM    6  C4  UNK     1      18.838   0.013  33.087  1.00  0.00     0.093 A 
HETATM    7  C6  UNK     1      20.177  -1.776  32.252  1.00  0.00     0.017 A 
HETATM    8  C7  UNK     1      18.203   1.961  31.768  1.00  0.00     0.295 A 
HETATM    9  C8  UNK     1      20.475  -0.397  29.660  1.00  0.00     0.050 C 
HETATM   10  C9  UNK     1      18.722  -0.622  34.327  1.00  0.00     0.075 A 
HETATM   11  C10 UNK     1      19.343  -1.849  34.524  1.00  0.00     0.082 A 
HETATM   12  C11 UNK     1      20.070  -2.427  33.486  1.00  0.00     0.038 A 
ENDROOT
BRANCH  11  13
HETATM   13  O2  UNK     1      19.241  -2.484  35.723  1.00  0.00    -0.275 OA
BRANCH  13  14
HETATM   14  C13 UNK     1      20.454  -2.961  36.228  1.00  0.00     0.298 C 
HETATM   15  O4  UNK     1      21.523  -2.370  36.186  1.00  0.00    -0.259 OA
BRANCH  14  16
HETATM   16  C14 UNK     1      20.288  -4.301  36.848  1.00  0.00     0.039 A 
HETATM   17  C15 UNK     1      21.213  -4.722  37.782  1.00  0.00     0.017 A 
HETATM   18  C17 UNK     1      21.057  -5.979  38.365  1.00  0.00     0.001 A 
HETATM   19  C19 UNK     1      19.982  -6.789  37.999  1.00  0.00     0.000 A 
HETATM   20  C18 UNK     1      19.062  -6.341  37.051  1.00  0.00     0.001 A 
HETATM   21  C16 UNK     1      19.217  -5.083  36.470  1.00  0.00     0.017 A 
ENDBRANCH  14  16
ENDBRANCH  13  14
ENDBRANCH  11  13
BRANCH   5  22
HETATM   22  C5  UNK     1      18.900   2.198  29.367  1.00  0.00     0.041 C 
HETATM   23  C12 UNK     1      17.775   1.738  28.465  1.00  0.00     0.010 C 
ENDBRANCH   5  22
TORSDOF 4
ENDMDL
MODEL 10
REMARK VINA RESULT:      -8.1      2.066      8.345
REMARK  4 active torsions:
REMARK  status: ('A' for Active; 'I' for Inactive)
REMARK    1  A    between atoms: C10_14  and  O2_2 
REMARK    2  A    between atoms: C13_17  and  O2_2 
REMARK    3  A    between atoms: C3_7  and  C5_9 
REMARK    4  A    between atoms: C13_17  and  C14_18 
ROOT
HETATM    1  O1  UNK     1      19.805   1.028  29.347  1.00  0.00    -0.274 OA
HETATM    2  O3  UNK     1      20.545  -0.973  28.571  1.00  0.00    -0.259 OA
HETATM    3  C1  UNK     1      19.110  -0.239  31.782  1.00  0.00    -0.037 A 
HETATM    4  C2  UNK     1      18.866   1.205  31.584  1.00  0.00     0.005 A 
HETATM    5  C3  UNK     1      19.638  -0.966  30.775  1.00  0.00     0.024 A 
HETATM    6  C4  UNK     1      19.224   1.788  30.373  1.00  0.00     0.093 A 
HETATM    7  C6  UNK     1      18.279   2.040  32.548  1.00  0.00     0.017 A 
HETATM    8  C7  UNK     1      20.032  -0.332  29.483  1.00  0.00     0.295 A 
HETATM    9  C8  UNK     1      18.758  -0.812  33.132  1.00  0.00     0.050 C 
HETATM   10  C9  UNK     1      19.028   3.146  30.105  1.00  0.00     0.075 A 
HETATM   11  C10 UNK     1      18.450   3.955  31.075  1.00  0.00     0.082 A 
HETATM   12  C11 UNK     1      18.074   3.402  32.297  1.00  0.00     0.038 A 
ENDROOT
BRANCH  11  13
HETATM   13  O2  UNK     1      18.250   5.279  30.833  1.00  0.00    -0.275 OA
BRANCH  13  14
HETATM   14  C13 UNK     1      19.292   6.107  31.260  1.00  0.00     0.298 C 
HETATM   15  O4  UNK     1      20.405   6.166  30.757  1.00  0.00    -0.259 OA
BRANCH  14  16
HETATM   16  C14 UNK     1      18.878   6.938  32.419  1.00  0.00     0.039 A 
HETATM   17  C15 UNK     1      19.782   7.157  33.439  1.00  0.00     0.017 A 
HETATM   18  C17 UNK     1      19.394   7.938  34.527  1.00  0.00     0.001 A 
HETATM   19  C19 UNK     1      18.110   8.482  34.573  1.00  0.00     0.000 A 
HETATM   20  C18 UNK     1      17.215   8.245  33.529  1.00  0.00     0.001 A 
HETATM   21  C16 UNK     1      17.604   7.465  32.441  1.00  0.00     0.017 A 
ENDBRANCH  14  16
ENDBRANCH  13  14
ENDBRANCH  11  13
BRANCH   5  22
HETATM   22  C5  UNK     1      19.879  -2.453  30.819  1.00  0.00     0.041 C 
HETATM   23  C12 UNK     1      20.955  -2.809  31.822  1.00  0.00     0.010 C 
ENDBRANCH   5  22
TORSDOF 4
ENDMDL
