MODEL 1
REMARK VINA RESULT:      -8.2      0.000      0.000
REMARK  4 active torsions:
REMARK  status: ('A' for Active; 'I' for Inactive)
REMARK    1  A    between atoms: C8_13  and  O2_2 
REMARK    2  A    between atoms: C14_19  and  O4_4 
REMARK    3  A    between atoms: C11_16  and  O5_5 
REMARK    4  A    between atoms: C5_10  and  C6_11 
ROOT
HETATM    1  O1  UNK     1      19.412   2.113  31.083  1.00  0.00    -0.306 OA
HETATM    2  O3  UNK     1      17.935   2.367  27.874  1.00  0.00    -0.284 OA
HETATM    3  C1  UNK     1      19.083   0.762  29.239  1.00  0.00     0.051 A 
HETATM    4  C2  UNK     1      18.737   2.857  30.121  1.00  0.00     0.128 A 
HETATM    5  C3  UNK     1      19.603   0.869  30.527  1.00  0.00     0.093 A 
HETATM    6  C4  UNK     1      18.490   2.050  28.901  1.00  0.00     0.218 A 
HETATM    7  C6  UNK     1      18.362   4.128  30.271  1.00  0.00     0.055 C 
HETATM    8  C7  UNK     1      19.164  -0.400  28.501  1.00  0.00     0.021 A 
HETATM    9  C9  UNK     1      20.233  -0.196  31.134  1.00  0.00     0.074 A 
HETATM   10  C11 UNK     1      20.331  -1.387  30.406  1.00  0.00     0.068 A 
HETATM   11  C12 UNK     1      19.801  -1.488  29.103  1.00  0.00     0.037 A 
ENDROOT
BRANCH   7  12
HETATM   12  C5  UNK     1      18.589   4.962  31.466  1.00  0.00     0.000 A 
HETATM   13  C10 UNK     1      17.640   4.935  32.475  1.00  0.00     0.017 A 
HETATM   14  C15 UNK     1      17.833   5.715  33.616  1.00  0.00     0.038 A 
HETATM   15  C14 UNK     1      18.973   6.511  33.732  1.00  0.00     0.070 A 
HETATM   16  C13 UNK     1      19.920   6.527  32.708  1.00  0.00     0.074 A 
HETATM   17  C8  UNK     1      19.727   5.748  31.567  1.00  0.00     0.081 A 
BRANCH  15  18
HETATM   18  O4  UNK     1      19.161   7.272  34.845  1.00  0.00    -0.356 OA
HETATM   19  C17 UNK     1      19.714   8.574  34.655  1.00  0.00     0.210 C 
ENDBRANCH  15  18
BRANCH  17  20
HETATM   20  O2  UNK     1      20.668   5.781  30.580  1.00  0.00    -0.355 OA
HETATM   21  C16 UNK     1      22.030   5.855  30.989  1.00  0.00     0.210 C 
ENDBRANCH  17  20
ENDBRANCH   7  12
BRANCH  10  22
HETATM   22  O5  UNK     1      20.946  -2.467  30.964  1.00  0.00    -0.361 OA
HETATM   23  H11 UNK     1      20.801  -3.242  30.394  1.00  0.00     0.217 HD
ENDBRANCH  10  22
TORSDOF 4
ENDMDL
MODEL 2
REMARK VINA RESULT:      -8.1     12.999     17.081
REMARK  4 active torsions:
REMARK  status: ('A' for Active; 'I' for Inactive)
REMARK    1  A    between atoms: C8_13  and  O2_2 
REMARK    2  A    between atoms: C14_19  and  O4_4 
REMARK    3  A    between atoms: C11_16  and  O5_5 
REMARK    4  A    between atoms: C5_10  and  C6_11 
ROOT
HETATM    1  O1  UNK     1      19.178  -0.609  17.199  1.00  0.00    -0.306 OA
HETATM    2  O3  UNK     1      19.127   2.474  15.457  1.00  0.00    -0.284 OA
HETATM    3  C1  UNK     1      19.169   1.644  17.708  1.00  0.00     0.051 A 
HETATM    4  C2  UNK     1      19.154   0.101  16.003  1.00  0.00     0.128 A 
HETATM    5  C3  UNK     1      19.187   0.339  18.196  1.00  0.00     0.093 A 
HETATM    6  C4  UNK     1      19.146   1.563  16.253  1.00  0.00     0.218 A 
HETATM    7  C6  UNK     1      19.139  -0.456  14.792  1.00  0.00     0.055 C 
HETATM    8  C7  UNK     1      19.175   2.746  18.537  1.00  0.00     0.021 A 
HETATM    9  C9  UNK     1      19.211   0.083  19.550  1.00  0.00     0.074 A 
HETATM   10  C11 UNK     1      19.217   1.184  20.414  1.00  0.00     0.068 A 
HETATM   11  C12 UNK     1      19.199   2.502  19.912  1.00  0.00     0.037 A 
ENDROOT
BRANCH   7  12
HETATM   12  C5  UNK     1      19.146  -1.903  14.504  1.00  0.00     0.000 A 
HETATM   13  C10 UNK     1      18.106  -2.675  14.996  1.00  0.00     0.017 A 
HETATM   14  C15 UNK     1      18.090  -4.046  14.736  1.00  0.00     0.038 A 
HETATM   15  C14 UNK     1      19.115  -4.625  13.987  1.00  0.00     0.070 A 
HETATM   16  C13 UNK     1      20.154  -3.835  13.499  1.00  0.00     0.074 A 
HETATM   17  C8  UNK     1      20.170  -2.465  13.759  1.00  0.00     0.081 A 
BRANCH  15  18
HETATM   18  O4  UNK     1      19.099  -5.963  13.734  1.00  0.00    -0.356 OA
HETATM   19  C17 UNK     1      17.821  -6.590  13.637  1.00  0.00     0.210 C 
ENDBRANCH  15  18
BRANCH  17  20
HETATM   20  O2  UNK     1      21.198  -1.714  13.269  1.00  0.00    -0.355 OA
HETATM   21  C16 UNK     1      21.140  -1.359  11.890  1.00  0.00     0.210 C 
ENDBRANCH  17  20
ENDBRANCH   7  12
BRANCH  10  22
HETATM   22  O5  UNK     1      19.241   0.981  21.761  1.00  0.00    -0.361 OA
HETATM   23  H11 UNK     1      18.529   0.363  22.000  1.00  0.00     0.217 HD
ENDBRANCH  10  22
TORSDOF 4
ENDMDL
MODEL 3
REMARK VINA RESULT:      -8.0      7.534     10.059
REMARK  4 active torsions:
REMARK  status: ('A' for Active; 'I' for Inactive)
REMARK    1  A    between atoms: C8_13  and  O2_2 
REMARK    2  A    between atoms: C14_19  and  O4_4 
REMARK    3  A    between atoms: C11_16  and  O5_5 
REMARK    4  A    between atoms: C5_10  and  C6_11 
ROOT
HETATM    1  O1  UNK     1      19.449  -5.282  37.100  1.00  0.00    -0.306 OA
HETATM    2  O3  UNK     1      22.752  -5.013  38.347  1.00  0.00    -0.284 OA
HETATM    3  C1  UNK     1      20.989  -6.631  38.170  1.00  0.00     0.051 A 
HETATM    4  C2  UNK     1      20.599  -4.531  37.316  1.00  0.00     0.128 A 
HETATM    5  C3  UNK     1      19.713  -6.528  37.620  1.00  0.00     0.093 A 
HETATM    6  C4  UNK     1      21.638  -5.336  38.003  1.00  0.00     0.218 A 
HETATM    7  C6  UNK     1      20.751  -3.257  36.955  1.00  0.00     0.055 C 
HETATM    8  C7  UNK     1      21.458  -7.794  38.743  1.00  0.00     0.021 A 
HETATM    9  C9  UNK     1      18.846  -7.600  37.623  1.00  0.00     0.074 A 
HETATM   10  C11 UNK     1      19.297  -8.792  38.200  1.00  0.00     0.068 A 
HETATM   11  C12 UNK     1      20.590  -8.887  38.754  1.00  0.00     0.037 A 
ENDROOT
BRANCH   7  12
HETATM   12  C5  UNK     1      19.744  -2.425  36.271  1.00  0.00     0.000 A 
HETATM   13  C10 UNK     1      18.636  -2.009  36.992  1.00  0.00     0.017 A 
HETATM   14  C15 UNK     1      17.669  -1.221  36.368  1.00  0.00     0.038 A 
HETATM   15  C14 UNK     1      17.824  -0.858  35.029  1.00  0.00     0.070 A 
HETATM   16  C13 UNK     1      18.944  -1.284  34.317  1.00  0.00     0.074 A 
HETATM   17  C8  UNK     1      19.910  -2.072  34.941  1.00  0.00     0.081 A 
BRANCH  15  18
HETATM   18  O4  UNK     1      16.881  -0.089  34.420  1.00  0.00    -0.356 OA
HETATM   19  C17 UNK     1      15.725   0.251  35.186  1.00  0.00     0.210 C 
ENDBRANCH  15  18
BRANCH  17  20
HETATM   20  O2  UNK     1      20.997  -2.475  34.221  1.00  0.00    -0.355 OA
HETATM   21  C16 UNK     1      20.855  -2.515  32.805  1.00  0.00     0.210 C 
ENDBRANCH  17  20
ENDBRANCH   7  12
BRANCH  10  22
HETATM   22  O5  UNK     1      18.475  -9.879  38.227  1.00  0.00    -0.361 OA
HETATM   23  H11 UNK     1      17.931  -9.883  37.420  1.00  0.00     0.217 HD
ENDBRANCH  10  22
TORSDOF 4
ENDMDL
MODEL 4
REMARK VINA RESULT:      -7.9      2.993      8.215
REMARK  4 active torsions:
REMARK  status: ('A' for Active; 'I' for Inactive)
REMARK    1  A    between atoms: C8_13  and  O2_2 
REMARK    2  A    between atoms: C14_19  and  O4_4 
REMARK    3  A    between atoms: C11_16  and  O5_5 
REMARK    4  A    between atoms: C5_10  and  C6_11 
ROOT
HETATM    1  O1  UNK     1      16.563   6.708  32.380  1.00  0.00    -0.306 OA
HETATM    2  O3  UNK     1      18.624   7.647  35.103  1.00  0.00    -0.284 OA
HETATM    3  C1  UNK     1      16.552   8.282  34.071  1.00  0.00     0.051 A 
HETATM    4  C2  UNK     1      17.713   6.528  33.141  1.00  0.00     0.128 A 
HETATM    5  C3  UNK     1      15.892   7.760  32.961  1.00  0.00     0.093 A 
HETATM    6  C4  UNK     1      17.776   7.510  34.251  1.00  0.00     0.218 A 
HETATM    7  C6  UNK     1      18.640   5.599  32.905  1.00  0.00     0.055 C 
HETATM    8  C7  UNK     1      16.053   9.339  34.802  1.00  0.00     0.021 A 
HETATM    9  C9  UNK     1      14.691   8.283  32.533  1.00  0.00     0.074 A 
HETATM   10  C11 UNK     1      14.162   9.358  33.256  1.00  0.00     0.068 A 
HETATM   11  C12 UNK     1      14.836   9.880  34.379  1.00  0.00     0.037 A 
ENDROOT
BRANCH   7  12
HETATM   12  C5  UNK     1      18.614   4.608  31.813  1.00  0.00     0.000 A 
HETATM   13  C10 UNK     1      18.988   5.018  30.544  1.00  0.00     0.017 A 
HETATM   14  C15 UNK     1      18.972   4.099  29.495  1.00  0.00     0.038 A 
HETATM   15  C14 UNK     1      18.581   2.780  29.730  1.00  0.00     0.070 A 
HETATM   16  C13 UNK     1      18.208   2.382  31.013  1.00  0.00     0.074 A 
HETATM   17  C8  UNK     1      18.223   3.301  32.061  1.00  0.00     0.081 A 
BRANCH  15  18
HETATM   18  O4  UNK     1      18.566   1.883  28.706  1.00  0.00    -0.356 OA
HETATM   19  C17 UNK     1      19.272   0.659  28.905  1.00  0.00     0.210 C 
ENDBRANCH  15  18
BRANCH  17  20
HETATM   20  O2  UNK     1      17.853   2.886  33.307  1.00  0.00    -0.355 OA
HETATM   21  C16 UNK     1      18.208   1.556  33.676  1.00  0.00     0.210 C 
ENDBRANCH  17  20
ENDBRANCH   7  12
BRANCH  10  22
HETATM   22  O5  UNK     1      12.977   9.909  32.871  1.00  0.00    -0.361 OA
HETATM   23  H11 UNK     1      12.341   9.195  32.690  1.00  0.00     0.217 HD
ENDBRANCH  10  22
TORSDOF 4
ENDMDL
MODEL 5
REMARK VINA RESULT:      -7.8      3.454      4.574
REMARK  4 active torsions:
REMARK  status: ('A' for Active; 'I' for Inactive)
REMARK    1  A    between atoms: C8_13  and  O2_2 
REMARK    2  A    between atoms: C14_19  and  O4_4 
REMARK    3  A    between atoms: C11_16  and  O5_5 
REMARK    4  A    between atoms: C5_10  and  C6_11 
ROOT
HETATM    1  O1  UNK     1      18.286   3.519  34.576  1.00  0.00    -0.306 OA
HETATM    2  O3  UNK     1      18.284   1.625  31.583  1.00  0.00    -0.284 OA
HETATM    3  C1  UNK     1      18.252   1.293  33.959  1.00  0.00     0.051 A 
HETATM    4  C2  UNK     1      18.300   3.458  33.187  1.00  0.00     0.128 A 
HETATM    5  C3  UNK     1      18.257   2.211  35.006  1.00  0.00     0.093 A 
HETATM    6  C4  UNK     1      18.280   2.052  32.715  1.00  0.00     0.218 A 
HETATM    7  C6  UNK     1      18.329   4.521  32.382  1.00  0.00     0.055 C 
HETATM    8  C7  UNK     1      18.223  -0.070  34.169  1.00  0.00     0.021 A 
HETATM    9  C9  UNK     1      18.234   1.797  36.320  1.00  0.00     0.074 A 
HETATM   10  C11 UNK     1      18.205   0.419  36.561  1.00  0.00     0.068 A 
HETATM   11  C12 UNK     1      18.200  -0.504  35.496  1.00  0.00     0.037 A 
ENDROOT
BRANCH   7  12
HETATM   12  C5  UNK     1      18.350   5.932  32.813  1.00  0.00     0.000 A 
HETATM   13  C10 UNK     1      19.548   6.465  33.258  1.00  0.00     0.017 A 
HETATM   14  C15 UNK     1      19.593   7.797  33.669  1.00  0.00     0.038 A 
HETATM   15  C14 UNK     1      18.438   8.579  33.630  1.00  0.00     0.070 A 
HETATM   16  C13 UNK     1      17.239   8.028  33.179  1.00  0.00     0.074 A 
HETATM   17  C8  UNK     1      17.194   6.696  32.768  1.00  0.00     0.081 A 
BRANCH  15  18
HETATM   18  O4  UNK     1      18.482   9.878  34.032  1.00  0.00    -0.356 OA
HETATM   19  C17 UNK     1      17.244  10.586  34.079  1.00  0.00     0.210 C 
ENDBRANCH  15  18
BRANCH  17  20
HETATM   20  O2  UNK     1      16.009   6.182  32.331  1.00  0.00    -0.355 OA
HETATM   21  C16 UNK     1      14.981   7.114  32.005  1.00  0.00     0.210 C 
ENDBRANCH  17  20
ENDBRANCH   7  12
BRANCH  10  22
HETATM   22  O5  UNK     1      18.182  -0.039  37.844  1.00  0.00    -0.361 OA
HETATM   23  H11 UNK     1      18.390  -0.989  37.844  1.00  0.00     0.217 HD
ENDBRANCH  10  22
TORSDOF 4
ENDMDL
MODEL 6
REMARK VINA RESULT:      -7.8     12.833     17.023
REMARK  4 active torsions:
REMARK  status: ('A' for Active; 'I' for Inactive)
REMARK    1  A    between atoms: C8_13  and  O2_2 
REMARK    2  A    between atoms: C14_19  and  O4_4 
REMARK    3  A    between atoms: C11_16  and  O5_5 
REMARK    4  A    between atoms: C5_10  and  C6_11 
ROOT
HETATM    1  O1  UNK     1      19.374  -0.601  17.011  1.00  0.00    -0.306 OA
HETATM    2  O3  UNK     1      19.055   2.599  15.526  1.00  0.00    -0.284 OA
HETATM    3  C1  UNK     1      19.231   1.599  17.700  1.00  0.00     0.051 A 
HETATM    4  C2  UNK     1      19.261   0.198  15.878  1.00  0.00     0.128 A 
HETATM    5  C3  UNK     1      19.353   0.265  18.081  1.00  0.00     0.093 A 
HETATM    6  C4  UNK     1      19.163   1.632  16.245  1.00  0.00     0.218 A 
HETATM    7  C6  UNK     1      19.242  -0.261  14.626  1.00  0.00     0.055 C 
HETATM    8  C7  UNK     1      19.191   2.630  18.615  1.00  0.00     0.021 A 
HETATM    9  C9  UNK     1      19.442  -0.094  19.408  1.00  0.00     0.074 A 
HETATM   10  C11 UNK     1      19.404   0.933  20.357  1.00  0.00     0.068 A 
HETATM   11  C12 UNK     1      19.280   2.281  19.965  1.00  0.00     0.037 A 
ENDROOT
BRANCH   7  12
HETATM   12  C5  UNK     1      19.336  -1.677  14.222  1.00  0.00     0.000 A 
HETATM   13  C10 UNK     1      20.469  -2.090  13.538  1.00  0.00     0.017 A 
HETATM   14  C15 UNK     1      20.582  -3.424  13.146  1.00  0.00     0.038 A 
HETATM   15  C14 UNK     1      19.561  -4.327  13.443  1.00  0.00     0.070 A 
HETATM   16  C13 UNK     1      18.428  -3.896  14.132  1.00  0.00     0.074 A 
HETATM   17  C8  UNK     1      18.314  -2.562  14.524  1.00  0.00     0.081 A 
BRANCH  15  18
HETATM   18  O4  UNK     1      19.672  -5.629  13.060  1.00  0.00    -0.356 OA
HETATM   19  C17 UNK     1      20.527  -6.464  13.839  1.00  0.00     0.210 C 
ENDBRANCH  15  18
BRANCH  17  20
HETATM   20  O2  UNK     1      17.195  -2.167  15.196  1.00  0.00    -0.355 OA
HETATM   21  C16 UNK     1      16.890  -2.858  16.404  1.00  0.00     0.210 C 
ENDBRANCH  17  20
ENDBRANCH   7  12
BRANCH  10  22
HETATM   22  O5  UNK     1      19.488   0.626  21.683  1.00  0.00    -0.361 OA
HETATM   23  H11 UNK     1      18.998   1.295  22.193  1.00  0.00     0.217 HD
ENDBRANCH  10  22
TORSDOF 4
ENDMDL
MODEL 7
REMARK VINA RESULT:      -7.7      2.982      8.054
REMARK  4 active torsions:
REMARK  status: ('A' for Active; 'I' for Inactive)
REMARK    1  A    between atoms: C8_13  and  O2_2 
REMARK    2  A    between atoms: C14_19  and  O4_4 
REMARK    3  A    between atoms: C11_16  and  O5_5 
REMARK    4  A    between atoms: C5_10  and  C6_11 
ROOT
HETATM    1  O1  UNK     1      16.443   6.567  32.832  1.00  0.00    -0.306 OA
HETATM    2  O3  UNK     1      18.472   7.911  35.404  1.00  0.00    -0.284 OA
HETATM    3  C1  UNK     1      16.426   8.394  34.246  1.00  0.00     0.051 A 
HETATM    4  C2  UNK     1      17.578   6.500  33.632  1.00  0.00     0.128 A 
HETATM    5  C3  UNK     1      15.777   7.707  33.223  1.00  0.00     0.093 A 
HETATM    6  C4  UNK     1      17.636   7.647  34.571  1.00  0.00     0.218 A 
HETATM    7  C6  UNK     1      18.496   5.535  33.566  1.00  0.00     0.055 C 
HETATM    8  C7  UNK     1      15.930   9.560  34.788  1.00  0.00     0.021 A 
HETATM    9  C9  UNK     1      14.590   8.167  32.695  1.00  0.00     0.074 A 
HETATM   10  C11 UNK     1      14.065   9.350  33.226  1.00  0.00     0.068 A 
HETATM   11  C12 UNK     1      14.728  10.039  34.262  1.00  0.00     0.037 A 
ENDROOT
BRANCH   7  12
HETATM   12  C5  UNK     1      18.473   4.381  32.648  1.00  0.00     0.000 A 
HETATM   13  C10 UNK     1      18.216   3.126  33.177  1.00  0.00     0.017 A 
HETATM   14  C15 UNK     1      18.188   2.019  32.330  1.00  0.00     0.038 A 
HETATM   15  C14 UNK     1      18.418   2.181  30.963  1.00  0.00     0.070 A 
HETATM   16  C13 UNK     1      18.675   3.450  30.445  1.00  0.00     0.074 A 
HETATM   17  C8  UNK     1      18.703   4.557  31.293  1.00  0.00     0.081 A 
BRANCH  15  18
HETATM   18  O4  UNK     1      18.392   1.101  30.136  1.00  0.00    -0.356 OA
HETATM   19  C17 UNK     1      18.134   1.347  28.754  1.00  0.00     0.210 C 
ENDBRANCH  15  18
BRANCH  17  20
HETATM   20  O2  UNK     1      18.956   5.787  30.761  1.00  0.00    -0.355 OA
HETATM   21  C16 UNK     1      20.235   5.982  30.163  1.00  0.00     0.210 C 
ENDBRANCH  17  20
ENDBRANCH   7  12
BRANCH  10  22
HETATM   22  O5  UNK     1      12.893   9.845  32.735  1.00  0.00    -0.361 OA
HETATM   23  H11 UNK     1      12.627   9.317  31.962  1.00  0.00     0.217 HD
ENDBRANCH  10  22
TORSDOF 4
ENDMDL
MODEL 8
REMARK VINA RESULT:      -7.6      2.528      3.077
REMARK  4 active torsions:
REMARK  status: ('A' for Active; 'I' for Inactive)
REMARK    1  A    between atoms: C8_13  and  O2_2 
REMARK    2  A    between atoms: C14_19  and  O4_4 
REMARK    3  A    between atoms: C11_16  and  O5_5 
REMARK    4  A    between atoms: C5_10  and  C6_11 
ROOT
HETATM    1  O1  UNK     1      17.937   3.022  33.282  1.00  0.00    -0.306 OA
HETATM    2  O3  UNK     1      19.014   2.648  29.929  1.00  0.00    -0.284 OA
HETATM    3  C1  UNK     1      18.680   1.324  31.902  1.00  0.00     0.051 A 
HETATM    4  C2  UNK     1      18.205   3.571  32.032  1.00  0.00     0.128 A 
HETATM    5  C3  UNK     1      18.230   1.682  33.171  1.00  0.00     0.093 A 
HETATM    6  C4  UNK     1      18.689   2.534  31.089  1.00  0.00     0.218 A 
HETATM    7  C6  UNK     1      18.049   4.858  31.721  1.00  0.00     0.055 C 
HETATM    8  C7  UNK     1      19.026   0.030  31.575  1.00  0.00     0.021 A 
HETATM    9  C9  UNK     1      18.109   0.746  34.176  1.00  0.00     0.074 A 
HETATM   10  C11 UNK     1      18.455  -0.575  33.871  1.00  0.00     0.068 A 
HETATM   11  C12 UNK     1      18.909  -0.929  32.584  1.00  0.00     0.037 A 
ENDROOT
BRANCH   7  12
HETATM   12  C5  UNK     1      17.571   5.917  32.630  1.00  0.00     0.000 A 
HETATM   13  C10 UNK     1      16.273   6.376  32.478  1.00  0.00     0.017 A 
HETATM   14  C15 UNK     1      15.797   7.375  33.326  1.00  0.00     0.038 A 
HETATM   15  C14 UNK     1      16.627   7.904  34.316  1.00  0.00     0.070 A 
HETATM   16  C13 UNK     1      17.932   7.431  34.457  1.00  0.00     0.074 A 
HETATM   17  C8  UNK     1      18.407   6.431  33.609  1.00  0.00     0.081 A 
BRANCH  15  18
HETATM   18  O4  UNK     1      16.163   8.880  35.143  1.00  0.00    -0.356 OA
HETATM   19  C17 UNK     1      14.945   9.522  34.771  1.00  0.00     0.210 C 
ENDBRANCH  15  18
BRANCH  17  20
HETATM   20  O2  UNK     1      19.687   5.987  33.768  1.00  0.00    -0.355 OA
HETATM   21  C16 UNK     1      20.703   6.664  33.034  1.00  0.00     0.210 C 
ENDBRANCH  17  20
ENDBRANCH   7  12
BRANCH  10  22
HETATM   22  O5  UNK     1      18.353  -1.536  34.832  1.00  0.00    -0.361 OA
HETATM   23  H11 UNK     1      18.490  -1.126  35.704  1.00  0.00     0.217 HD
ENDBRANCH  10  22
TORSDOF 4
ENDMDL
MODEL 9
REMARK VINA RESULT:      -7.6      3.393      4.228
REMARK  4 active torsions:
REMARK  status: ('A' for Active; 'I' for Inactive)
REMARK    1  A    between atoms: C8_13  and  O2_2 
REMARK    2  A    between atoms: C14_19  and  O4_4 
REMARK    3  A    between atoms: C11_16  and  O5_5 
REMARK    4  A    between atoms: C5_10  and  C6_11 
ROOT
HETATM    1  O1  UNK     1      18.121   3.574  34.490  1.00  0.00    -0.306 OA
HETATM    2  O3  UNK     1      18.408   1.538  31.607  1.00  0.00    -0.284 OA
HETATM    3  C1  UNK     1      18.281   1.324  33.993  1.00  0.00     0.051 A 
HETATM    4  C2  UNK     1      18.208   3.445  33.108  1.00  0.00     0.128 A 
HETATM    5  C3  UNK     1      18.166   2.292  34.988  1.00  0.00     0.093 A 
HETATM    6  C4  UNK     1      18.315   2.020  32.713  1.00  0.00     0.218 A 
HETATM    7  C6  UNK     1      18.199   4.466  32.250  1.00  0.00     0.055 C 
HETATM    8  C7  UNK     1      18.341  -0.025  34.274  1.00  0.00     0.021 A 
HETATM    9  C9  UNK     1      18.107   1.943  36.320  1.00  0.00     0.074 A 
HETATM   10  C11 UNK     1      18.168   0.581  36.633  1.00  0.00     0.068 A 
HETATM   11  C12 UNK     1      18.283  -0.393  35.620  1.00  0.00     0.037 A 
ENDROOT
BRANCH   7  12
HETATM   12  C5  UNK     1      18.095   5.894  32.604  1.00  0.00     0.000 A 
HETATM   13  C10 UNK     1      16.884   6.535  32.398  1.00  0.00     0.017 A 
HETATM   14  C15 UNK     1      16.760   7.884  32.727  1.00  0.00     0.038 A 
HETATM   15  C14 UNK     1      17.849   8.576  33.257  1.00  0.00     0.070 A 
HETATM   16  C13 UNK     1      19.062   7.918  33.459  1.00  0.00     0.074 A 
HETATM   17  C8  UNK     1      19.186   6.568  33.130  1.00  0.00     0.081 A 
BRANCH  15  18
HETATM   18  O4  UNK     1      17.728   9.894  33.577  1.00  0.00    -0.356 OA
HETATM   19  C17 UNK     1      16.440  10.345  33.994  1.00  0.00     0.210 C 
ENDBRANCH  15  18
BRANCH  17  20
HETATM   20  O2  UNK     1      20.382   5.947  33.338  1.00  0.00    -0.355 OA
HETATM   21  C16 UNK     1      21.483   6.382  32.544  1.00  0.00     0.210 C 
ENDBRANCH  17  20
ENDBRANCH   7  12
BRANCH  10  22
HETATM   22  O5  UNK     1      18.114   0.188  37.937  1.00  0.00    -0.361 OA
HETATM   23  H11 UNK     1      18.483  -0.709  38.011  1.00  0.00     0.217 HD
ENDBRANCH  10  22
TORSDOF 4
ENDMDL
MODEL 10
REMARK VINA RESULT:      -7.5      7.591     11.387
REMARK  4 active torsions:
REMARK  status: ('A' for Active; 'I' for Inactive)
REMARK    1  A    between atoms: C8_13  and  O2_2 
REMARK    2  A    between atoms: C14_19  and  O4_4 
REMARK    3  A    between atoms: C11_16  and  O5_5 
REMARK    4  A    between atoms: C5_10  and  C6_11 
ROOT
HETATM    1  O1  UNK     1      18.868  -2.626  37.198  1.00  0.00    -0.306 OA
HETATM    2  O3  UNK     1      20.238  -2.059  33.982  1.00  0.00    -0.284 OA
HETATM    3  C1  UNK     1      18.959  -0.909  35.655  1.00  0.00     0.051 A 
HETATM    4  C2  UNK     1      19.590  -3.075  36.097  1.00  0.00     0.128 A 
HETATM    5  C3  UNK     1      18.507  -1.331  36.903  1.00  0.00     0.093 A 
HETATM    6  C4  UNK     1      19.690  -2.021  35.059  1.00  0.00     0.218 A 
HETATM    7  C6  UNK     1      20.121  -4.293  35.986  1.00  0.00     0.055 C 
HETATM    8  C7  UNK     1      18.709   0.355  35.164  1.00  0.00     0.021 A 
HETATM    9  C9  UNK     1      17.776  -0.493  37.718  1.00  0.00     0.074 A 
HETATM   10  C11 UNK     1      17.508   0.795  37.243  1.00  0.00     0.068 A 
HETATM   11  C12 UNK     1      17.969   1.215  35.979  1.00  0.00     0.037 A 
ENDROOT
BRANCH   7  12
HETATM   12  C5  UNK     1      20.043  -5.367  36.995  1.00  0.00     0.000 A 
HETATM   13  C10 UNK     1      21.050  -5.451  37.943  1.00  0.00     0.017 A 
HETATM   14  C15 UNK     1      20.998  -6.457  38.908  1.00  0.00     0.038 A 
HETATM   15  C14 UNK     1      19.940  -7.366  38.912  1.00  0.00     0.070 A 
HETATM   16  C13 UNK     1      18.934  -7.268  37.951  1.00  0.00     0.074 A 
HETATM   17  C8  UNK     1      18.986  -6.262  36.986  1.00  0.00     0.081 A 
BRANCH  15  18
HETATM   18  O4  UNK     1      19.889  -8.348  39.853  1.00  0.00    -0.356 OA
HETATM   19  C17 UNK     1      19.926  -9.696  39.387  1.00  0.00     0.210 C 
ENDBRANCH  15  18
BRANCH  17  20
HETATM   20  O2  UNK     1      17.989  -6.189  36.058  1.00  0.00    -0.355 OA
HETATM   21  C16 UNK     1      17.624  -7.401  35.404  1.00  0.00     0.210 C 
ENDBRANCH  17  20
ENDBRANCH   7  12
BRANCH  10  22
HETATM   22  O5  UNK     1      16.788   1.659  38.014  1.00  0.00    -0.361 OA
HETATM   23  H11 UNK     1      17.226   1.750  38.878  1.00  0.00     0.217 HD
ENDBRANCH  10  22
TORSDOF 4
ENDMDL
