MODEL 1
REMARK VINA RESULT:      -8.4      0.000      0.000
REMARK  6 active torsions:
REMARK  status: ('A' for Active; 'I' for Inactive)
REMARK    1  A    between atoms: C10_14  and  O1_1 
REMARK    2  A    between atoms: C2_6  and  O1_1 
REMARK    3  A    between atoms: C1_5  and  C5_9 
REMARK    4  A    between atoms: C1_5  and  C7_11 
REMARK    5  A    between atoms: C13_17  and  C7_11 
REMARK    6  A    between atoms: C10_14  and  C11_15 
ROOT
HETATM    1  O2  UNK     1      17.722   0.195  35.830  1.00  0.00    -0.319 OA
HETATM    2  O3  UNK     1      18.884   0.680  31.158  1.00  0.00    -0.272 OA
HETATM    3  O4  UNK     1      19.491   0.820  28.954  1.00  0.00    -0.260 OA
HETATM    4  C2  UNK     1      18.250   0.540  33.462  1.00  0.00     0.138 A 
HETATM    5  C3  UNK     1      18.310  -0.169  34.654  1.00  0.00     0.121 A 
HETATM    6  C4  UNK     1      18.993  -1.371  34.810  1.00  0.00     0.003 A 
HETATM    7  C6  UNK     1      18.930  -0.023  32.385  1.00  0.00     0.126 A 
HETATM    8  C8  UNK     1      19.632  -1.225  32.479  1.00  0.00     0.002 A 
HETATM    9  C9  UNK     1      19.671  -1.915  33.701  1.00  0.00     0.028 A 
HETATM   10  C12 UNK     1      18.802  -1.750  36.165  1.00  0.00     0.039 A 
HETATM   11  C15 UNK     1      20.313  -1.732  31.300  1.00  0.00     0.020 A 
HETATM   12  C16 UNK     1      18.026  -0.768  36.737  1.00  0.00     0.143 A 
HETATM   13  C18 UNK     1      20.263  -1.060  30.147  1.00  0.00     0.083 A 
HETATM   14  C19 UNK     1      19.528   0.212  30.018  1.00  0.00     0.288 A 
ENDROOT
BRANCH   4  15
HETATM   15  O1  UNK     1      17.563   1.721  33.352  1.00  0.00    -0.342 OA
BRANCH  15  16
HETATM   16  C10 UNK     1      18.255   2.902  33.738  1.00  0.00     0.203 C 
BRANCH  16  17
HETATM   17  C11 UNK     1      18.166   3.892  32.620  1.00  0.00     0.002 C 
HETATM   18  C5  UNK     1      18.563   5.180  32.621  1.00  0.00    -0.085 C 
HETATM   19  C14 UNK     1      19.183   5.777  33.859  1.00  0.00     0.043 C 
BRANCH  18  20
HETATM   20  C1  UNK     1      18.408   6.133  31.455  1.00  0.00     0.037 C 
BRANCH  20  21
HETATM   21  C7  UNK     1      17.741   7.464  31.829  1.00  0.00     0.031 C 
BRANCH  21  22
HETATM   22  C13 UNK     1      16.243   7.412  31.712  1.00  0.00    -0.024 C 
HETATM   23  C17 UNK     1      15.334   7.332  32.703  1.00  0.00    -0.091 C 
HETATM   24  C20 UNK     1      13.863   7.282  32.384  1.00  0.00     0.042 C 
HETATM   25  C21 UNK     1      15.650   7.301  34.171  1.00  0.00     0.042 C 
ENDBRANCH  21  22
ENDBRANCH  20  21
ENDBRANCH  18  20
ENDBRANCH  16  17
ENDBRANCH  15  16
ENDBRANCH   4  15
TORSDOF 6
ENDMDL
MODEL 2
REMARK VINA RESULT:      -8.3      1.457      4.320
REMARK  6 active torsions:
REMARK  status: ('A' for Active; 'I' for Inactive)
REMARK    1  A    between atoms: C10_14  and  O1_1 
REMARK    2  A    between atoms: C2_6  and  O1_1 
REMARK    3  A    between atoms: C1_5  and  C5_9 
REMARK    4  A    between atoms: C1_5  and  C7_11 
REMARK    5  A    between atoms: C13_17  and  C7_11 
REMARK    6  A    between atoms: C10_14  and  C11_15 
ROOT
HETATM    1  O2  UNK     1      19.595   0.412  29.217  1.00  0.00    -0.319 OA
HETATM    2  O3  UNK     1      17.932   1.072  33.713  1.00  0.00    -0.272 OA
HETATM    3  O4  UNK     1      17.184   1.289  35.867  1.00  0.00    -0.260 OA
HETATM    4  C2  UNK     1      18.710   0.849  31.460  1.00  0.00     0.138 A 
HETATM    5  C3  UNK     1      19.388   0.080  30.523  1.00  0.00     0.121 A 
HETATM    6  C4  UNK     1      19.957  -1.159  30.800  1.00  0.00     0.003 A 
HETATM    7  C6  UNK     1      18.618   0.308  32.739  1.00  0.00     0.126 A 
HETATM    8  C8  UNK     1      19.168  -0.929  33.078  1.00  0.00     0.002 A 
HETATM    9  C9  UNK     1      19.847  -1.679  32.105  1.00  0.00     0.028 A 
HETATM   10  C12 UNK     1      20.541  -1.596  29.582  1.00  0.00     0.039 A 
HETATM   11  C15 UNK     1      19.019  -1.412  34.441  1.00  0.00     0.020 A 
HETATM   12  C16 UNK     1      20.294  -0.608  28.656  1.00  0.00     0.143 A 
HETATM   13  C18 UNK     1      18.369  -0.682  35.351  1.00  0.00     0.083 A 
HETATM   14  C19 UNK     1      17.779   0.629  35.022  1.00  0.00     0.288 A 
ENDROOT
BRANCH   4  15
HETATM   15  O1  UNK     1      18.165   2.066  31.144  1.00  0.00    -0.342 OA
BRANCH  15  16
HETATM   16  C10 UNK     1      19.066   3.160  31.023  1.00  0.00     0.203 C 
BRANCH  16  17
HETATM   17  C11 UNK     1      18.293   4.431  31.172  1.00  0.00     0.002 C 
HETATM   18  C5  UNK     1      18.636   5.664  30.750  1.00  0.00    -0.085 C 
HETATM   19  C14 UNK     1      19.944   5.877  30.029  1.00  0.00     0.043 C 
BRANCH  18  20
HETATM   20  C1  UNK     1      17.811   6.915  30.969  1.00  0.00     0.037 C 
BRANCH  20  21
HETATM   21  C7  UNK     1      17.339   7.097  32.418  1.00  0.00     0.031 C 
BRANCH  21  22
HETATM   22  C13 UNK     1      18.185   8.077  33.183  1.00  0.00    -0.024 C 
HETATM   23  C17 UNK     1      19.372   7.861  33.782  1.00  0.00    -0.091 C 
HETATM   24  C20 UNK     1      20.069   8.977  34.514  1.00  0.00     0.042 C 
HETATM   25  C21 UNK     1      20.119   6.557  33.785  1.00  0.00     0.042 C 
ENDBRANCH  21  22
ENDBRANCH  20  21
ENDBRANCH  18  20
ENDBRANCH  16  17
ENDBRANCH  15  16
ENDBRANCH   4  15
TORSDOF 6
ENDMDL
MODEL 3
REMARK VINA RESULT:      -8.1      1.701      2.574
REMARK  6 active torsions:
REMARK  status: ('A' for Active; 'I' for Inactive)
REMARK    1  A    between atoms: C10_14  and  O1_1 
REMARK    2  A    between atoms: C2_6  and  O1_1 
REMARK    3  A    between atoms: C1_5  and  C5_9 
REMARK    4  A    between atoms: C1_5  and  C7_11 
REMARK    5  A    between atoms: C13_17  and  C7_11 
REMARK    6  A    between atoms: C10_14  and  C11_15 
ROOT
HETATM    1  O2  UNK     1      17.396   1.578  34.278  1.00  0.00    -0.319 OA
HETATM    2  O3  UNK     1      19.401   0.194  30.097  1.00  0.00    -0.272 OA
HETATM    3  O4  UNK     1      20.386  -0.548  28.168  1.00  0.00    -0.260 OA
HETATM    4  C2  UNK     1      18.371   0.975  32.113  1.00  0.00     0.138 A 
HETATM    5  C3  UNK     1      18.095   0.747  33.454  1.00  0.00     0.121 A 
HETATM    6  C4  UNK     1      18.505  -0.387  34.149  1.00  0.00     0.003 A 
HETATM    7  C6  UNK     1      19.106  -0.015  31.465  1.00  0.00     0.126 A 
HETATM    8  C8  UNK     1      19.545  -1.172  32.109  1.00  0.00     0.002 A 
HETATM    9  C9  UNK     1      19.246  -1.371  33.466  1.00  0.00     0.028 A 
HETATM   10  C12 UNK     1      18.021  -0.222  35.474  1.00  0.00     0.039 A 
HETATM   11  C15 UNK     1      20.307  -2.149  31.349  1.00  0.00     0.020 A 
HETATM   12  C16 UNK     1      17.356   0.983  35.498  1.00  0.00     0.143 A 
HETATM   13  C18 UNK     1      20.580  -1.941  30.059  1.00  0.00     0.083 A 
HETATM   14  C19 UNK     1      20.128  -0.727  29.353  1.00  0.00     0.288 A 
ENDROOT
BRANCH   4  15
HETATM   15  O1  UNK     1      17.947   2.107  31.465  1.00  0.00    -0.342 OA
BRANCH  15  16
HETATM   16  C10 UNK     1      18.864   3.192  31.404  1.00  0.00     0.203 C 
BRANCH  16  17
HETATM   17  C11 UNK     1      18.179   4.421  31.909  1.00  0.00     0.002 C 
HETATM   18  C5  UNK     1      18.483   5.707  31.643  1.00  0.00    -0.085 C 
HETATM   19  C14 UNK     1      19.639   6.036  30.733  1.00  0.00     0.043 C 
BRANCH  18  20
HETATM   20  C1  UNK     1      17.760   6.904  32.224  1.00  0.00     0.037 C 
BRANCH  20  21
HETATM   21  C7  UNK     1      17.938   7.058  33.741  1.00  0.00     0.031 C 
BRANCH  21  22
HETATM   22  C13 UNK     1      19.205   7.780  34.103  1.00  0.00    -0.024 C 
HETATM   23  C17 UNK     1      19.406   9.109  34.201  1.00  0.00    -0.091 C 
HETATM   24  C20 UNK     1      20.763   9.647  34.572  1.00  0.00     0.042 C 
HETATM   25  C21 UNK     1      18.361  10.164  33.980  1.00  0.00     0.042 C 
ENDBRANCH  21  22
ENDBRANCH  20  21
ENDBRANCH  18  20
ENDBRANCH  16  17
ENDBRANCH  15  16
ENDBRANCH   4  15
TORSDOF 6
ENDMDL
MODEL 4
REMARK VINA RESULT:      -8.1      4.971     10.282
REMARK  6 active torsions:
REMARK  status: ('A' for Active; 'I' for Inactive)
REMARK    1  A    between atoms: C10_14  and  O1_1 
REMARK    2  A    between atoms: C2_6  and  O1_1 
REMARK    3  A    between atoms: C1_5  and  C5_9 
REMARK    4  A    between atoms: C1_5  and  C7_11 
REMARK    5  A    between atoms: C13_17  and  C7_11 
REMARK    6  A    between atoms: C10_14  and  C11_15 
ROOT
HETATM    1  O2  UNK     1      18.780  -1.727  37.783  1.00  0.00    -0.319 OA
HETATM    2  O3  UNK     1      20.578  -2.973  33.467  1.00  0.00    -0.272 OA
HETATM    3  O4  UNK     1      21.369  -3.486  31.380  1.00  0.00    -0.260 OA
HETATM    4  C2  UNK     1      19.753  -2.441  35.651  1.00  0.00     0.138 A 
HETATM    5  C3  UNK     1      18.939  -1.633  36.432  1.00  0.00     0.121 A 
HETATM    6  C4  UNK     1      18.158  -0.597  35.929  1.00  0.00     0.003 A 
HETATM    7  C6  UNK     1      19.757  -2.163  34.287  1.00  0.00     0.126 A 
HETATM    8  C8  UNK     1      18.996  -1.138  33.722  1.00  0.00     0.002 A 
HETATM    9  C9  UNK     1      18.185  -0.340  34.543  1.00  0.00     0.028 A 
HETATM   10  C12 UNK     1      17.491  -0.036  37.050  1.00  0.00     0.039 A 
HETATM   11  C15 UNK     1      19.065  -0.925  32.286  1.00  0.00     0.020 A 
HETATM   12  C16 UNK     1      17.903  -0.757  38.147  1.00  0.00     0.143 A 
HETATM   13  C18 UNK     1      19.844  -1.696  31.523  1.00  0.00     0.083 A 
HETATM   14  C19 UNK     1      20.659  -2.785  32.092  1.00  0.00     0.288 A 
ENDROOT
BRANCH   4  15
HETATM   15  O1  UNK     1      20.507  -3.452  36.189  1.00  0.00    -0.342 OA
BRANCH  15  16
HETATM   16  C10 UNK     1      19.894  -4.732  36.274  1.00  0.00     0.203 C 
BRANCH  16  17
HETATM   17  C11 UNK     1      20.284  -5.360  37.574  1.00  0.00     0.002 C 
HETATM   18  C5  UNK     1      19.702  -6.403  38.198  1.00  0.00    -0.085 C 
HETATM   19  C14 UNK     1      18.506  -7.080  37.578  1.00  0.00     0.043 C 
BRANCH  18  20
HETATM   20  C1  UNK     1      20.136  -6.962  39.537  1.00  0.00     0.037 C 
BRANCH  20  21
HETATM   21  C7  UNK     1      21.396  -7.836  39.462  1.00  0.00     0.031 C 
BRANCH  21  22
HETATM   22  C13 UNK     1      21.142  -9.159  38.795  1.00  0.00    -0.024 C 
HETATM   23  C17 UNK     1      21.433  -9.522  37.531  1.00  0.00    -0.091 C 
HETATM   24  C20 UNK     1      21.091 -10.903  37.039  1.00  0.00     0.042 C 
HETATM   25  C21 UNK     1      22.111  -8.651  36.511  1.00  0.00     0.042 C 
ENDBRANCH  21  22
ENDBRANCH  20  21
ENDBRANCH  18  20
ENDBRANCH  16  17
ENDBRANCH  15  16
ENDBRANCH   4  15
TORSDOF 6
ENDMDL
MODEL 5
REMARK VINA RESULT:      -8.0      4.407     10.284
REMARK  6 active torsions:
REMARK  status: ('A' for Active; 'I' for Inactive)
REMARK    1  A    between atoms: C10_14  and  O1_1 
REMARK    2  A    between atoms: C2_6  and  O1_1 
REMARK    3  A    between atoms: C1_5  and  C5_9 
REMARK    4  A    between atoms: C1_5  and  C7_11 
REMARK    5  A    between atoms: C13_17  and  C7_11 
REMARK    6  A    between atoms: C10_14  and  C11_15 
ROOT
HETATM    1  O2  UNK     1      21.067  -3.343  33.022  1.00  0.00    -0.319 OA
HETATM    2  O3  UNK     1      18.757  -0.930  36.523  1.00  0.00    -0.272 OA
HETATM    3  O4  UNK     1      17.619   0.274  38.105  1.00  0.00    -0.260 OA
HETATM    4  C2  UNK     1      19.950  -2.189  34.873  1.00  0.00     0.138 A 
HETATM    5  C3  UNK     1      20.220  -2.401  33.528  1.00  0.00     0.121 A 
HETATM    6  C4  UNK     1      19.650  -1.664  32.495  1.00  0.00     0.003 A 
HETATM    7  C6  UNK     1      19.049  -1.167  35.159  1.00  0.00     0.126 A 
HETATM    8  C8  UNK     1      18.445  -0.393  34.167  1.00  0.00     0.002 A 
HETATM    9  C9  UNK     1      18.741  -0.636  32.817  1.00  0.00     0.028 A 
HETATM   10  C12 UNK     1      20.190  -2.198  31.296  1.00  0.00     0.039 A 
HETATM   11  C15 UNK     1      17.519   0.654  34.564  1.00  0.00     0.020 A 
HETATM   12  C16 UNK     1      21.042  -3.211  31.671  1.00  0.00     0.143 A 
HETATM   13  C18 UNK     1      17.251   0.869  35.855  1.00  0.00     0.083 A 
HETATM   14  C19 UNK     1      17.873   0.066  36.924  1.00  0.00     0.288 A 
ENDROOT
BRANCH   4  15
HETATM   15  O1  UNK     1      20.534  -2.941  35.859  1.00  0.00    -0.342 OA
BRANCH  15  16
HETATM   16  C10 UNK     1      19.711  -3.907  36.501  1.00  0.00     0.203 C 
BRANCH  16  17
HETATM   17  C11 UNK     1      20.112  -5.266  36.022  1.00  0.00     0.002 C 
HETATM   18  C5  UNK     1      19.386  -6.401  36.048  1.00  0.00    -0.085 C 
HETATM   19  C14 UNK     1      17.987  -6.388  36.609  1.00  0.00     0.043 C 
BRANCH  18  20
HETATM   20  C1  UNK     1      19.877  -7.752  35.573  1.00  0.00     0.037 C 
BRANCH  20  21
HETATM   21  C7  UNK     1      19.877  -8.828  36.667  1.00  0.00     0.031 C 
BRANCH  21  22
HETATM   22  C13 UNK     1      21.060  -8.715  37.589  1.00  0.00    -0.024 C 
HETATM   23  C17 UNK     1      21.104  -8.175  38.822  1.00  0.00    -0.091 C 
HETATM   24  C20 UNK     1      22.397  -8.146  39.593  1.00  0.00     0.042 C 
HETATM   25  C21 UNK     1      19.934  -7.580  39.552  1.00  0.00     0.042 C 
ENDBRANCH  21  22
ENDBRANCH  20  21
ENDBRANCH  18  20
ENDBRANCH  16  17
ENDBRANCH  15  16
ENDBRANCH   4  15
TORSDOF 6
ENDMDL
MODEL 6
REMARK VINA RESULT:      -7.9      5.646      8.695
REMARK  6 active torsions:
REMARK  status: ('A' for Active; 'I' for Inactive)
REMARK    1  A    between atoms: C10_14  and  O1_1 
REMARK    2  A    between atoms: C2_6  and  O1_1 
REMARK    3  A    between atoms: C1_5  and  C5_9 
REMARK    4  A    between atoms: C1_5  and  C7_11 
REMARK    5  A    between atoms: C13_17  and  C7_11 
REMARK    6  A    between atoms: C10_14  and  C11_15 
ROOT
HETATM    1  O2  UNK     1      22.885  -5.278  38.395  1.00  0.00    -0.319 OA
HETATM    2  O3  UNK     1      18.961  -6.638  35.913  1.00  0.00    -0.272 OA
HETATM    3  O4  UNK     1      17.106  -7.376  34.789  1.00  0.00    -0.260 OA
HETATM    4  C2  UNK     1      20.900  -5.864  37.083  1.00  0.00     0.138 A 
HETATM    5  C3  UNK     1      21.877  -6.122  38.035  1.00  0.00     0.121 A 
HETATM    6  C4  UNK     1      21.957  -7.304  38.765  1.00  0.00     0.003 A 
HETATM    7  C6  UNK     1      19.967  -6.876  36.879  1.00  0.00     0.126 A 
HETATM    8  C8  UNK     1      19.995  -8.083  37.579  1.00  0.00     0.002 A 
HETATM    9  C9  UNK     1      20.997  -8.310  38.535  1.00  0.00     0.028 A 
HETATM   10  C12 UNK     1      23.086  -7.157  39.614  1.00  0.00     0.039 A 
HETATM   11  C15 UNK     1      18.978  -9.082  37.295  1.00  0.00     0.020 A 
HETATM   12  C16 UNK     1      23.611  -5.913  39.350  1.00  0.00     0.143 A 
HETATM   13  C18 UNK     1      18.034  -8.845  36.381  1.00  0.00     0.083 A 
HETATM   14  C19 UNK     1      17.978  -7.579  35.626  1.00  0.00     0.288 A 
ENDROOT
BRANCH   4  15
HETATM   15  O1  UNK     1      20.857  -4.684  36.387  1.00  0.00    -0.342 OA
BRANCH  15  16
HETATM   16  C10 UNK     1      20.238  -3.580  37.035  1.00  0.00     0.203 C 
BRANCH  16  17
HETATM   17  C11 UNK     1      20.035  -2.492  36.030  1.00  0.00     0.002 C 
HETATM   18  C5  UNK     1      18.954  -1.702  35.871  1.00  0.00    -0.085 C 
HETATM   19  C14 UNK     1      17.760  -1.868  36.776  1.00  0.00     0.043 C 
BRANCH  18  20
HETATM   20  C1  UNK     1      18.809  -0.639  34.802  1.00  0.00     0.037 C 
BRANCH  20  21
HETATM   21  C7  UNK     1      18.206  -1.161  33.491  1.00  0.00     0.031 C 
BRANCH  21  22
HETATM   22  C13 UNK     1      18.958  -0.685  32.279  1.00  0.00    -0.024 C 
HETATM   23  C17 UNK     1      20.078  -1.202  31.739  1.00  0.00    -0.091 C 
HETATM   24  C20 UNK     1      20.694  -0.574  30.517  1.00  0.00     0.042 C 
HETATM   25  C21 UNK     1      20.809  -2.412  32.248  1.00  0.00     0.042 C 
ENDBRANCH  21  22
ENDBRANCH  20  21
ENDBRANCH  18  20
ENDBRANCH  16  17
ENDBRANCH  15  16
ENDBRANCH   4  15
TORSDOF 6
ENDMDL
MODEL 7
REMARK VINA RESULT:      -7.9      2.209      8.009
REMARK  6 active torsions:
REMARK  status: ('A' for Active; 'I' for Inactive)
REMARK    1  A    between atoms: C10_14  and  O1_1 
REMARK    2  A    between atoms: C2_6  and  O1_1 
REMARK    3  A    between atoms: C1_5  and  C5_9 
REMARK    4  A    between atoms: C1_5  and  C7_11 
REMARK    5  A    between atoms: C13_17  and  C7_11 
REMARK    6  A    between atoms: C10_14  and  C11_15 
ROOT
HETATM    1  O2  UNK     1      18.581   0.691  31.797  1.00  0.00    -0.319 OA
HETATM    2  O3  UNK     1      17.692   5.004  33.803  1.00  0.00    -0.272 OA
HETATM    3  O4  UNK     1      17.305   7.091  34.663  1.00  0.00    -0.260 OA
HETATM    4  C2  UNK     1      18.097   2.820  32.910  1.00  0.00     0.138 A 
HETATM    5  C3  UNK     1      18.515   2.053  31.831  1.00  0.00     0.121 A 
HETATM    6  C4  UNK     1      18.931   2.585  30.614  1.00  0.00     0.003 A 
HETATM    7  C6  UNK     1      18.113   4.199  32.718  1.00  0.00     0.126 A 
HETATM    8  C8  UNK     1      18.520   4.791  31.522  1.00  0.00     0.002 A 
HETATM    9  C9  UNK     1      18.935   3.984  30.451  1.00  0.00     0.028 A 
HETATM   10  C12 UNK     1      19.268   1.470  29.801  1.00  0.00     0.039 A 
HETATM   11  C15 UNK     1      18.503   6.241  31.417  1.00  0.00     0.020 A 
HETATM   12  C16 UNK     1      19.038   0.349  30.564  1.00  0.00     0.143 A 
HETATM   13  C18 UNK     1      18.104   6.990  32.448  1.00  0.00     0.083 A 
HETATM   14  C19 UNK     1      17.668   6.392  33.724  1.00  0.00     0.288 A 
ENDROOT
BRANCH   4  15
HETATM   15  O1  UNK     1      17.694   2.254  34.091  1.00  0.00    -0.342 OA
BRANCH  15  16
HETATM   16  C10 UNK     1      18.693   2.071  35.087  1.00  0.00     0.203 C 
BRANCH  16  17
HETATM   17  C11 UNK     1      18.604   0.668  35.596  1.00  0.00     0.002 C 
HETATM   18  C5  UNK     1      18.104   0.244  36.774  1.00  0.00    -0.085 C 
HETATM   19  C14 UNK     1      17.543   1.240  37.757  1.00  0.00     0.043 C 
BRANCH  18  20
HETATM   20  C1  UNK     1      18.080  -1.199  37.234  1.00  0.00     0.037 C 
BRANCH  20  21
HETATM   21  C7  UNK     1      18.930  -2.138  36.367  1.00  0.00     0.031 C 
BRANCH  21  22
HETATM   22  C13 UNK     1      19.918  -2.933  37.173  1.00  0.00    -0.024 C 
HETATM   23  C17 UNK     1      20.284  -4.219  37.007  1.00  0.00    -0.091 C 
HETATM   24  C20 UNK     1      21.293  -4.848  37.931  1.00  0.00     0.042 C 
HETATM   25  C21 UNK     1      19.775  -5.134  35.930  1.00  0.00     0.042 C 
ENDBRANCH  21  22
ENDBRANCH  20  21
ENDBRANCH  18  20
ENDBRANCH  16  17
ENDBRANCH  15  16
ENDBRANCH   4  15
TORSDOF 6
ENDMDL
MODEL 8
REMARK VINA RESULT:      -7.9      5.545      8.855
REMARK  6 active torsions:
REMARK  status: ('A' for Active; 'I' for Inactive)
REMARK    1  A    between atoms: C10_14  and  O1_1 
REMARK    2  A    between atoms: C2_6  and  O1_1 
REMARK    3  A    between atoms: C1_5  and  C5_9 
REMARK    4  A    between atoms: C1_5  and  C7_11 
REMARK    5  A    between atoms: C13_17  and  C7_11 
REMARK    6  A    between atoms: C10_14  and  C11_15 
ROOT
HETATM    1  O2  UNK     1      18.427  -6.394  35.518  1.00  0.00    -0.319 OA
HETATM    2  O3  UNK     1      22.478  -5.621  38.048  1.00  0.00    -0.272 OA
HETATM    3  O4  UNK     1      24.383  -5.351  39.290  1.00  0.00    -0.260 OA
HETATM    4  C2  UNK     1      20.487  -5.898  36.749  1.00  0.00     0.138 A 
HETATM    5  C3  UNK     1      19.418  -6.711  36.400  1.00  0.00     0.121 A 
HETATM    6  C4  UNK     1      19.211  -7.987  36.916  1.00  0.00     0.003 A 
HETATM    7  C6  UNK     1      21.379  -6.430  37.675  1.00  0.00     0.126 A 
HETATM    8  C8  UNK     1      21.226  -7.702  38.228  1.00  0.00     0.002 A 
HETATM    9  C9  UNK     1      20.132  -8.498  37.851  1.00  0.00     0.028 A 
HETATM   10  C12 UNK     1      18.021  -8.462  36.304  1.00  0.00     0.039 A 
HETATM   11  C15 UNK     1      22.210  -8.172  39.189  1.00  0.00     0.020 A 
HETATM   12  C16 UNK     1      17.587  -7.460  35.467  1.00  0.00     0.143 A 
HETATM   13  C18 UNK     1      23.243  -7.398  39.533  1.00  0.00     0.083 A 
HETATM   14  C19 UNK     1      23.431  -6.051  38.965  1.00  0.00     0.288 A 
ENDROOT
BRANCH   4  15
HETATM   15  O1  UNK     1      20.653  -4.646  36.215  1.00  0.00    -0.342 OA
BRANCH  15  16
HETATM   16  C10 UNK     1      19.889  -3.596  36.793  1.00  0.00     0.203 C 
BRANCH  16  17
HETATM   17  C11 UNK     1      19.630  -2.563  35.744  1.00  0.00     0.002 C 
HETATM   18  C5  UNK     1      18.891  -1.441  35.851  1.00  0.00    -0.085 C 
HETATM   19  C14 UNK     1      18.209  -1.108  37.154  1.00  0.00     0.043 C 
BRANCH  18  20
HETATM   20  C1  UNK     1      18.646  -0.456  34.727  1.00  0.00     0.037 C 
BRANCH  20  21
HETATM   21  C7  UNK     1      18.185  -1.114  33.419  1.00  0.00     0.031 C 
BRANCH  21  22
HETATM   22  C13 UNK     1      18.940  -0.610  32.221  1.00  0.00    -0.024 C 
HETATM   23  C17 UNK     1      20.063  -1.113  31.673  1.00  0.00    -0.091 C 
HETATM   24  C20 UNK     1      20.680  -0.456  30.467  1.00  0.00     0.042 C 
HETATM   25  C21 UNK     1      20.794  -2.333  32.156  1.00  0.00     0.042 C 
ENDBRANCH  21  22
ENDBRANCH  20  21
ENDBRANCH  18  20
ENDBRANCH  16  17
ENDBRANCH  15  16
ENDBRANCH   4  15
TORSDOF 6
ENDMDL
MODEL 9
REMARK VINA RESULT:      -7.8     13.504     15.429
REMARK  6 active torsions:
REMARK  status: ('A' for Active; 'I' for Inactive)
REMARK    1  A    between atoms: C10_14  and  O1_1 
REMARK    2  A    between atoms: C2_6  and  O1_1 
REMARK    3  A    between atoms: C1_5  and  C5_9 
REMARK    4  A    between atoms: C1_5  and  C7_11 
REMARK    5  A    between atoms: C13_17  and  C7_11 
REMARK    6  A    between atoms: C10_14  and  C11_15 
ROOT
HETATM    1  O2  UNK     1      28.677  -9.772  38.153  1.00  0.00    -0.319 OA
HETATM    2  O3  UNK     1      31.001  -5.724  36.879  1.00  0.00    -0.272 OA
HETATM    3  O4  UNK     1      32.039  -3.754  36.343  1.00  0.00    -0.260 OA
HETATM    4  C2  UNK     1      29.917  -7.785  37.434  1.00  0.00     0.138 A 
HETATM    5  C3  UNK     1      28.959  -8.438  38.196  1.00  0.00     0.121 A 
HETATM    6  C4  UNK     1      28.141  -7.804  39.127  1.00  0.00     0.003 A 
HETATM    7  C6  UNK     1      30.031  -6.414  37.644  1.00  0.00     0.126 A 
HETATM    8  C8  UNK     1      29.240  -5.722  38.562  1.00  0.00     0.002 A 
HETATM    9  C9  UNK     1      28.281  -6.415  39.317  1.00  0.00     0.028 A 
HETATM   10  C12 UNK     1      27.317  -8.823  39.674  1.00  0.00     0.039 A 
HETATM   11  C15 UNK     1      29.431  -4.289  38.711  1.00  0.00     0.020 A 
HETATM   12  C16 UNK     1      27.682  -9.994  39.051  1.00  0.00     0.143 A 
HETATM   13  C18 UNK     1      30.349  -3.649  37.982  1.00  0.00     0.083 A 
HETATM   14  C19 UNK     1      31.200  -4.354  37.006  1.00  0.00     0.288 A 
ENDROOT
BRANCH   4  15
HETATM   15  O1  UNK     1      30.703  -8.450  36.529  1.00  0.00    -0.342 OA
BRANCH  15  16
HETATM   16  C10 UNK     1      30.104  -8.784  35.283  1.00  0.00     0.203 C 
BRANCH  16  17
HETATM   17  C11 UNK     1      30.425  -7.708  34.297  1.00  0.00     0.002 C 
HETATM   18  C5  UNK     1      29.626  -6.711  33.868  1.00  0.00    -0.085 C 
HETATM   19  C14 UNK     1      28.220  -6.591  34.399  1.00  0.00     0.043 C 
BRANCH  18  20
HETATM   20  C1  UNK     1      30.015  -5.674  32.836  1.00  0.00     0.037 C 
BRANCH  20  21
HETATM   21  C7  UNK     1      29.847  -6.151  31.387  1.00  0.00     0.031 C 
BRANCH  21  22
HETATM   22  C13 UNK     1      28.430  -6.031  30.899  1.00  0.00    -0.024 C 
HETATM   23  C17 UNK     1      27.533  -7.016  30.700  1.00  0.00    -0.091 C 
HETATM   24  C20 UNK     1      26.152  -6.695  30.194  1.00  0.00     0.042 C 
HETATM   25  C21 UNK     1      27.774  -8.476  30.957  1.00  0.00     0.042 C 
ENDBRANCH  21  22
ENDBRANCH  20  21
ENDBRANCH  18  20
ENDBRANCH  16  17
ENDBRANCH  15  16
ENDBRANCH   4  15
TORSDOF 6
ENDMDL
MODEL 10
REMARK VINA RESULT:      -7.7      1.049      3.960
REMARK  6 active torsions:
REMARK  status: ('A' for Active; 'I' for Inactive)
REMARK    1  A    between atoms: C10_14  and  O1_1 
REMARK    2  A    between atoms: C2_6  and  O1_1 
REMARK    3  A    between atoms: C1_5  and  C5_9 
REMARK    4  A    between atoms: C1_5  and  C7_11 
REMARK    5  A    between atoms: C13_17  and  C7_11 
REMARK    6  A    between atoms: C10_14  and  C11_15 
ROOT
HETATM    1  O2  UNK     1      18.920   0.594  31.284  1.00  0.00    -0.319 OA
HETATM    2  O3  UNK     1      17.504   1.059  35.887  1.00  0.00    -0.272 OA
HETATM    3  O4  UNK     1      16.872   1.182  38.085  1.00  0.00    -0.260 OA
HETATM    4  C2  UNK     1      18.159   0.934  33.588  1.00  0.00     0.138 A 
HETATM    5  C3  UNK     1      18.778   0.204  32.583  1.00  0.00     0.121 A 
HETATM    6  C4  UNK     1      19.348  -1.051  32.772  1.00  0.00     0.003 A 
HETATM    7  C6  UNK     1      18.129   0.335  34.844  1.00  0.00     0.126 A 
HETATM    8  C8  UNK     1      18.683  -0.920  35.096  1.00  0.00     0.002 A 
HETATM    9  C9  UNK     1      19.302  -1.630  34.056  1.00  0.00     0.028 A 
HETATM   10  C12 UNK     1      19.863  -1.436  31.506  1.00  0.00     0.039 A 
HETATM   11  C15 UNK     1      18.601  -1.465  36.442  1.00  0.00     0.020 A 
HETATM   12  C16 UNK     1      19.578  -0.405  30.641  1.00  0.00     0.143 A 
HETATM   13  C18 UNK     1      18.008  -0.772  37.417  1.00  0.00     0.083 A 
HETATM   14  C19 UNK     1      17.415   0.557  37.181  1.00  0.00     0.288 A 
ENDROOT
BRANCH   4  15
HETATM   15  O1  UNK     1      17.611   2.169  33.357  1.00  0.00    -0.342 OA
BRANCH  15  16
HETATM   16  C10 UNK     1      18.414   3.297  33.681  1.00  0.00     0.203 C 
BRANCH  16  17
HETATM   17  C11 UNK     1      18.236   4.329  32.614  1.00  0.00     0.002 C 
HETATM   18  C5  UNK     1      18.805   5.549  32.538  1.00  0.00    -0.085 C 
HETATM   19  C14 UNK     1      19.752   6.008  33.618  1.00  0.00     0.043 C 
BRANCH  18  20
HETATM   20  C1  UNK     1      18.546   6.556  31.437  1.00  0.00     0.037 C 
BRANCH  20  21
HETATM   21  C7  UNK     1      17.131   7.149  31.462  1.00  0.00     0.031 C 
BRANCH  21  22
HETATM   22  C13 UNK     1      17.013   8.324  32.392  1.00  0.00    -0.024 C 
HETATM   23  C17 UNK     1      16.592   8.333  33.672  1.00  0.00    -0.091 C 
HETATM   24  C20 UNK     1      16.535   9.624  34.444  1.00  0.00     0.042 C 
HETATM   25  C21 UNK     1      16.164   7.124  34.454  1.00  0.00     0.042 C 
ENDBRANCH  21  22
ENDBRANCH  20  21
ENDBRANCH  18  20
ENDBRANCH  16  17
ENDBRANCH  15  16
ENDBRANCH   4  15
TORSDOF 6
ENDMDL
