MODEL 1
REMARK VINA RESULT:      -9.3      0.000      0.000
REMARK  3 active torsions:
REMARK  status: ('A' for Active; 'I' for Inactive)
REMARK    1  A    between atoms: C5_12  and  N1_6 
REMARK       I    between atoms: C8_15  and  N1_6 
REMARK    2  A    between atoms: C10_17  and  N2_7 
REMARK    3  A    between atoms: C3_10  and  C8_15 
ROOT
HETATM    1  O1  UNK     1      19.364  -2.514  13.070  1.00  0.00    -0.274 OA
HETATM    2  O3  UNK     1      19.441  -0.497  14.138  1.00  0.00    -0.259 OA
HETATM    3  C1  UNK     1      18.330  -4.418  14.173  1.00  0.00     0.001 A 
HETATM    4  C2  UNK     1      18.985  -3.871  13.075  1.00  0.00     0.089 A 
HETATM    5  C3  UNK     1      18.409  -2.280  15.309  1.00  0.00     0.108 A 
HETATM    6  C4  UNK     1      18.045  -3.568  15.317  1.00  0.00     0.037 A 
HETATM    7  C6  UNK     1      17.969  -5.768  14.140  1.00  0.00     0.050 A 
HETATM    8  C9  UNK     1      19.288  -4.631  11.947  1.00  0.00     0.041 A 
HETATM    9  C10 UNK     1      18.267  -6.543  13.015  1.00  0.00     0.103 A 
HETATM   10  C11 UNK     1      19.105  -1.676  14.151  1.00  0.00     0.304 A 
HETATM   11  C12 UNK     1      18.925  -5.976  11.922  1.00  0.00     0.039 A 
ENDROOT
BRANCH   5  12
HETATM   12  C8  UNK     1      18.076  -1.503  16.509  1.00  0.00     0.262 C 
HETATM   13  O2  UNK     1      16.996  -1.679  17.071  1.00  0.00    -0.267 OA
HETATM   14  N1  UNK     1      19.091  -0.624  16.862  1.00  0.00    -0.322 N 
HETATM   15  H4  UNK     1      19.932  -0.626  16.293  1.00  0.00     0.169 HD
BRANCH  14  16
HETATM   16  C5  UNK     1      19.114   0.275  17.955  1.00  0.00     0.041 A 
HETATM   17  C13 UNK     1      19.054  -0.244  19.239  1.00  0.00     0.030 A 
HETATM   18  C16 UNK     1      19.074   0.626  20.329  1.00  0.00     0.002 A 
HETATM   19  C17 UNK     1      19.154   2.003  20.121  1.00  0.00     0.001 A 
HETATM   20  C14 UNK     1      19.215   2.510  18.823  1.00  0.00     0.009 A 
HETATM   21  C7  UNK     1      19.194   1.639  17.733  1.00  0.00    -0.035 A 
HETATM   22  C15 UNK     1      19.260   2.210  16.353  1.00  0.00     0.050 C 
ENDBRANCH  14  16
ENDBRANCH   5  12
BRANCH   9  23
HETATM   23  N2  UNK     1      17.899  -7.915  12.985  1.00  0.00    -0.116 N 
HETATM   24  O4  UNK     1      16.886  -8.286  13.626  1.00  0.00    -0.532 OA
HETATM   25  O5  UNK     1      18.595  -8.716  12.318  1.00  0.00    -0.532 OA
ENDBRANCH   9  23
TORSDOF 3
ENDMDL
MODEL 2
REMARK VINA RESULT:      -9.1     14.435     16.775
REMARK  3 active torsions:
REMARK  status: ('A' for Active; 'I' for Inactive)
REMARK    1  A    between atoms: C5_12  and  N1_6 
REMARK       I    between atoms: C8_15  and  N1_6 
REMARK    2  A    between atoms: C10_17  and  N2_7 
REMARK    3  A    between atoms: C3_10  and  C8_15 
ROOT
HETATM    1  O1  UNK     1      19.081   1.574  28.829  1.00  0.00    -0.274 OA
HETATM    2  O3  UNK     1      18.208   3.679  28.997  1.00  0.00    -0.259 OA
HETATM    3  C1  UNK     1      19.609   0.328  30.849  1.00  0.00     0.001 A 
HETATM    4  C2  UNK     1      19.567   0.413  29.461  1.00  0.00     0.089 A 
HETATM    5  C3  UNK     1      18.683   2.559  31.032  1.00  0.00     0.108 A 
HETATM    6  C4  UNK     1      19.143   1.457  31.637  1.00  0.00     0.037 A 
HETATM    7  C6  UNK     1      20.097  -0.841  31.439  1.00  0.00     0.050 A 
HETATM    8  C9  UNK     1      19.999  -0.633  28.648  1.00  0.00     0.041 A 
HETATM    9  C10 UNK     1      20.534  -1.899  30.636  1.00  0.00     0.103 A 
HETATM   10  C11 UNK     1      18.629   2.672  29.557  1.00  0.00     0.304 A 
HETATM   11  C12 UNK     1      20.485  -1.795  29.245  1.00  0.00     0.039 A 
ENDROOT
BRANCH   5  12
HETATM   12  C8  UNK     1      18.234   3.645  31.912  1.00  0.00     0.262 C 
HETATM   13  O2  UNK     1      17.622   3.379  32.945  1.00  0.00    -0.267 OA
HETATM   14  N1  UNK     1      18.587   4.895  31.423  1.00  0.00    -0.322 N 
HETATM   15  H4  UNK     1      19.115   4.928  30.556  1.00  0.00     0.169 HD
BRANCH  14  16
HETATM   16  C5  UNK     1      18.318   6.158  32.005  1.00  0.00     0.041 A 
HETATM   17  C13 UNK     1      17.057   6.708  31.837  1.00  0.00     0.030 A 
HETATM   18  C16 UNK     1      16.774   7.951  32.402  1.00  0.00     0.002 A 
HETATM   19  C17 UNK     1      17.754   8.627  33.128  1.00  0.00     0.001 A 
HETATM   20  C14 UNK     1      19.018   8.060  33.290  1.00  0.00     0.009 A 
HETATM   21  C7  UNK     1      19.302   6.817  32.723  1.00  0.00    -0.035 A 
HETATM   22  C15 UNK     1      20.664   6.233  32.912  1.00  0.00     0.050 C 
ENDBRANCH  14  16
ENDBRANCH   5  12
BRANCH   9  23
HETATM   23  N2  UNK     1      21.030  -3.085  31.240  1.00  0.00    -0.116 N 
HETATM   24  O4  UNK     1      21.082  -3.154  32.491  1.00  0.00    -0.532 OA
HETATM   25  O5  UNK     1      21.400  -4.031  30.505  1.00  0.00    -0.532 OA
ENDBRANCH   9  23
TORSDOF 3
ENDMDL
MODEL 3
REMARK VINA RESULT:      -8.9      2.390      3.684
REMARK  3 active torsions:
REMARK  status: ('A' for Active; 'I' for Inactive)
REMARK    1  A    between atoms: C5_12  and  N1_6 
REMARK       I    between atoms: C8_15  and  N1_6 
REMARK    2  A    between atoms: C10_17  and  N2_7 
REMARK    3  A    between atoms: C3_10  and  C8_15 
ROOT
HETATM    1  O1  UNK     1      18.477  -4.376  13.986  1.00  0.00    -0.274 OA
HETATM    2  O3  UNK     1      17.392  -4.326  15.995  1.00  0.00    -0.259 OA
HETATM    3  C1  UNK     1      19.619  -2.384  13.188  1.00  0.00     0.001 A 
HETATM    4  C2  UNK     1      19.246  -3.712  13.010  1.00  0.00     0.089 A 
HETATM    5  C3  UNK     1      18.471  -2.327  15.320  1.00  0.00     0.108 A 
HETATM    6  C4  UNK     1      19.203  -1.692  14.397  1.00  0.00     0.037 A 
HETATM    7  C6  UNK     1      20.383  -1.759  12.198  1.00  0.00     0.050 A 
HETATM    8  C9  UNK     1      19.613  -4.432  11.875  1.00  0.00     0.041 A 
HETATM    9  C10 UNK     1      20.759  -2.469  11.054  1.00  0.00     0.103 A 
HETATM   10  C11 UNK     1      18.062  -3.739  15.152  1.00  0.00     0.304 A 
HETATM   11  C12 UNK     1      20.374  -3.801  10.893  1.00  0.00     0.039 A 
ENDROOT
BRANCH   5  12
HETATM   12  C8  UNK     1      18.099  -1.545  16.505  1.00  0.00     0.262 C 
HETATM   13  O2  UNK     1      17.018  -1.750  17.057  1.00  0.00    -0.267 OA
HETATM   14  N1  UNK     1      19.080  -0.628  16.858  1.00  0.00    -0.322 N 
HETATM   15  H4  UNK     1      19.927  -0.609  16.298  1.00  0.00     0.169 HD
BRANCH  14  16
HETATM   16  C5  UNK     1      19.060   0.287  17.938  1.00  0.00     0.041 A 
HETATM   17  C13 UNK     1      18.938  -0.214  19.224  1.00  0.00     0.030 A 
HETATM   18  C16 UNK     1      18.915   0.671  20.302  1.00  0.00     0.002 A 
HETATM   19  C17 UNK     1      19.015   2.044  20.079  1.00  0.00     0.001 A 
HETATM   20  C14 UNK     1      19.138   2.533  18.778  1.00  0.00     0.009 A 
HETATM   21  C7  UNK     1      19.160   1.647  17.701  1.00  0.00    -0.035 A 
HETATM   22  C15 UNK     1      19.293   2.198  16.318  1.00  0.00     0.050 C 
ENDBRANCH  14  16
ENDBRANCH   5  12
BRANCH   9  23
HETATM   23  N2  UNK     1      21.535  -1.830  10.050  1.00  0.00    -0.116 N 
HETATM   24  O4  UNK     1      21.885  -2.490   9.042  1.00  0.00    -0.532 OA
HETATM   25  O5  UNK     1      21.847  -0.625  10.198  1.00  0.00    -0.532 OA
ENDBRANCH   9  23
TORSDOF 3
ENDMDL
MODEL 4
REMARK VINA RESULT:      -8.7     17.237     21.297
REMARK  3 active torsions:
REMARK  status: ('A' for Active; 'I' for Inactive)
REMARK    1  A    between atoms: C5_12  and  N1_6 
REMARK       I    between atoms: C8_15  and  N1_6 
REMARK    2  A    between atoms: C10_17  and  N2_7 
REMARK    3  A    between atoms: C3_10  and  C8_15 
ROOT
HETATM    1  O1  UNK     1      18.598  -0.831  36.539  1.00  0.00    -0.274 OA
HETATM    2  O3  UNK     1      18.902  -2.149  38.380  1.00  0.00    -0.259 OA
HETATM    3  C1  UNK     1      19.379  -1.600  34.369  1.00  0.00     0.001 A 
HETATM    4  C2  UNK     1      18.760  -0.633  35.154  1.00  0.00     0.089 A 
HETATM    5  C3  UNK     1      19.703  -3.001  36.318  1.00  0.00     0.108 A 
HETATM    6  C4  UNK     1      19.858  -2.818  35.001  1.00  0.00     0.037 A 
HETATM    7  C6  UNK     1      19.521  -1.367  32.998  1.00  0.00     0.050 A 
HETATM    8  C9  UNK     1      18.279   0.556  34.610  1.00  0.00     0.041 A 
HETATM    9  C10 UNK     1      19.043  -0.178  32.438  1.00  0.00     0.103 A 
HETATM   10  C11 UNK     1      19.047  -1.986  37.173  1.00  0.00     0.304 A 
HETATM   11  C12 UNK     1      18.424   0.781  33.242  1.00  0.00     0.039 A 
ENDROOT
BRANCH   5  12
HETATM   12  C8  UNK     1      20.219  -4.262  36.864  1.00  0.00     0.262 C 
HETATM   13  O2  UNK     1      21.432  -4.422  36.990  1.00  0.00    -0.267 OA
HETATM   14  N1  UNK     1      19.201  -5.152  37.180  1.00  0.00    -0.322 N 
HETATM   15  H4  UNK     1      18.245  -4.843  37.030  1.00  0.00     0.169 HD
BRANCH  14  16
HETATM   16  C5  UNK     1      19.328  -6.454  37.722  1.00  0.00     0.041 A 
HETATM   17  C13 UNK     1      19.925  -6.596  38.964  1.00  0.00     0.030 A 
HETATM   18  C16 UNK     1      20.061  -7.870  39.515  1.00  0.00     0.002 A 
HETATM   19  C17 UNK     1      19.597  -8.985  38.816  1.00  0.00     0.001 A 
HETATM   20  C14 UNK     1      18.998  -8.825  37.566  1.00  0.00     0.009 A 
HETATM   21  C7  UNK     1      18.863  -7.550  37.016  1.00  0.00    -0.035 A 
HETATM   22  C15 UNK     1      18.217  -7.408  35.676  1.00  0.00     0.050 C 
ENDBRANCH  14  16
ENDBRANCH   5  12
BRANCH   9  23
HETATM   23  N2  UNK     1      19.189   0.054  31.044  1.00  0.00    -0.116 N 
HETATM   24  O4  UNK     1      18.451   0.904  30.490  1.00  0.00    -0.532 OA
HETATM   25  O5  UNK     1      20.052  -0.594  30.407  1.00  0.00    -0.532 OA
ENDBRANCH   9  23
TORSDOF 3
ENDMDL
MODEL 5
REMARK VINA RESULT:      -8.7     16.663     19.687
REMARK  3 active torsions:
REMARK  status: ('A' for Active; 'I' for Inactive)
REMARK    1  A    between atoms: C5_12  and  N1_6 
REMARK       I    between atoms: C8_15  and  N1_6 
REMARK    2  A    between atoms: C10_17  and  N2_7 
REMARK    3  A    between atoms: C3_10  and  C8_15 
ROOT
HETATM    1  O1  UNK     1      19.233   2.560  30.261  1.00  0.00    -0.274 OA
HETATM    2  O3  UNK     1      19.467   0.313  30.599  1.00  0.00    -0.259 OA
HETATM    3  C1  UNK     1      18.274   3.946  32.013  1.00  0.00     0.001 A 
HETATM    4  C2  UNK     1      18.823   3.819  30.741  1.00  0.00     0.089 A 
HETATM    5  C3  UNK     1      18.521   1.563  32.376  1.00  0.00     0.108 A 
HETATM    6  C4  UNK     1      18.130   2.757  32.838  1.00  0.00     0.037 A 
HETATM    7  C6  UNK     1      17.878   5.211  32.454  1.00  0.00     0.050 A 
HETATM    8  C9  UNK     1      18.988   4.918  29.900  1.00  0.00     0.041 A 
HETATM    9  C10 UNK     1      18.038   6.323  31.622  1.00  0.00     0.103 A 
HETATM   10  C11 UNK     1      19.107   1.405  31.027  1.00  0.00     0.304 A 
HETATM   11  C12 UNK     1      18.591   6.176  30.348  1.00  0.00     0.039 A 
ENDROOT
BRANCH   5  12
HETATM   12  C8  UNK     1      18.335   0.423  33.283  1.00  0.00     0.262 C 
HETATM   13  O2  UNK     1      17.918  -0.646  32.841  1.00  0.00    -0.267 OA
HETATM   14  N1  UNK     1      18.678   0.734  34.592  1.00  0.00    -0.322 N 
HETATM   15  H4  UNK     1      19.029   1.669  34.776  1.00  0.00     0.169 HD
BRANCH  14  16
HETATM   16  C5  UNK     1      18.624  -0.115  35.724  1.00  0.00     0.041 A 
HETATM   17  C13 UNK     1      19.269  -1.341  35.660  1.00  0.00     0.030 A 
HETATM   18  C16 UNK     1      19.226  -2.192  36.764  1.00  0.00     0.002 A 
HETATM   19  C17 UNK     1      18.541  -1.806  37.917  1.00  0.00     0.001 A 
HETATM   20  C14 UNK     1      17.898  -0.569  37.965  1.00  0.00     0.009 A 
HETATM   21  C7  UNK     1      17.940   0.281  36.860  1.00  0.00    -0.035 A 
HETATM   22  C15 UNK     1      17.242   1.601  36.939  1.00  0.00     0.050 C 
ENDBRANCH  14  16
ENDBRANCH   5  12
BRANCH   9  23
HETATM   23  N2  UNK     1      17.635   7.608  32.074  1.00  0.00    -0.116 N 
HETATM   24  O4  UNK     1      16.733   8.216  31.450  1.00  0.00    -0.532 OA
HETATM   25  O5  UNK     1      18.191   8.097  33.086  1.00  0.00    -0.532 OA
ENDBRANCH   9  23
TORSDOF 3
ENDMDL
MODEL 6
REMARK VINA RESULT:      -8.7     19.625     22.335
REMARK  3 active torsions:
REMARK  status: ('A' for Active; 'I' for Inactive)
REMARK    1  A    between atoms: C5_12  and  N1_6 
REMARK       I    between atoms: C8_15  and  N1_6 
REMARK    2  A    between atoms: C10_17  and  N2_7 
REMARK    3  A    between atoms: C3_10  and  C8_15 
ROOT
HETATM    1  O1  UNK     1      19.483  -1.594  34.218  1.00  0.00    -0.274 OA
HETATM    2  O3  UNK     1      20.924  -3.363  34.110  1.00  0.00    -0.259 OA
HETATM    3  C1  UNK     1      18.108  -1.283  36.198  1.00  0.00     0.001 A 
HETATM    4  C2  UNK     1      18.509  -0.870  34.932  1.00  0.00     0.089 A 
HETATM    5  C3  UNK     1      19.636  -3.160  36.089  1.00  0.00     0.108 A 
HETATM    6  C4  UNK     1      18.712  -2.475  36.773  1.00  0.00     0.037 A 
HETATM    7  C6  UNK     1      17.140  -0.538  36.876  1.00  0.00     0.050 A 
HETATM    8  C9  UNK     1      17.971   0.263  34.325  1.00  0.00     0.041 A 
HETATM    9  C10 UNK     1      16.590   0.601  36.280  1.00  0.00     0.103 A 
HETATM   10  C11 UNK     1      20.078  -2.739  34.741  1.00  0.00     0.304 A 
HETATM   11  C12 UNK     1      17.005   1.000  35.008  1.00  0.00     0.039 A 
ENDROOT
BRANCH   5  12
HETATM   12  C8  UNK     1      20.187  -4.348  36.753  1.00  0.00     0.262 C 
HETATM   13  O2  UNK     1      21.396  -4.424  36.964  1.00  0.00    -0.267 OA
HETATM   14  N1  UNK     1      19.203  -5.276  37.066  1.00  0.00    -0.322 N 
HETATM   15  H4  UNK     1      18.243  -5.038  36.836  1.00  0.00     0.169 HD
BRANCH  14  16
HETATM   16  C5  UNK     1      19.370  -6.529  37.704  1.00  0.00     0.041 A 
HETATM   17  C13 UNK     1      20.050  -6.570  38.911  1.00  0.00     0.030 A 
HETATM   18  C16 UNK     1      20.225  -7.795  39.555  1.00  0.00     0.002 A 
HETATM   19  C17 UNK     1      19.717  -8.962  38.983  1.00  0.00     0.001 A 
HETATM   20  C14 UNK     1      19.034  -8.904  37.768  1.00  0.00     0.009 A 
HETATM   21  C7  UNK     1      18.860  -7.679  37.125  1.00  0.00    -0.035 A 
HETATM   22  C15 UNK     1      18.124  -7.646  35.824  1.00  0.00     0.050 C 
ENDBRANCH  14  16
ENDBRANCH   5  12
BRANCH   9  23
HETATM   23  N2  UNK     1      15.606   1.355  36.972  1.00  0.00    -0.116 N 
HETATM   24  O4  UNK     1      14.395   1.159  36.710  1.00  0.00    -0.532 OA
HETATM   25  O5  UNK     1      15.974   2.195  37.827  1.00  0.00    -0.532 OA
ENDBRANCH   9  23
TORSDOF 3
ENDMDL
MODEL 7
REMARK VINA RESULT:      -8.6     20.233     21.783
REMARK  3 active torsions:
REMARK  status: ('A' for Active; 'I' for Inactive)
REMARK    1  A    between atoms: C5_12  and  N1_6 
REMARK       I    between atoms: C8_15  and  N1_6 
REMARK    2  A    between atoms: C10_17  and  N2_7 
REMARK    3  A    between atoms: C3_10  and  C8_15 
ROOT
HETATM    1  O1  UNK     1      18.717  -8.150  36.926  1.00  0.00    -0.274 OA
HETATM    2  O3  UNK     1      17.572  -6.213  37.318  1.00  0.00    -0.259 OA
HETATM    3  C1  UNK     1      21.130  -8.082  36.637  1.00  0.00     0.001 A 
HETATM    4  C2  UNK     1      19.942  -8.804  36.689  1.00  0.00     0.089 A 
HETATM    5  C3  UNK     1      19.920  -6.026  37.054  1.00  0.00     0.108 A 
HETATM    6  C4  UNK     1      21.087  -6.642  36.831  1.00  0.00     0.037 A 
HETATM    7  C6  UNK     1      22.325  -8.766  36.400  1.00  0.00     0.050 A 
HETATM    8  C9  UNK     1      19.914 -10.186  36.511  1.00  0.00     0.041 A 
HETATM    9  C10 UNK     1      22.313 -10.152  36.220  1.00  0.00     0.103 A 
HETATM   10  C11 UNK     1      18.644  -6.773  37.114  1.00  0.00     0.304 A 
HETATM   11  C12 UNK     1      21.110 -10.860  36.276  1.00  0.00     0.039 A 
ENDROOT
BRANCH   5  12
HETATM   12  C8  UNK     1      19.978  -4.570  37.238  1.00  0.00     0.262 C 
HETATM   13  O2  UNK     1      20.865  -4.078  37.935  1.00  0.00    -0.267 OA
HETATM   14  N1  UNK     1      18.962  -3.914  36.557  1.00  0.00    -0.322 N 
HETATM   15  H4  UNK     1      18.324  -4.482  36.007  1.00  0.00     0.169 HD
BRANCH  14  16
HETATM   16  C5  UNK     1      18.712  -2.521  36.510  1.00  0.00     0.041 A 
HETATM   17  C13 UNK     1      17.916  -1.961  37.497  1.00  0.00     0.030 A 
HETATM   18  C16 UNK     1      17.657  -0.591  37.468  1.00  0.00     0.002 A 
HETATM   19  C17 UNK     1      18.198   0.200  36.454  1.00  0.00     0.001 A 
HETATM   20  C14 UNK     1      18.997  -0.379  35.469  1.00  0.00     0.009 A 
HETATM   21  C7  UNK     1      19.255  -1.750  35.498  1.00  0.00    -0.035 A 
HETATM   22  C15 UNK     1      20.116  -2.344  34.430  1.00  0.00     0.050 C 
ENDBRANCH  14  16
ENDBRANCH   5  12
BRANCH   9  23
HETATM   23  N2  UNK     1      23.530 -10.844  35.980  1.00  0.00    -0.116 N 
HETATM   24  O4  UNK     1      23.496 -11.939  35.368  1.00  0.00    -0.532 OA
HETATM   25  O5  UNK     1      24.605 -10.341  36.384  1.00  0.00    -0.532 OA
ENDBRANCH   9  23
TORSDOF 3
ENDMDL
MODEL 8
REMARK VINA RESULT:      -8.6     18.371     20.684
REMARK  3 active torsions:
REMARK  status: ('A' for Active; 'I' for Inactive)
REMARK    1  A    between atoms: C5_12  and  N1_6 
REMARK       I    between atoms: C8_15  and  N1_6 
REMARK    2  A    between atoms: C10_17  and  N2_7 
REMARK    3  A    between atoms: C3_10  and  C8_15 
ROOT
HETATM    1  O1  UNK     1      17.863   2.073  32.538  1.00  0.00    -0.274 OA
HETATM    2  O3  UNK     1      18.172   3.746  31.013  1.00  0.00    -0.259 OA
HETATM    3  C1  UNK     1      18.272   2.506  34.895  1.00  0.00     0.001 A 
HETATM    4  C2  UNK     1      17.896   1.637  33.876  1.00  0.00     0.089 A 
HETATM    5  C3  UNK     1      18.600   4.283  33.281  1.00  0.00     0.108 A 
HETATM    6  C4  UNK     1      18.632   3.873  34.555  1.00  0.00     0.037 A 
HETATM    7  C6  UNK     1      18.292   2.036  36.210  1.00  0.00     0.050 A 
HETATM    8  C9  UNK     1      17.539   0.314  34.134  1.00  0.00     0.041 A 
HETATM    9  C10 UNK     1      17.937   0.711  36.485  1.00  0.00     0.103 A 
HETATM   10  C11 UNK     1      18.203   3.376  32.182  1.00  0.00     0.304 A 
HETATM   11  C12 UNK     1      17.562  -0.147  35.449  1.00  0.00     0.039 A 
ENDROOT
BRANCH   5  12
HETATM   12  C8  UNK     1      18.980   5.680  33.038  1.00  0.00     0.262 C 
HETATM   13  O2  UNK     1      19.693   5.960  32.076  1.00  0.00    -0.267 OA
HETATM   14  N1  UNK     1      18.448   6.541  33.989  1.00  0.00    -0.322 N 
HETATM   15  H4  UNK     1      17.857   6.136  34.709  1.00  0.00     0.169 HD
BRANCH  14  16
HETATM   16  C5  UNK     1      18.607   7.945  34.067  1.00  0.00     0.041 A 
HETATM   17  C13 UNK     1      19.869   8.453  34.334  1.00  0.00     0.030 A 
HETATM   18  C16 UNK     1      20.046   9.833  34.416  1.00  0.00     0.002 A 
HETATM   19  C17 UNK     1      18.959  10.688  34.231  1.00  0.00     0.001 A 
HETATM   20  C14 UNK     1      17.696  10.162  33.963  1.00  0.00     0.009 A 
HETATM   21  C7  UNK     1      17.519   8.781  33.881  1.00  0.00    -0.035 A 
HETATM   22  C15 UNK     1      16.154   8.245  33.592  1.00  0.00     0.050 C 
ENDBRANCH  14  16
ENDBRANCH   5  12
BRANCH   9  23
HETATM   23  N2  UNK     1      17.959   0.237  37.823  1.00  0.00    -0.116 N 
HETATM   24  O4  UNK     1      17.927   1.068  38.763  1.00  0.00    -0.532 OA
HETATM   25  O5  UNK     1      18.007  -0.999  38.029  1.00  0.00    -0.532 OA
ENDBRANCH   9  23
TORSDOF 3
ENDMDL
MODEL 9
REMARK VINA RESULT:      -8.4     19.197     21.566
REMARK  3 active torsions:
REMARK  status: ('A' for Active; 'I' for Inactive)
REMARK    1  A    between atoms: C5_12  and  N1_6 
REMARK       I    between atoms: C8_15  and  N1_6 
REMARK    2  A    between atoms: C10_17  and  N2_7 
REMARK    3  A    between atoms: C3_10  and  C8_15 
ROOT
HETATM    1  O1  UNK     1      20.451  -6.188  34.799  1.00  0.00    -0.274 OA
HETATM    2  O3  UNK     1      20.416  -3.972  34.246  1.00  0.00    -0.259 OA
HETATM    3  C1  UNK     1      19.883  -6.871  37.062  1.00  0.00     0.001 A 
HETATM    4  C2  UNK     1      20.270  -7.196  35.766  1.00  0.00     0.089 A 
HETATM    5  C3  UNK     1      19.843  -4.520  36.480  1.00  0.00     0.108 A 
HETATM    6  C4  UNK     1      19.668  -5.474  37.402  1.00  0.00     0.037 A 
HETATM    7  C6  UNK     1      19.713  -7.899  37.993  1.00  0.00     0.050 A 
HETATM    8  C9  UNK     1      20.493  -8.515  35.375  1.00  0.00     0.041 A 
HETATM    9  C10 UNK     1      19.932  -9.227  37.616  1.00  0.00     0.103 A 
HETATM   10  C11 UNK     1      20.254  -4.842  35.095  1.00  0.00     0.304 A 
HETATM   11  C12 UNK     1      20.321  -9.534  36.310  1.00  0.00     0.039 A 
ENDROOT
BRANCH   5  12
HETATM   12  C8  UNK     1      19.602  -3.139  36.918  1.00  0.00     0.262 C 
HETATM   13  O2  UNK     1      20.224  -2.687  37.879  1.00  0.00    -0.267 OA
HETATM   14  N1  UNK     1      18.647  -2.501  36.139  1.00  0.00    -0.322 N 
HETATM   15  H4  UNK     1      18.247  -3.023  35.365  1.00  0.00     0.169 HD
BRANCH  14  16
HETATM   16  C5  UNK     1      18.167  -1.176  36.274  1.00  0.00     0.041 A 
HETATM   17  C13 UNK     1      17.770  -0.742  37.529  1.00  0.00     0.030 A 
HETATM   18  C16 UNK     1      17.293   0.559  37.683  1.00  0.00     0.002 A 
HETATM   19  C17 UNK     1      17.221   1.410  36.580  1.00  0.00     0.001 A 
HETATM   20  C14 UNK     1      17.625   0.959  35.323  1.00  0.00     0.009 A 
HETATM   21  C7  UNK     1      18.101  -0.343  35.170  1.00  0.00    -0.035 A 
HETATM   22  C15 UNK     1      18.527  -0.800  33.812  1.00  0.00     0.050 C 
ENDBRANCH  14  16
ENDBRANCH   5  12
BRANCH   9  23
HETATM   23  N2  UNK     1      19.758 -10.269  38.565  1.00  0.00    -0.116 N 
HETATM   24  O4  UNK     1      19.918 -10.014  39.783  1.00  0.00    -0.532 OA
HETATM   25  O5  UNK     1      19.448 -11.414  38.160  1.00  0.00    -0.532 OA
ENDBRANCH   9  23
TORSDOF 3
ENDMDL
MODEL 10
REMARK VINA RESULT:      -8.4     23.717     25.716
REMARK  3 active torsions:
REMARK  status: ('A' for Active; 'I' for Inactive)
REMARK    1  A    between atoms: C5_12  and  N1_6 
REMARK       I    between atoms: C8_15  and  N1_6 
REMARK    2  A    between atoms: C10_17  and  N2_7 
REMARK    3  A    between atoms: C3_10  and  C8_15 
ROOT
HETATM    1  O1  UNK     1      27.522  -4.782  38.693  1.00  0.00    -0.274 OA
HETATM    2  O3  UNK     1      25.289  -5.209  38.916  1.00  0.00    -0.259 OA
HETATM    3  C1  UNK     1      29.082  -6.632  38.463  1.00  0.00     0.001 A 
HETATM    4  C2  UNK     1      28.836  -5.265  38.538  1.00  0.00     0.089 A 
HETATM    5  C3  UNK     1      26.715  -7.090  38.698  1.00  0.00     0.108 A 
HETATM    6  C4  UNK     1      27.962  -7.554  38.549  1.00  0.00     0.037 A 
HETATM    7  C6  UNK     1      30.399  -7.073  38.308  1.00  0.00     0.050 A 
HETATM    8  C9  UNK     1      29.865  -4.329  38.462  1.00  0.00     0.041 A 
HETATM    9  C10 UNK     1      31.442  -6.145  38.231  1.00  0.00     0.103 A 
HETATM   10  C11 UNK     1      26.429  -5.640  38.779  1.00  0.00     0.304 A 
HETATM   11  C12 UNK     1      31.176  -4.777  38.308  1.00  0.00     0.039 A 
ENDROOT
BRANCH   5  12
HETATM   12  C8  UNK     1      25.651  -8.098  38.774  1.00  0.00     0.262 C 
HETATM   13  O2  UNK     1      25.811  -9.103  39.465  1.00  0.00    -0.267 OA
HETATM   14  N1  UNK     1      24.546  -7.753  38.008  1.00  0.00    -0.322 N 
HETATM   15  H4  UNK     1      24.576  -6.867  37.514  1.00  0.00     0.169 HD
BRANCH  14  16
HETATM   16  C5  UNK     1      23.345  -8.485  37.845  1.00  0.00     0.041 A 
HETATM   17  C13 UNK     1      23.233  -9.337  36.758  1.00  0.00     0.030 A 
HETATM   18  C16 UNK     1      22.058 -10.066  36.580  1.00  0.00     0.002 A 
HETATM   19  C17 UNK     1      21.010  -9.934  37.491  1.00  0.00     0.001 A 
HETATM   20  C14 UNK     1      21.138  -9.072  38.581  1.00  0.00     0.009 A 
HETATM   21  C7  UNK     1      22.313  -8.343  38.758  1.00  0.00    -0.035 A 
HETATM   22  C15 UNK     1      22.423  -7.428  39.935  1.00  0.00     0.050 C 
ENDBRANCH  14  16
ENDBRANCH   5  12
BRANCH   9  23
HETATM   23  N2  UNK     1      32.780  -6.598  38.073  1.00  0.00    -0.116 N 
HETATM   24  O4  UNK     1      33.004  -7.831  38.039  1.00  0.00    -0.532 OA
HETATM   25  O5  UNK     1      33.699  -5.751  37.971  1.00  0.00    -0.532 OA
ENDBRANCH   9  23
TORSDOF 3
ENDMDL
