MODEL 1
REMARK VINA RESULT:      -9.0      0.000      0.000
REMARK  6 active torsions:
REMARK  status: ('A' for Active; 'I' for Inactive)
REMARK    1  A    between atoms: C17_25  and  O1_1 
REMARK    2  A    between atoms: C8_16  and  O1_1 
REMARK    3  A    between atoms: C18_26  and  O3_3 
REMARK    4  A    between atoms: C18_26  and  C2_10 
REMARK    5  A    between atoms: C16_24  and  C5_13 
REMARK    6  A    between atoms: C17_25  and  C9_17 
ROOT
HETATM    1  O2  UNK     1      28.634  -9.376  36.545  1.00  0.00    -0.292 OA
HETATM    2  N1  UNK     1      31.197  -5.470  37.322  1.00  0.00    -0.362 N 
HETATM    3  C1  UNK     1      28.130  -6.820  39.068  1.00  0.00     0.008 C 
HETATM    4  C2  UNK     1      28.303  -8.290  38.665  1.00  0.00     0.164 C 
HETATM    5  C3  UNK     1      29.901  -7.393  36.836  1.00  0.00     0.025 C 
HETATM    6  C4  UNK     1      29.489  -6.112  38.965  1.00  0.00     0.063 C 
HETATM    7  C5  UNK     1      30.603  -7.558  35.491  1.00  0.00     0.104 C 
HETATM    8  C6  UNK     1      30.196  -6.361  37.657  1.00  0.00     0.020 C 
HETATM    9  C7  UNK     1      28.902  -8.421  37.273  1.00  0.00     0.172 C 
HETATM   10  C9  UNK     1      31.809  -6.624  35.348  1.00  0.00     0.052 C 
HETATM   11  C14 UNK     1      32.034  -5.621  36.228  1.00  0.00     0.018 C 
HETATM   12  C15 UNK     1      27.059  -6.084  38.246  1.00  0.00     0.011 C 
HETATM   13  C19 UNK     1      33.152  -4.618  36.139  1.00  0.00     0.069 C 
HETATM   14  H15 UNK     1      31.394  -4.714  37.966  1.00  0.00     0.165 HD
ENDROOT
BRANCH   7  15
HETATM   15  C16 UNK     1      29.636  -7.336  34.356  1.00  0.00     0.029 A 
HETATM   16  C20 UNK     1      29.572  -8.346  33.270  1.00  0.00     0.194 A 
HETATM   17  C22 UNK     1      28.610  -8.079  32.184  1.00  0.00     0.048 A 
HETATM   18  O7  UNK     1      30.276  -9.348  33.270  1.00  0.00    -0.287 OA
HETATM   19  C23 UNK     1      27.832  -6.922  32.236  1.00  0.00     0.089 A 
HETATM   20  C24 UNK     1      28.475  -8.970  31.117  1.00  0.00     0.018 A 
HETATM   21  O4  UNK     1      27.923  -6.013  33.260  1.00  0.00    -0.321 OA
HETATM   22  C26 UNK     1      26.916  -6.650  31.221  1.00  0.00     0.038 A 
HETATM   23  C21 UNK     1      28.823  -6.275  34.264  1.00  0.00     0.154 A 
HETATM   24  C28 UNK     1      26.780  -7.537  30.153  1.00  0.00     0.003 A 
HETATM   25  C27 UNK     1      27.558  -8.696  30.102  1.00  0.00     0.001 A 
ENDBRANCH   7  15
BRANCH  10  26
HETATM   26  C17 UNK     1      32.738  -6.907  34.241  1.00  0.00     0.292 C 
HETATM   27  O5  UNK     1      32.581  -6.480  33.112  1.00  0.00    -0.259 OA
BRANCH  26  28
HETATM   28  O1  UNK     1      33.739  -7.689  34.711  1.00  0.00    -0.312 OA
BRANCH  28  29
HETATM   29  C8  UNK     1      34.989  -7.507  34.079  1.00  0.00     0.132 C 
HETATM   30  C10 UNK     1      36.040  -6.980  35.045  1.00  0.00     0.032 C 
HETATM   31  C12 UNK     1      37.365  -7.356  34.394  1.00  0.00     0.002 C 
HETATM   32  C13 UNK     1      37.065  -8.544  33.476  1.00  0.00     0.002 C 
HETATM   33  C11 UNK     1      35.580  -8.837  33.641  1.00  0.00     0.032 C 
ENDBRANCH  28  29
ENDBRANCH  26  28
ENDBRANCH  10  26
BRANCH   4  34
HETATM   34  C18 UNK     1      27.021  -9.045  38.843  1.00  0.00     0.270 C 
HETATM   35  O6  UNK     1      26.110  -9.053  38.027  1.00  0.00    -0.264 OA
BRANCH  34  36
HETATM   36  O3  UNK     1      27.042  -9.704  40.037  1.00  0.00    -0.326 OA
HETATM   37  C25 UNK     1      28.267 -10.375  40.348  1.00  0.00     0.213 C 
ENDBRANCH  34  36
ENDBRANCH   4  34
TORSDOF 6
ENDMDL
MODEL 2
REMARK VINA RESULT:      -8.9      2.092      2.663
REMARK  6 active torsions:
REMARK  status: ('A' for Active; 'I' for Inactive)
REMARK    1  A    between atoms: C17_25  and  O1_1 
REMARK    2  A    between atoms: C8_16  and  O1_1 
REMARK    3  A    between atoms: C18_26  and  O3_3 
REMARK    4  A    between atoms: C18_26  and  C2_10 
REMARK    5  A    between atoms: C16_24  and  C5_13 
REMARK    6  A    between atoms: C17_25  and  C9_17 
ROOT
HETATM    1  O2  UNK     1      29.312  -8.050  36.582  1.00  0.00    -0.292 OA
HETATM    2  N1  UNK     1      33.529  -5.900  36.750  1.00  0.00    -0.362 N 
HETATM    3  C1  UNK     1      30.351  -5.300  38.706  1.00  0.00     0.008 C 
HETATM    4  C2  UNK     1      29.739  -6.695  38.522  1.00  0.00     0.164 C 
HETATM    5  C3  UNK     1      31.415  -6.953  36.566  1.00  0.00     0.025 C 
HETATM    6  C4  UNK     1      31.869  -5.389  38.487  1.00  0.00     0.063 C 
HETATM    7  C5  UNK     1      31.830  -7.613  35.253  1.00  0.00     0.104 C 
HETATM    8  C6  UNK     1      32.249  -6.118  37.223  1.00  0.00     0.020 C 
HETATM    9  C7  UNK     1      30.078  -7.278  37.159  1.00  0.00     0.172 C 
HETATM   10  C9  UNK     1      33.324  -7.437  34.963  1.00  0.00     0.052 C 
HETATM   11  C14 UNK     1      34.088  -6.584  35.683  1.00  0.00     0.018 C 
HETATM   12  C15 UNK     1      29.723  -4.232  37.794  1.00  0.00     0.011 C 
HETATM   13  C19 UNK     1      35.544  -6.297  35.436  1.00  0.00     0.069 C 
HETATM   14  H15 UNK     1      34.127  -5.272  37.275  1.00  0.00     0.165 HD
ENDROOT
BRANCH   7  15
HETATM   15  C16 UNK     1      31.010  -7.076  34.107  1.00  0.00     0.029 A 
HETATM   16  C20 UNK     1      30.143  -8.016  33.354  1.00  0.00     0.194 A 
HETATM   17  C22 UNK     1      29.364  -7.440  32.242  1.00  0.00     0.048 A 
HETATM   18  O7  UNK     1      30.074  -9.206  33.634  1.00  0.00    -0.287 OA
HETATM   19  C23 UNK     1      29.481  -6.076  31.967  1.00  0.00     0.089 A 
HETATM   20  C24 UNK     1      28.518  -8.242  31.472  1.00  0.00     0.018 A 
HETATM   21  O4  UNK     1      30.296  -5.242  32.690  1.00  0.00    -0.321 OA
HETATM   22  C26 UNK     1      28.754  -5.510  30.921  1.00  0.00     0.038 A 
HETATM   23  C21 UNK     1      31.015  -5.793  33.722  1.00  0.00     0.154 A 
HETATM   24  C28 UNK     1      27.909  -6.309  30.151  1.00  0.00     0.003 A 
HETATM   25  C27 UNK     1      27.792  -7.673  30.426  1.00  0.00     0.001 A 
ENDBRANCH   7  15
BRANCH  10  26
HETATM   26  C17 UNK     1      33.896  -8.282  33.901  1.00  0.00     0.292 C 
HETATM   27  O5  UNK     1      33.990  -9.492  33.989  1.00  0.00    -0.259 OA
BRANCH  26  28
HETATM   28  O1  UNK     1      34.269  -7.482  32.873  1.00  0.00    -0.312 OA
BRANCH  28  29
HETATM   29  C8  UNK     1      34.060  -8.026  31.585  1.00  0.00     0.132 C 
HETATM   30  C10 UNK     1      32.805  -7.466  30.933  1.00  0.00     0.032 C 
HETATM   31  C12 UNK     1      33.024  -7.702  29.443  1.00  0.00     0.002 C 
HETATM   32  C13 UNK     1      34.539  -7.800  29.247  1.00  0.00     0.002 C 
HETATM   33  C11 UNK     1      35.155  -7.592  30.625  1.00  0.00     0.032 C 
ENDBRANCH  28  29
ENDBRANCH  26  28
ENDBRANCH  10  26
BRANCH   4  34
HETATM   34  C18 UNK     1      28.271  -6.675  38.822  1.00  0.00     0.270 C 
HETATM   35  O6  UNK     1      27.446  -6.051  38.169  1.00  0.00    -0.264 OA
BRANCH  34  36
HETATM   36  O3  UNK     1      28.019  -7.449  39.916  1.00  0.00    -0.326 OA
HETATM   37  C25 UNK     1      27.532  -8.766  39.639  1.00  0.00     0.213 C 
ENDBRANCH  34  36
ENDBRANCH   4  34
TORSDOF 6
ENDMDL
MODEL 3
REMARK VINA RESULT:      -8.9      1.718      2.230
REMARK  6 active torsions:
REMARK  status: ('A' for Active; 'I' for Inactive)
REMARK    1  A    between atoms: C17_25  and  O1_1 
REMARK    2  A    between atoms: C8_16  and  O1_1 
REMARK    3  A    between atoms: C18_26  and  O3_3 
REMARK    4  A    between atoms: C18_26  and  C2_10 
REMARK    5  A    between atoms: C16_24  and  C5_13 
REMARK    6  A    between atoms: C17_25  and  C9_17 
ROOT
HETATM    1  O2  UNK     1      28.966  -8.884  36.703  1.00  0.00    -0.292 OA
HETATM    2  N1  UNK     1      32.439  -5.666  36.827  1.00  0.00    -0.362 N 
HETATM    3  C1  UNK     1      29.312  -6.034  38.919  1.00  0.00     0.008 C 
HETATM    4  C2  UNK     1      29.096  -7.536  38.689  1.00  0.00     0.164 C 
HETATM    5  C3  UNK     1      30.686  -7.252  36.666  1.00  0.00     0.025 C 
HETATM    6  C4  UNK     1      30.785  -5.695  38.643  1.00  0.00     0.063 C 
HETATM    7  C5  UNK     1      31.203  -7.724  35.309  1.00  0.00     0.104 C 
HETATM    8  C6  UNK     1      31.290  -6.245  37.333  1.00  0.00     0.020 C 
HETATM    9  C7  UNK     1      29.517  -7.954  37.289  1.00  0.00     0.172 C 
HETATM   10  C9  UNK     1      32.577  -7.134  34.976  1.00  0.00     0.052 C 
HETATM   11  C14 UNK     1      33.112  -6.131  35.709  1.00  0.00     0.018 C 
HETATM   12  C15 UNK     1      28.375  -5.148  38.082  1.00  0.00     0.011 C 
HETATM   13  C19 UNK     1      34.422  -5.447  35.426  1.00  0.00     0.069 C 
HETATM   14  H15 UNK     1      32.867  -4.918  37.360  1.00  0.00     0.165 HD
ENDROOT
BRANCH   7  15
HETATM   15  C16 UNK     1      30.216  -7.391  34.220  1.00  0.00     0.029 A 
HETATM   16  C20 UNK     1      29.827  -8.458  33.264  1.00  0.00     0.194 A 
HETATM   17  C22 UNK     1      28.860  -8.079  32.217  1.00  0.00     0.048 A 
HETATM   18  O7  UNK     1      30.282  -9.593  33.335  1.00  0.00    -0.287 OA
HETATM   19  C23 UNK     1      28.374  -6.771  32.185  1.00  0.00     0.089 A 
HETATM   20  C24 UNK     1      28.431  -9.013  31.270  1.00  0.00     0.018 A 
HETATM   21  O4  UNK     1      28.760  -5.814  33.089  1.00  0.00    -0.321 OA
HETATM   22  C26 UNK     1      27.459  -6.390  31.204  1.00  0.00     0.038 A 
HETATM   23  C21 UNK     1      29.662  -6.182  34.057  1.00  0.00     0.154 A 
HETATM   24  C28 UNK     1      27.030  -7.320  30.257  1.00  0.00     0.003 A 
HETATM   25  C27 UNK     1      27.515  -8.629  30.290  1.00  0.00     0.001 A 
ENDBRANCH   7  15
BRANCH  10  26
HETATM   26  C17 UNK     1      33.308  -7.750  33.855  1.00  0.00     0.292 C 
HETATM   27  O5  UNK     1      33.931  -8.791  33.956  1.00  0.00    -0.259 OA
BRANCH  26  28
HETATM   28  O1  UNK     1      33.151  -6.967  32.761  1.00  0.00    -0.312 OA
BRANCH  28  29
HETATM   29  C8  UNK     1      33.122  -7.659  31.529  1.00  0.00     0.132 C 
HETATM   30  C10 UNK     1      32.013  -7.149  30.620  1.00  0.00     0.032 C 
HETATM   31  C12 UNK     1      32.453  -7.573  29.224  1.00  0.00     0.002 C 
HETATM   32  C13 UNK     1      33.974  -7.737  29.289  1.00  0.00     0.002 C 
HETATM   33  C11 UNK     1      34.374  -7.378  30.715  1.00  0.00     0.032 C 
ENDBRANCH  28  29
ENDBRANCH  26  28
ENDBRANCH  10  26
BRANCH   4  34
HETATM   34  C18 UNK     1      27.694  -7.931  39.041  1.00  0.00     0.270 C 
HETATM   35  O6  UNK     1      26.699  -7.514  38.465  1.00  0.00    -0.264 OA
BRANCH  34  36
HETATM   36  O3  UNK     1      27.716  -8.811  40.083  1.00  0.00    -0.326 OA
HETATM   37  C25 UNK     1      27.320 -10.149  39.768  1.00  0.00     0.213 C 
ENDBRANCH  34  36
ENDBRANCH   4  34
TORSDOF 6
ENDMDL
MODEL 4
REMARK VINA RESULT:      -8.7      2.426      3.576
REMARK  6 active torsions:
REMARK  status: ('A' for Active; 'I' for Inactive)
REMARK    1  A    between atoms: C17_25  and  O1_1 
REMARK    2  A    between atoms: C8_16  and  O1_1 
REMARK    3  A    between atoms: C18_26  and  O3_3 
REMARK    4  A    between atoms: C18_26  and  C2_10 
REMARK    5  A    between atoms: C16_24  and  C5_13 
REMARK    6  A    between atoms: C17_25  and  C9_17 
ROOT
HETATM    1  O2  UNK     1      29.560  -9.966  35.780  1.00  0.00    -0.292 OA
HETATM    2  N1  UNK     1      33.951  -8.214  35.490  1.00  0.00    -0.362 N 
HETATM    3  C1  UNK     1      31.340  -7.946  38.210  1.00  0.00     0.008 C 
HETATM    4  C2  UNK     1      30.539  -9.201  37.838  1.00  0.00     0.164 C 
HETATM    5  C3  UNK     1      31.732  -9.042  35.547  1.00  0.00     0.025 C 
HETATM    6  C4  UNK     1      32.758  -8.073  37.633  1.00  0.00     0.063 C 
HETATM    7  C5  UNK     1      31.785  -9.357  34.054  1.00  0.00     0.104 C 
HETATM    8  C6  UNK     1      32.778  -8.465  36.177  1.00  0.00     0.020 C 
HETATM    9  C7  UNK     1      30.516  -9.425  36.335  1.00  0.00     0.172 C 
HETATM   10  C9  UNK     1      33.197  -9.208  33.480  1.00  0.00     0.052 C 
HETATM   11  C14 UNK     1      34.191  -8.626  34.190  1.00  0.00     0.018 C 
HETATM   12  C15 UNK     1      30.673  -6.638  37.755  1.00  0.00     0.011 C 
HETATM   13  C19 UNK     1      35.589  -8.380  33.692  1.00  0.00     0.069 C 
HETATM   14  H15 UNK     1      34.716  -7.787  35.999  1.00  0.00     0.165 HD
ENDROOT
BRANCH   7  15
HETATM   15  C16 UNK     1      30.819  -8.485  33.294  1.00  0.00     0.029 A 
HETATM   16  C20 UNK     1      29.841  -9.135  32.385  1.00  0.00     0.194 A 
HETATM   17  C22 UNK     1      28.920  -8.236  31.663  1.00  0.00     0.048 A 
HETATM   18  O7  UNK     1      29.796 -10.350  32.237  1.00  0.00    -0.287 OA
HETATM   19  C23 UNK     1      29.016  -6.859  31.871  1.00  0.00     0.089 A 
HETATM   20  C24 UNK     1      27.964  -8.751  30.785  1.00  0.00     0.018 A 
HETATM   21  O4  UNK     1      29.936  -6.300  32.721  1.00  0.00    -0.321 OA
HETATM   22  C26 UNK     1      28.156  -5.991  31.200  1.00  0.00     0.038 A 
HETATM   23  C21 UNK     1      30.786  -7.149  33.385  1.00  0.00     0.154 A 
HETATM   24  C28 UNK     1      27.200  -6.502  30.322  1.00  0.00     0.003 A 
HETATM   25  C27 UNK     1      27.104  -7.879  30.115  1.00  0.00     0.001 A 
ENDBRANCH   7  15
BRANCH  10  26
HETATM   26  C17 UNK     1      33.431  -9.778  32.142  1.00  0.00     0.292 C 
HETATM   27  O5  UNK     1      33.506 -10.975  31.930  1.00  0.00    -0.259 OA
BRANCH  26  28
HETATM   28  O1  UNK     1      33.538  -8.759  31.256  1.00  0.00    -0.312 OA
BRANCH  28  29
HETATM   29  C8  UNK     1      32.385  -8.523  30.473  1.00  0.00     0.132 C 
HETATM   30  C10 UNK     1      32.263  -7.060  30.075  1.00  0.00     0.032 C 
HETATM   31  C12 UNK     1      31.352  -7.083  28.852  1.00  0.00     0.002 C 
HETATM   32  C13 UNK     1      31.482  -8.485  28.252  1.00  0.00     0.002 C 
HETATM   33  C11 UNK     1      32.484  -9.226  29.129  1.00  0.00     0.032 C 
ENDBRANCH  28  29
ENDBRANCH  26  28
ENDBRANCH  10  26
BRANCH   4  34
HETATM   34  C18 UNK     1      29.177  -9.166  38.464  1.00  0.00     0.270 C 
HETATM   35  O6  UNK     1      28.334  -8.312  38.225  1.00  0.00    -0.264 OA
BRANCH  34  36
HETATM   36  O3  UNK     1      29.042 -10.219  39.320  1.00  0.00    -0.326 OA
HETATM   37  C25 UNK     1      27.912 -10.158  40.196  1.00  0.00     0.213 C 
ENDBRANCH  34  36
ENDBRANCH   4  34
TORSDOF 6
ENDMDL
MODEL 5
REMARK VINA RESULT:      -8.6      2.304      3.079
REMARK  6 active torsions:
REMARK  status: ('A' for Active; 'I' for Inactive)
REMARK    1  A    between atoms: C17_25  and  O1_1 
REMARK    2  A    between atoms: C8_16  and  O1_1 
REMARK    3  A    between atoms: C18_26  and  O3_3 
REMARK    4  A    between atoms: C18_26  and  C2_10 
REMARK    5  A    between atoms: C16_24  and  C5_13 
REMARK    6  A    between atoms: C17_25  and  C9_17 
ROOT
HETATM    1  O2  UNK     1      29.138  -8.003  36.576  1.00  0.00    -0.292 OA
HETATM    2  N1  UNK     1      33.572  -6.341  36.472  1.00  0.00    -0.362 N 
HETATM    3  C1  UNK     1      30.586  -5.333  38.558  1.00  0.00     0.008 C 
HETATM    4  C2  UNK     1      29.813  -6.654  38.448  1.00  0.00     0.164 C 
HETATM    5  C3  UNK     1      31.347  -7.152  36.423  1.00  0.00     0.025 C 
HETATM    6  C4  UNK     1      32.071  -5.600  38.269  1.00  0.00     0.063 C 
HETATM    7  C5  UNK     1      31.617  -7.889  35.114  1.00  0.00     0.104 C 
HETATM    8  C6  UNK     1      32.301  -6.400  37.012  1.00  0.00     0.020 C 
HETATM    9  C7  UNK     1      30.014  -7.308  37.090  1.00  0.00     0.172 C 
HETATM   10  C9  UNK     1      33.104  -7.892  34.746  1.00  0.00     0.052 C 
HETATM   11  C14 UNK     1      33.995  -7.112  35.401  1.00  0.00     0.018 C 
HETATM   12  C15 UNK     1      30.036  -4.225  37.644  1.00  0.00     0.011 C 
HETATM   13  C19 UNK     1      35.460  -7.000  35.076  1.00  0.00     0.069 C 
HETATM   14  H15 UNK     1      34.263  -5.772  36.946  1.00  0.00     0.165 HD
ENDROOT
BRANCH   7  15
HETATM   15  C16 UNK     1      30.805  -7.293  33.992  1.00  0.00     0.029 A 
HETATM   16  C20 UNK     1      29.831  -8.160  33.283  1.00  0.00     0.194 A 
HETATM   17  C22 UNK     1      29.064  -7.528  32.193  1.00  0.00     0.048 A 
HETATM   18  O7  UNK     1      29.668  -9.337  33.581  1.00  0.00    -0.287 OA
HETATM   19  C23 UNK     1      29.289  -6.183  31.897  1.00  0.00     0.089 A 
HETATM   20  C24 UNK     1      28.122  -8.260  31.466  1.00  0.00     0.018 A 
HETATM   21  O4  UNK     1      30.201  -5.417  32.578  1.00  0.00    -0.321 OA
HETATM   22  C26 UNK     1      28.576  -5.565  30.871  1.00  0.00     0.038 A 
HETATM   23  C21 UNK     1      30.908  -6.019  33.590  1.00  0.00     0.154 A 
HETATM   24  C28 UNK     1      27.636  -6.294  30.143  1.00  0.00     0.003 A 
HETATM   25  C27 UNK     1      27.409  -7.639  30.439  1.00  0.00     0.001 A 
ENDBRANCH   7  15
BRANCH  10  26
HETATM   26  C17 UNK     1      33.522  -8.824  33.686  1.00  0.00     0.292 C 
HETATM   27  O5  UNK     1      33.822  -8.465  32.561  1.00  0.00    -0.259 OA
BRANCH  26  28
HETATM   28  O1  UNK     1      33.506 -10.081  34.189  1.00  0.00    -0.312 OA
BRANCH  28  29
HETATM   29  C8  UNK     1      32.728 -11.008  33.460  1.00  0.00     0.132 C 
HETATM   30  C10 UNK     1      33.592 -12.056  32.775  1.00  0.00     0.032 C 
HETATM   31  C12 UNK     1      32.640 -13.220  32.528  1.00  0.00     0.002 C 
HETATM   32  C13 UNK     1      31.517 -13.075  33.558  1.00  0.00     0.002 C 
HETATM   33  C11 UNK     1      31.865 -11.847  34.389  1.00  0.00     0.032 C 
ENDBRANCH  28  29
ENDBRANCH  26  28
ENDBRANCH  10  26
BRANCH   4  34
HETATM   34  C18 UNK     1      28.374  -6.459  38.817  1.00  0.00     0.270 C 
HETATM   35  O6  UNK     1      27.616  -5.690  38.242  1.00  0.00    -0.264 OA
BRANCH  34  36
HETATM   36  O3  UNK     1      28.062  -7.263  39.874  1.00  0.00    -0.326 OA
HETATM   37  C25 UNK     1      27.364  -8.468  39.546  1.00  0.00     0.213 C 
ENDBRANCH  34  36
ENDBRANCH   4  34
TORSDOF 6
ENDMDL
MODEL 6
REMARK VINA RESULT:      -8.5      2.159      6.423
REMARK  6 active torsions:
REMARK  status: ('A' for Active; 'I' for Inactive)
REMARK    1  A    between atoms: C17_25  and  O1_1 
REMARK    2  A    between atoms: C8_16  and  O1_1 
REMARK    3  A    between atoms: C18_26  and  O3_3 
REMARK    4  A    between atoms: C18_26  and  C2_10 
REMARK    5  A    between atoms: C16_24  and  C5_13 
REMARK    6  A    between atoms: C17_25  and  C9_17 
ROOT
HETATM    1  O2  UNK     1      30.225  -9.255  31.693  1.00  0.00    -0.292 OA
HETATM    2  N1  UNK     1      28.056  -6.486  34.866  1.00  0.00    -0.362 N 
HETATM    3  C1  UNK     1      27.877  -6.557  31.091  1.00  0.00     0.008 C 
HETATM    4  C2  UNK     1      28.326  -8.011  30.899  1.00  0.00     0.164 C 
HETATM    5  C3  UNK     1      29.231  -7.842  33.318  1.00  0.00     0.025 C 
HETATM    6  C4  UNK     1      27.337  -6.387  32.520  1.00  0.00     0.063 C 
HETATM    7  C5  UNK     1      30.178  -8.319  34.417  1.00  0.00     0.104 C 
HETATM    8  C6  UNK     1      28.258  -6.942  33.577  1.00  0.00     0.020 C 
HETATM    9  C7  UNK     1      29.354  -8.421  31.942  1.00  0.00     0.172 C 
HETATM   10  C9  UNK     1      29.714  -7.886  35.811  1.00  0.00     0.052 C 
HETATM   11  C14 UNK     1      28.719  -6.984  35.976  1.00  0.00     0.018 C 
HETATM   12  C15 UNK     1      28.984  -5.531  30.793  1.00  0.00     0.011 C 
HETATM   13  C19 UNK     1      28.235  -6.452  37.298  1.00  0.00     0.069 C 
HETATM   14  H15 UNK     1      27.312  -5.817  35.021  1.00  0.00     0.165 HD
ENDROOT
BRANCH   7  15
HETATM   15  C16 UNK     1      31.580  -7.827  34.159  1.00  0.00     0.029 A 
HETATM   16  C20 UNK     1      32.675  -8.824  34.062  1.00  0.00     0.194 A 
HETATM   17  C22 UNK     1      34.027  -8.289  33.811  1.00  0.00     0.048 A 
HETATM   18  O7  UNK     1      32.475 -10.026  34.183  1.00  0.00    -0.287 OA
HETATM   19  C23 UNK     1      34.197  -6.910  33.680  1.00  0.00     0.089 A 
HETATM   20  C24 UNK     1      35.124  -9.147  33.703  1.00  0.00     0.018 A 
HETATM   21  O4  UNK     1      33.155  -6.022  33.777  1.00  0.00    -0.321 OA
HETATM   22  C26 UNK     1      35.466  -6.382  33.442  1.00  0.00     0.038 A 
HETATM   23  C21 UNK     1      31.903  -6.535  34.012  1.00  0.00     0.154 A 
HETATM   24  C28 UNK     1      36.563  -7.236  33.335  1.00  0.00     0.003 A 
HETATM   25  C27 UNK     1      36.393  -8.616  33.464  1.00  0.00     0.001 A 
ENDBRANCH   7  15
BRANCH  10  26
HETATM   26  C17 UNK     1      30.365  -8.540  36.958  1.00  0.00     0.292 C 
HETATM   27  O5  UNK     1      30.429  -9.749  37.089  1.00  0.00    -0.259 OA
BRANCH  26  28
HETATM   28  O1  UNK     1      30.847  -7.579  37.783  1.00  0.00    -0.312 OA
BRANCH  28  29
HETATM   29  C8  UNK     1      32.006  -6.918  37.318  1.00  0.00     0.132 C 
HETATM   30  C10 UNK     1      32.351  -5.711  38.178  1.00  0.00     0.032 C 
HETATM   31  C12 UNK     1      33.831  -5.473  37.906  1.00  0.00     0.002 C 
HETATM   32  C13 UNK     1      34.398  -6.814  37.436  1.00  0.00     0.002 C 
HETATM   33  C11 UNK     1      33.236  -7.798  37.474  1.00  0.00     0.032 C 
ENDBRANCH  28  29
ENDBRANCH  26  28
ENDBRANCH  10  26
BRANCH   4  34
HETATM   34  C18 UNK     1      28.771  -8.248  29.488  1.00  0.00     0.270 C 
HETATM   35  O6  UNK     1      29.693  -7.651  28.950  1.00  0.00    -0.264 OA
BRANCH  34  36
HETATM   36  O3  UNK     1      27.994  -9.216  28.921  1.00  0.00    -0.326 OA
HETATM   37  C25 UNK     1      28.705 -10.298  28.314  1.00  0.00     0.213 C 
ENDBRANCH  34  36
ENDBRANCH   4  34
TORSDOF 6
ENDMDL
MODEL 7
REMARK VINA RESULT:      -8.5      2.025      7.122
REMARK  6 active torsions:
REMARK  status: ('A' for Active; 'I' for Inactive)
REMARK    1  A    between atoms: C17_25  and  O1_1 
REMARK    2  A    between atoms: C8_16  and  O1_1 
REMARK    3  A    between atoms: C18_26  and  O3_3 
REMARK    4  A    between atoms: C18_26  and  C2_10 
REMARK    5  A    between atoms: C16_24  and  C5_13 
REMARK    6  A    between atoms: C17_25  and  C9_17 
ROOT
HETATM    1  O2  UNK     1      30.173  -9.337  31.778  1.00  0.00    -0.292 OA
HETATM    2  N1  UNK     1      29.083  -5.898  34.848  1.00  0.00    -0.362 N 
HETATM    3  C1  UNK     1      28.505  -6.183  31.123  1.00  0.00     0.008 C 
HETATM    4  C2  UNK     1      28.564  -7.714  31.031  1.00  0.00     0.164 C 
HETATM    5  C3  UNK     1      29.726  -7.610  33.341  1.00  0.00     0.025 C 
HETATM    6  C4  UNK     1      28.173  -5.785  32.569  1.00  0.00     0.063 C 
HETATM    7  C5  UNK     1      30.636  -8.233  34.398  1.00  0.00     0.104 C 
HETATM    8  C6  UNK     1      29.035  -6.478  33.594  1.00  0.00     0.020 C 
HETATM    9  C7  UNK     1      29.562  -8.296  32.019  1.00  0.00     0.172 C 
HETATM   10  C9  UNK     1      30.437  -7.601  35.779  1.00  0.00     0.052 C 
HETATM   11  C14 UNK     1      29.715  -6.468  35.941  1.00  0.00     0.018 C 
HETATM   12  C15 UNK     1      29.792  -5.493  30.642  1.00  0.00     0.011 C 
HETATM   13  C19 UNK     1      29.513  -5.742  37.243  1.00  0.00     0.069 C 
HETATM   14  H15 UNK     1      28.545  -5.054  35.001  1.00  0.00     0.165 HD
ENDROOT
BRANCH   7  15
HETATM   15  C16 UNK     1      32.082  -8.128  33.981  1.00  0.00     0.029 A 
HETATM   16  C20 UNK     1      32.879  -9.375  33.867  1.00  0.00     0.194 A 
HETATM   17  C22 UNK     1      34.287  -9.216  33.458  1.00  0.00     0.048 A 
HETATM   18  O7  UNK     1      32.400 -10.478  34.099  1.00  0.00    -0.287 OA
HETATM   19  C23 UNK     1      34.780  -7.935  33.206  1.00  0.00     0.089 A 
HETATM   20  C24 UNK     1      35.120 -10.330  33.322  1.00  0.00     0.018 A 
HETATM   21  O4  UNK     1      34.007  -6.808  33.323  1.00  0.00    -0.321 OA
HETATM   22  C26 UNK     1      36.108  -7.761  32.818  1.00  0.00     0.038 A 
HETATM   23  C21 UNK     1      32.698  -6.971  33.706  1.00  0.00     0.154 A 
HETATM   24  C28 UNK     1      36.941  -8.871  32.681  1.00  0.00     0.003 A 
HETATM   25  C27 UNK     1      36.449 -10.153  32.933  1.00  0.00     0.001 A 
ENDBRANCH   7  15
BRANCH  10  26
HETATM   26  C17 UNK     1      31.023  -8.317  36.925  1.00  0.00     0.292 C 
HETATM   27  O5  UNK     1      32.055  -7.971  37.471  1.00  0.00    -0.259 OA
BRANCH  26  28
HETATM   28  O1  UNK     1      30.226  -9.371  37.224  1.00  0.00    -0.312 OA
BRANCH  28  29
HETATM   29  C8  UNK     1      29.199  -9.099  38.156  1.00  0.00     0.132 C 
HETATM   30  C10 UNK     1      27.821  -9.371  37.573  1.00  0.00     0.032 C 
HETATM   31  C12 UNK     1      26.931  -9.564  38.795  1.00  0.00     0.002 C 
HETATM   32  C13 UNK     1      27.861  -9.994  39.933  1.00  0.00     0.002 C 
HETATM   33  C11 UNK     1      29.258 -10.063  39.330  1.00  0.00     0.032 C 
ENDBRANCH  28  29
ENDBRANCH  26  28
ENDBRANCH  10  26
BRANCH   4  34
HETATM   34  C18 UNK     1      28.790  -8.152  29.616  1.00  0.00     0.270 C 
HETATM   35  O6  UNK     1      29.705  -7.750  28.911  1.00  0.00    -0.264 OA
BRANCH  34  36
HETATM   36  O3  UNK     1      27.829  -9.051  29.258  1.00  0.00    -0.326 OA
HETATM   37  C25 UNK     1      28.255 -10.086  28.366  1.00  0.00     0.213 C 
ENDBRANCH  34  36
ENDBRANCH   4  34
TORSDOF 6
ENDMDL
MODEL 8
REMARK VINA RESULT:      -8.5      3.046      5.333
REMARK  6 active torsions:
REMARK  status: ('A' for Active; 'I' for Inactive)
REMARK    1  A    between atoms: C17_25  and  O1_1 
REMARK    2  A    between atoms: C8_16  and  O1_1 
REMARK    3  A    between atoms: C18_26  and  O3_3 
REMARK    4  A    between atoms: C18_26  and  C2_10 
REMARK    5  A    between atoms: C16_24  and  C5_13 
REMARK    6  A    between atoms: C17_25  and  C9_17 
ROOT
HETATM    1  O2  UNK     1      31.263  -6.873  36.038  1.00  0.00    -0.292 OA
HETATM    2  N1  UNK     1      35.318  -8.471  34.184  1.00  0.00    -0.362 N 
HETATM    3  C1  UNK     1      34.523  -5.283  36.052  1.00  0.00     0.008 C 
HETATM    4  C2  UNK     1      33.275  -5.791  36.787  1.00  0.00     0.164 C 
HETATM    5  C3  UNK     1      33.246  -7.681  35.019  1.00  0.00     0.025 C 
HETATM    6  C4  UNK     1      35.378  -6.488  35.632  1.00  0.00     0.063 C 
HETATM    7  C5  UNK     1      32.493  -8.753  34.235  1.00  0.00     0.104 C 
HETATM    8  C6  UNK     1      34.589  -7.567  34.933  1.00  0.00     0.020 C 
HETATM    9  C7  UNK     1      32.485  -6.772  35.935  1.00  0.00     0.172 C 
HETATM   10  C9  UNK     1      33.436  -9.789  33.616  1.00  0.00     0.052 C 
HETATM   11  C14 UNK     1      34.775  -9.596  33.585  1.00  0.00     0.018 C 
HETATM   12  C15 UNK     1      34.198  -4.388  34.844  1.00  0.00     0.011 C 
HETATM   13  C19 UNK     1      35.774 -10.523  32.948  1.00  0.00     0.069 C 
HETATM   14  H15 UNK     1      36.324  -8.357  34.150  1.00  0.00     0.165 HD
ENDROOT
BRANCH   7  15
HETATM   15  C16 UNK     1      31.636  -8.124  33.165  1.00  0.00     0.029 A 
HETATM   16  C20 UNK     1      30.205  -8.509  33.085  1.00  0.00     0.194 A 
HETATM   17  C22 UNK     1      29.412  -7.866  32.019  1.00  0.00     0.048 A 
HETATM   18  O7  UNK     1      29.703  -9.316  33.857  1.00  0.00    -0.287 OA
HETATM   19  C23 UNK     1      30.036  -6.953  31.168  1.00  0.00     0.089 A 
HETATM   20  C24 UNK     1      28.056  -8.162  31.862  1.00  0.00     0.018 A 
HETATM   21  O4  UNK     1      31.364  -6.625  31.277  1.00  0.00    -0.321 OA
HETATM   22  C26 UNK     1      29.307  -6.333  30.154  1.00  0.00     0.038 A 
HETATM   23  C21 UNK     1      32.089  -7.232  32.273  1.00  0.00     0.154 A 
HETATM   24  C28 UNK     1      27.953  -6.627  29.994  1.00  0.00     0.003 A 
HETATM   25  C27 UNK     1      27.329  -7.540  30.847  1.00  0.00     0.001 A 
ENDBRANCH   7  15
BRANCH  10  26
HETATM   26  C17 UNK     1      32.819 -11.025  33.108  1.00  0.00     0.292 C 
HETATM   27  O5  UNK     1      32.321 -11.869  33.831  1.00  0.00    -0.259 OA
BRANCH  26  28
HETATM   28  O1  UNK     1      32.914 -11.027  31.756  1.00  0.00    -0.312 OA
BRANCH  28  29
HETATM   29  C8  UNK     1      31.723 -10.697  31.072  1.00  0.00     0.132 C 
HETATM   30  C10 UNK     1      32.001  -9.912  29.799  1.00  0.00     0.032 C 
HETATM   31  C12 UNK     1      30.751 -10.119  28.953  1.00  0.00     0.002 C 
HETATM   32  C13 UNK     1      30.115 -11.422  29.447  1.00  0.00     0.002 C 
HETATM   33  C11 UNK     1      31.030 -11.944  30.547  1.00  0.00     0.032 C 
ENDBRANCH  28  29
ENDBRANCH  26  28
ENDBRANCH  10  26
BRANCH   4  34
HETATM   34  C18 UNK     1      32.458  -4.644  37.301  1.00  0.00     0.270 C 
HETATM   35  O6  UNK     1      32.262  -3.609  36.680  1.00  0.00    -0.264 OA
BRANCH  34  36
HETATM   36  O3  UNK     1      31.984  -4.944  38.544  1.00  0.00    -0.326 OA
HETATM   37  C25 UNK     1      30.576  -4.768  38.725  1.00  0.00     0.213 C 
ENDBRANCH  34  36
ENDBRANCH   4  34
TORSDOF 6
ENDMDL
MODEL 9
REMARK VINA RESULT:      -8.4      2.680      6.415
REMARK  6 active torsions:
REMARK  status: ('A' for Active; 'I' for Inactive)
REMARK    1  A    between atoms: C17_25  and  O1_1 
REMARK    2  A    between atoms: C8_16  and  O1_1 
REMARK    3  A    between atoms: C18_26  and  O3_3 
REMARK    4  A    between atoms: C18_26  and  C2_10 
REMARK    5  A    between atoms: C16_24  and  C5_13 
REMARK    6  A    between atoms: C17_25  and  C9_17 
ROOT
HETATM    1  O2  UNK     1      28.392  -8.440  33.056  1.00  0.00    -0.292 OA
HETATM    2  N1  UNK     1      31.368  -4.803  33.652  1.00  0.00    -0.362 N 
HETATM    3  C1  UNK     1      28.991  -5.636  30.834  1.00  0.00     0.008 C 
HETATM    4  C2  UNK     1      28.038  -6.531  31.637  1.00  0.00     0.164 C 
HETATM    5  C3  UNK     1      29.959  -6.686  33.365  1.00  0.00     0.025 C 
HETATM    6  C4  UNK     1      29.751  -4.720  31.805  1.00  0.00     0.063 C 
HETATM    7  C5  UNK     1      30.656  -7.414  34.512  1.00  0.00     0.104 C 
HETATM    8  C6  UNK     1      30.359  -5.458  32.971  1.00  0.00     0.020 C 
HETATM    9  C7  UNK     1      28.780  -7.328  32.698  1.00  0.00     0.172 C 
HETATM   10  C9  UNK     1      31.609  -6.498  35.286  1.00  0.00     0.052 C 
HETATM   11  C14 UNK     1      31.945  -5.273  34.820  1.00  0.00     0.018 C 
HETATM   12  C15 UNK     1      29.964  -6.426  29.943  1.00  0.00     0.011 C 
HETATM   13  C19 UNK     1      32.916  -4.327  35.475  1.00  0.00     0.069 C 
HETATM   14  H15 UNK     1      31.634  -3.880  33.331  1.00  0.00     0.165 HD
ENDROOT
BRANCH   7  15
HETATM   15  C16 UNK     1      31.398  -8.623  33.999  1.00  0.00     0.029 A 
HETATM   16  C20 UNK     1      31.057  -9.954  34.560  1.00  0.00     0.194 A 
HETATM   17  C22 UNK     1      31.813 -11.103  34.026  1.00  0.00     0.048 A 
HETATM   18  O7  UNK     1      30.196 -10.098  35.419  1.00  0.00    -0.287 OA
HETATM   19  C23 UNK     1      32.782 -10.880  33.047  1.00  0.00     0.089 A 
HETATM   20  C24 UNK     1      31.566 -12.397  34.490  1.00  0.00     0.018 A 
HETATM   21  O4  UNK     1      33.066  -9.631  32.556  1.00  0.00    -0.321 OA
HETATM   22  C26 UNK     1      33.509 -11.951  32.528  1.00  0.00     0.038 A 
HETATM   23  C21 UNK     1      32.355  -8.571  33.063  1.00  0.00     0.154 A 
HETATM   24  C28 UNK     1      33.265 -13.244  32.989  1.00  0.00     0.003 A 
HETATM   25  C27 UNK     1      32.295 -13.467  33.968  1.00  0.00     0.001 A 
ENDBRANCH   7  15
BRANCH  10  26
HETATM   26  C17 UNK     1      32.095  -6.994  36.584  1.00  0.00     0.292 C 
HETATM   27  O5  UNK     1      33.265  -7.244  36.808  1.00  0.00    -0.259 OA
BRANCH  26  28
HETATM   28  O1  UNK     1      31.037  -7.104  37.423  1.00  0.00    -0.312 OA
BRANCH  28  29
HETATM   29  C8  UNK     1      30.272  -5.927  37.582  1.00  0.00     0.132 C 
HETATM   30  C10 UNK     1      28.901  -6.218  38.172  1.00  0.00     0.032 C 
HETATM   31  C12 UNK     1      28.461  -4.885  38.766  1.00  0.00     0.002 C 
HETATM   32  C13 UNK     1      29.745  -4.099  39.040  1.00  0.00     0.002 C 
HETATM   33  C11 UNK     1      30.892  -5.009  38.622  1.00  0.00     0.032 C 
ENDBRANCH  28  29
ENDBRANCH  26  28
ENDBRANCH  10  26
BRANCH   4  34
HETATM   34  C18 UNK     1      27.204  -7.375  30.722  1.00  0.00     0.270 C 
HETATM   35  O6  UNK     1      26.208  -6.974  30.136  1.00  0.00    -0.264 OA
BRANCH  34  36
HETATM   36  O3  UNK     1      27.729  -8.632  30.656  1.00  0.00    -0.326 OA
HETATM   37  C25 UNK     1      27.812  -9.197  29.344  1.00  0.00     0.213 C 
ENDBRANCH  34  36
ENDBRANCH   4  34
TORSDOF 6
ENDMDL
MODEL 10
REMARK VINA RESULT:      -8.4      2.083      2.927
REMARK  6 active torsions:
REMARK  status: ('A' for Active; 'I' for Inactive)
REMARK    1  A    between atoms: C17_25  and  O1_1 
REMARK    2  A    between atoms: C8_16  and  O1_1 
REMARK    3  A    between atoms: C18_26  and  O3_3 
REMARK    4  A    between atoms: C18_26  and  C2_10 
REMARK    5  A    between atoms: C16_24  and  C5_13 
REMARK    6  A    between atoms: C17_25  and  C9_17 
ROOT
HETATM    1  O2  UNK     1      30.817 -10.135  35.723  1.00  0.00    -0.292 OA
HETATM    2  N1  UNK     1      34.308  -6.935  35.635  1.00  0.00    -0.362 N 
HETATM    3  C1  UNK     1      31.960  -7.979  38.407  1.00  0.00     0.008 C 
HETATM    4  C2  UNK     1      31.613  -9.370  37.859  1.00  0.00     0.164 C 
HETATM    5  C3  UNK     1      32.518  -8.487  35.600  1.00  0.00     0.025 C 
HETATM    6  C4  UNK     1      33.291  -7.520  37.793  1.00  0.00     0.063 C 
HETATM    7  C5  UNK     1      32.572  -8.553  34.076  1.00  0.00     0.104 C 
HETATM    8  C6  UNK     1      33.343  -7.674  36.294  1.00  0.00     0.020 C 
HETATM    9  C7  UNK     1      31.565  -9.377  36.339  1.00  0.00     0.172 C 
HETATM   10  C9  UNK     1      33.803  -7.841  33.508  1.00  0.00     0.052 C 
HETATM   11  C14 UNK     1      34.584  -7.053  34.283  1.00  0.00     0.018 C 
HETATM   12  C15 UNK     1      30.853  -6.938  38.171  1.00  0.00     0.011 C 
HETATM   13  C19 UNK     1      35.774  -6.266  33.806  1.00  0.00     0.069 C 
HETATM   14  H15 UNK     1      34.913  -6.343  36.191  1.00  0.00     0.165 HD
ENDROOT
BRANCH   7  15
HETATM   15  C16 UNK     1      31.314  -7.978  33.475  1.00  0.00     0.029 A 
HETATM   16  C20 UNK     1      30.552  -8.799  32.502  1.00  0.00     0.194 A 
HETATM   17  C22 UNK     1      29.332  -8.188  31.943  1.00  0.00     0.048 A 
HETATM   18  O7  UNK     1      30.912  -9.924  32.176  1.00  0.00    -0.287 OA
HETATM   19  C23 UNK     1      28.968  -6.904  32.351  1.00  0.00     0.089 A 
HETATM   20  C24 UNK     1      28.546  -8.882  31.019  1.00  0.00     0.018 A 
HETATM   21  O4  UNK     1      29.702  -6.178  33.255  1.00  0.00    -0.321 OA
HETATM   22  C26 UNK     1      27.818  -6.307  31.837  1.00  0.00     0.038 A 
HETATM   23  C21 UNK     1      30.837  -6.760  33.766  1.00  0.00     0.154 A 
HETATM   24  C28 UNK     1      27.032  -6.997  30.914  1.00  0.00     0.003 A 
HETATM   25  C27 UNK     1      27.395  -8.282  30.506  1.00  0.00     0.001 A 
ENDBRANCH   7  15
BRANCH  10  26
HETATM   26  C17 UNK     1      34.125  -8.101  32.095  1.00  0.00     0.292 C 
HETATM   27  O5  UNK     1      33.892  -7.308  31.200  1.00  0.00    -0.259 OA
BRANCH  26  28
HETATM   28  O1  UNK     1      34.697  -9.325  32.004  1.00  0.00    -0.312 OA
BRANCH  28  29
HETATM   29  C8  UNK     1      36.094  -9.320  31.792  1.00  0.00     0.132 C 
HETATM   30  C10 UNK     1      36.855  -9.781  33.025  1.00  0.00     0.032 C 
HETATM   31  C12 UNK     1      38.206 -10.230  32.482  1.00  0.00     0.002 C 
HETATM   32  C13 UNK     1      37.976 -10.583  31.010  1.00  0.00     0.002 C 
HETATM   33  C11 UNK     1      36.493 -10.353  30.751  1.00  0.00     0.032 C 
ENDBRANCH  28  29
ENDBRANCH  26  28
ENDBRANCH  10  26
BRANCH   4  34
HETATM   34  C18 UNK     1      30.370  -9.901  38.505  1.00  0.00     0.270 C 
HETATM   35  O6  UNK     1      30.364 -10.727  39.407  1.00  0.00    -0.264 OA
BRANCH  34  36
HETATM   36  O3  UNK     1      29.275  -9.323  37.931  1.00  0.00    -0.326 OA
HETATM   37  C25 UNK     1      28.053  -9.459  38.662  1.00  0.00     0.213 C 
ENDBRANCH  34  36
ENDBRANCH   4  34
TORSDOF 6
ENDMDL
