MODEL 1
REMARK VINA RESULT:     -10.6      0.000      0.000
REMARK  7 active torsions:
REMARK  status: ('A' for Active; 'I' for Inactive)
REMARK    1  A    between atoms: C1_13  and  S1_1 
REMARK    2  A    between atoms: N1_9  and  S1_1 
REMARK    3  A    between atoms: C19_31  and  O6_7 
REMARK    4  A    between atoms: C20_32  and  O7_8 
REMARK    5  A    between atoms: C12_24  and  N1_9 
REMARK       I    between atoms: C11_23  and  N2_10 
REMARK    6  A    between atoms: C2_14  and  N2_10 
REMARK    7  A    between atoms: C11_23  and  C8_20 
ROOT
HETATM    1  C1  UNK     1      18.550  -0.093  35.799  1.00  0.00     0.080 A 
HETATM    2  C2  UNK     1      19.019  -2.808  36.076  1.00  0.00     0.035 A 
HETATM    3  C3  UNK     1      18.108  -0.764  36.939  1.00  0.00     0.027 A 
HETATM    4  C4  UNK     1      19.229  -0.789  34.798  1.00  0.00     0.027 A 
HETATM    5  C5  UNK     1      18.344  -2.132  37.079  1.00  0.00     0.031 A 
HETATM    6  C6  UNK     1      19.465  -2.157  34.939  1.00  0.00     0.031 A 
ENDROOT
BRANCH   1   7
HETATM    7  S1  UNK     1      18.255   1.619  35.625  1.00  0.00     0.264 S 
HETATM    8  O2  UNK     1      19.549   2.290  35.572  1.00  0.00    -0.200 OA
HETATM    9  O3  UNK     1      17.291   2.031  36.636  1.00  0.00    -0.200 OA
BRANCH   7  10
HETATM   10  N1  UNK     1      17.534   1.726  34.063  1.00  0.00    -0.264 N 
HETATM   11  H5  UNK     1      16.523   1.537  34.037  1.00  0.00     0.180 HD
BRANCH  10  12
HETATM   12  C12 UNK     1      17.955   2.793  33.196  1.00  0.00     0.145 A 
HETATM   13  N3  UNK     1      18.075   2.477  31.894  1.00  0.00    -0.189 NA
HETATM   14  C20 UNK     1      18.470   3.495  31.105  1.00  0.00     0.272 A 
HETATM   15  N4  UNK     1      18.746   4.756  31.489  1.00  0.00    -0.182 NA
HETATM   16  C19 UNK     1      18.602   4.994  32.810  1.00  0.00     0.171 A 
HETATM   17  C18 UNK     1      18.204   4.039  33.722  1.00  0.00     0.109 A 
BRANCH  14  18
HETATM   18  O7  UNK     1      18.605   3.218  29.766  1.00  0.00    -0.324 OA
HETATM   19  C22 UNK     1      18.227   1.914  29.346  1.00  0.00     0.213 C 
ENDBRANCH  14  18
BRANCH  16  20
HETATM   20  O6  UNK     1      18.871   6.264  33.246  1.00  0.00    -0.339 OA
HETATM   21  C21 UNK     1      20.216   6.712  33.127  1.00  0.00     0.211 C 
ENDBRANCH  16  20
ENDBRANCH  10  12
ENDBRANCH   7  10
ENDBRANCH   1   7
BRANCH   2  22
HETATM   22  N2  UNK     1      19.260  -4.196  36.218  1.00  0.00    -0.323 N 
HETATM   23  C11 UNK     1      20.380  -4.810  36.761  1.00  0.00     0.262 C 
HETATM   24  O4  UNK     1      21.386  -4.278  37.228  1.00  0.00    -0.267 OA
HETATM   25  H6  UNK     1      18.497  -4.783  35.891  1.00  0.00     0.169 HD
BRANCH  23  26
HETATM   26  C8  UNK     1      20.273  -6.274  36.740  1.00  0.00     0.108 A 
HETATM   27  C13 UNK     1      20.416  -7.054  35.491  1.00  0.00     0.304 A 
HETATM   28  O1  UNK     1      20.295  -8.437  35.600  1.00  0.00    -0.274 OA
HETATM   29  O5  UNK     1      20.633  -6.515  34.411  1.00  0.00    -0.259 OA
HETATM   30  C10 UNK     1      20.049  -9.066  36.836  1.00  0.00     0.089 A 
HETATM   31  C7  UNK     1      19.916  -8.314  37.998  1.00  0.00    -0.001 A 
HETATM   32  C15 UNK     1      19.943 -10.455  36.845  1.00  0.00     0.038 A 
HETATM   33  C14 UNK     1      19.672  -8.974  39.204  1.00  0.00     0.014 A 
HETATM   34  C9  UNK     1      20.038  -6.866  37.917  1.00  0.00     0.037 A 
HETATM   35  C16 UNK     1      19.564 -10.367  39.229  1.00  0.00     0.001 A 
HETATM   36  C17 UNK     1      19.700 -11.106  38.052  1.00  0.00     0.003 A 
ENDBRANCH  23  26
ENDBRANCH   2  22
TORSDOF 7
ENDMDL
MODEL 2
REMARK VINA RESULT:     -10.4      6.276     10.355
REMARK  7 active torsions:
REMARK  status: ('A' for Active; 'I' for Inactive)
REMARK    1  A    between atoms: C1_13  and  S1_1 
REMARK    2  A    between atoms: N1_9  and  S1_1 
REMARK    3  A    between atoms: C19_31  and  O6_7 
REMARK    4  A    between atoms: C20_32  and  O7_8 
REMARK    5  A    between atoms: C12_24  and  N1_9 
REMARK       I    between atoms: C11_23  and  N2_10 
REMARK    6  A    between atoms: C2_14  and  N2_10 
REMARK    7  A    between atoms: C11_23  and  C8_20 
ROOT
HETATM    1  C1  UNK     1      21.179  -9.361  38.322  1.00  0.00     0.080 A 
HETATM    2  C2  UNK     1      23.664  -8.139  38.396  1.00  0.00     0.035 A 
HETATM    3  C3  UNK     1      22.031  -9.444  37.220  1.00  0.00     0.027 A 
HETATM    4  C4  UNK     1      21.579  -8.662  39.461  1.00  0.00     0.027 A 
HETATM    5  C5  UNK     1      23.283  -8.829  37.258  1.00  0.00     0.031 A 
HETATM    6  C6  UNK     1      22.831  -8.047  39.498  1.00  0.00     0.031 A 
ENDROOT
BRANCH   1   7
HETATM    7  S1  UNK     1      19.614 -10.131  38.275  1.00  0.00     0.264 S 
HETATM    8  O2  UNK     1      19.343 -10.670  39.603  1.00  0.00    -0.200 OA
HETATM    9  O3  UNK     1      19.572 -11.032  37.130  1.00  0.00    -0.200 OA
BRANCH   7  10
HETATM   10  N1  UNK     1      18.544  -8.808  38.007  1.00  0.00    -0.264 N 
HETATM   11  H5  UNK     1      17.964  -8.547  38.815  1.00  0.00     0.180 HD
BRANCH  10  12
HETATM   12  C12 UNK     1      19.031  -7.687  37.248  1.00  0.00     0.145 A 
HETATM   13  N3  UNK     1      19.125  -7.875  35.920  1.00  0.00    -0.189 NA
HETATM   14  C20 UNK     1      19.582  -6.810  35.235  1.00  0.00     0.272 A 
HETATM   15  N4  UNK     1      19.944  -5.616  35.742  1.00  0.00    -0.182 NA
HETATM   16  C19 UNK     1      19.821  -5.505  37.082  1.00  0.00     0.171 A 
HETATM   17  C18 UNK     1      19.365  -6.521  37.896  1.00  0.00     0.109 A 
BRANCH  14  18
HETATM   18  O7  UNK     1      19.693  -6.957  33.872  1.00  0.00    -0.324 OA
HETATM   19  C22 UNK     1      20.973  -7.325  33.376  1.00  0.00     0.213 C 
ENDBRANCH  14  18
BRANCH  16  20
HETATM   20  O6  UNK     1      20.176  -4.307  37.642  1.00  0.00    -0.339 OA
HETATM   21  C21 UNK     1      20.271  -3.192  36.765  1.00  0.00     0.211 C 
ENDBRANCH  16  20
ENDBRANCH  10  12
ENDBRANCH   7  10
ENDBRANCH   1   7
BRANCH   2  22
HETATM   22  N2  UNK     1      24.934  -7.515  38.436  1.00  0.00    -0.323 N 
HETATM   23  C11 UNK     1      26.113  -8.026  38.960  1.00  0.00     0.262 C 
HETATM   24  O4  UNK     1      26.294  -9.119  39.495  1.00  0.00    -0.267 OA
HETATM   25  H6  UNK     1      24.955  -6.594  38.005  1.00  0.00     0.169 HD
BRANCH  23  26
HETATM   26  C8  UNK     1      27.233  -7.089  38.821  1.00  0.00     0.108 A 
HETATM   27  C13 UNK     1      27.034  -5.622  38.812  1.00  0.00     0.304 A 
HETATM   28  O1  UNK     1      28.175  -4.837  38.673  1.00  0.00    -0.274 OA
HETATM   29  O5  UNK     1      25.921  -5.118  38.922  1.00  0.00    -0.259 OA
HETATM   30  C10 UNK     1      29.457  -5.405  38.548  1.00  0.00     0.089 A 
HETATM   31  C7  UNK     1      29.623  -6.786  38.557  1.00  0.00    -0.001 A 
HETATM   32  C15 UNK     1      30.540  -4.538  38.414  1.00  0.00     0.038 A 
HETATM   33  C14 UNK     1      30.911  -7.312  38.430  1.00  0.00     0.014 A 
HETATM   34  C9  UNK     1      28.449  -7.634  38.701  1.00  0.00     0.037 A 
HETATM   35  C16 UNK     1      32.006  -6.454  38.295  1.00  0.00     0.001 A 
HETATM   36  C17 UNK     1      31.821  -5.071  38.288  1.00  0.00     0.003 A 
ENDBRANCH  23  26
ENDBRANCH   2  22
TORSDOF 7
ENDMDL
MODEL 3
REMARK VINA RESULT:     -10.3      1.838      2.274
REMARK  7 active torsions:
REMARK  status: ('A' for Active; 'I' for Inactive)
REMARK    1  A    between atoms: C1_13  and  S1_1 
REMARK    2  A    between atoms: N1_9  and  S1_1 
REMARK    3  A    between atoms: C19_31  and  O6_7 
REMARK    4  A    between atoms: C20_32  and  O7_8 
REMARK    5  A    between atoms: C12_24  and  N1_9 
REMARK       I    between atoms: C11_23  and  N2_10 
REMARK    6  A    between atoms: C2_14  and  N2_10 
REMARK    7  A    between atoms: C11_23  and  C8_20 
ROOT
HETATM    1  C1  UNK     1      18.079  -0.490  35.736  1.00  0.00     0.080 A 
HETATM    2  C2  UNK     1      19.416  -2.887  36.107  1.00  0.00     0.035 A 
HETATM    3  C3  UNK     1      17.973  -1.166  36.952  1.00  0.00     0.027 A 
HETATM    4  C4  UNK     1      18.857  -1.022  34.707  1.00  0.00     0.027 A 
HETATM    5  C5  UNK     1      18.648  -2.374  37.139  1.00  0.00     0.031 A 
HETATM    6  C6  UNK     1      19.531  -2.229  34.895  1.00  0.00     0.031 A 
ENDROOT
BRANCH   1   7
HETATM    7  S1  UNK     1      17.236   1.020  35.503  1.00  0.00     0.264 S 
HETATM    8  O2  UNK     1      16.793   1.489  36.811  1.00  0.00    -0.200 OA
HETATM    9  O3  UNK     1      16.246   0.844  34.448  1.00  0.00    -0.200 OA
BRANCH   7  10
HETATM   10  N1  UNK     1      18.484   2.074  34.953  1.00  0.00    -0.264 N 
HETATM   11  H5  UNK     1      19.441   1.767  35.173  1.00  0.00     0.180 HD
BRANCH  10  12
HETATM   12  C12 UNK     1      18.343   2.667  33.650  1.00  0.00     0.145 A 
HETATM   13  N3  UNK     1      18.365   1.813  32.612  1.00  0.00    -0.189 NA
HETATM   14  C20 UNK     1      18.231   2.395  31.405  1.00  0.00     0.272 A 
HETATM   15  N4  UNK     1      18.084   3.709  31.153  1.00  0.00    -0.182 NA
HETATM   16  C19 UNK     1      18.072   4.501  32.246  1.00  0.00     0.171 A 
HETATM   17  C18 UNK     1      18.199   4.029  33.536  1.00  0.00     0.109 A 
BRANCH  14  18
HETATM   18  O7  UNK     1      18.246   1.559  30.314  1.00  0.00    -0.324 OA
HETATM   19  C22 UNK     1      17.993   2.158  29.051  1.00  0.00     0.213 C 
ENDBRANCH  14  18
BRANCH  16  20
HETATM   20  O6  UNK     1      17.923   5.847  32.038  1.00  0.00    -0.339 OA
HETATM   21  C21 UNK     1      18.930   6.694  32.576  1.00  0.00     0.211 C 
ENDBRANCH  16  20
ENDBRANCH  10  12
ENDBRANCH   7  10
ENDBRANCH   1   7
BRANCH   2  22
HETATM   22  N2  UNK     1      20.101  -4.111  36.297  1.00  0.00    -0.323 N 
HETATM   23  C11 UNK     1      19.548  -5.368  36.504  1.00  0.00     0.262 C 
HETATM   24  O4  UNK     1      18.358  -5.673  36.564  1.00  0.00    -0.267 OA
HETATM   25  H6  UNK     1      21.114  -4.030  36.253  1.00  0.00     0.169 HD
BRANCH  23  26
HETATM   26  C8  UNK     1      20.575  -6.405  36.659  1.00  0.00     0.108 A 
HETATM   27  C13 UNK     1      21.672  -6.284  37.645  1.00  0.00     0.304 A 
HETATM   28  O1  UNK     1      22.584  -7.334  37.698  1.00  0.00    -0.274 OA
HETATM   29  O5  UNK     1      21.776  -5.309  38.383  1.00  0.00    -0.259 OA
HETATM   30  C10 UNK     1      22.472  -8.458  36.858  1.00  0.00     0.089 A 
HETATM   31  C7  UNK     1      21.435  -8.553  35.937  1.00  0.00    -0.001 A 
HETATM   32  C15 UNK     1      23.434  -9.459  36.984  1.00  0.00     0.038 A 
HETATM   33  C14 UNK     1      21.358  -9.683  35.120  1.00  0.00     0.014 A 
HETATM   34  C9  UNK     1      20.464  -7.471  35.857  1.00  0.00     0.037 A 
HETATM   35  C16 UNK     1      22.315 -10.695  35.236  1.00  0.00     0.001 A 
HETATM   36  C17 UNK     1      23.350 -10.583  36.167  1.00  0.00     0.003 A 
ENDBRANCH  23  26
ENDBRANCH   2  22
TORSDOF 7
ENDMDL
MODEL 4
REMARK VINA RESULT:     -10.3      6.288     10.477
REMARK  7 active torsions:
REMARK  status: ('A' for Active; 'I' for Inactive)
REMARK    1  A    between atoms: C1_13  and  S1_1 
REMARK    2  A    between atoms: N1_9  and  S1_1 
REMARK    3  A    between atoms: C19_31  and  O6_7 
REMARK    4  A    between atoms: C20_32  and  O7_8 
REMARK    5  A    between atoms: C12_24  and  N1_9 
REMARK       I    between atoms: C11_23  and  N2_10 
REMARK    6  A    between atoms: C2_14  and  N2_10 
REMARK    7  A    between atoms: C11_23  and  C8_20 
ROOT
HETATM    1  C1  UNK     1      21.142  -9.323  38.287  1.00  0.00     0.080 A 
HETATM    2  C2  UNK     1      23.636  -8.123  38.386  1.00  0.00     0.035 A 
HETATM    3  C3  UNK     1      21.547  -8.649  39.440  1.00  0.00     0.027 A 
HETATM    4  C4  UNK     1      21.994  -9.392  37.184  1.00  0.00     0.027 A 
HETATM    5  C5  UNK     1      22.804  -8.044  39.489  1.00  0.00     0.031 A 
HETATM    6  C6  UNK     1      23.250  -8.787  37.234  1.00  0.00     0.031 A 
ENDROOT
BRANCH   1   7
HETATM    7  S1  UNK     1      19.570 -10.078  38.226  1.00  0.00     0.264 S 
HETATM    8  O2  UNK     1      19.257 -10.562  39.566  1.00  0.00    -0.200 OA
HETATM    9  O3  UNK     1      19.549 -11.022  37.115  1.00  0.00    -0.200 OA
BRANCH   7  10
HETATM   10  N1  UNK     1      18.523  -8.755  37.877  1.00  0.00    -0.264 N 
HETATM   11  H5  UNK     1      17.906  -8.473  38.651  1.00  0.00     0.180 HD
BRANCH  10  12
HETATM   12  C12 UNK     1      19.053  -7.654  37.119  1.00  0.00     0.145 A 
HETATM   13  N3  UNK     1      19.347  -6.545  37.822  1.00  0.00    -0.189 NA
HETATM   14  C20 UNK     1      19.842  -5.531  37.087  1.00  0.00     0.272 A 
HETATM   15  N4  UNK     1      20.060  -5.527  35.758  1.00  0.00    -0.182 NA
HETATM   16  C19 UNK     1      19.740  -6.674  35.124  1.00  0.00     0.171 A 
HETATM   17  C18 UNK     1      19.227  -7.785  35.761  1.00  0.00     0.109 A 
BRANCH  14  18
HETATM   18  O7  UNK     1      20.157  -4.378  37.765  1.00  0.00    -0.324 OA
HETATM   19  C22 UNK     1      20.085  -3.167  37.026  1.00  0.00     0.213 C 
ENDBRANCH  14  18
BRANCH  16  20
HETATM   20  O6  UNK     1      19.947  -6.716  33.771  1.00  0.00    -0.339 OA
HETATM   21  C21 UNK     1      21.016  -7.534  33.310  1.00  0.00     0.211 C 
ENDBRANCH  16  20
ENDBRANCH  10  12
ENDBRANCH   7  10
ENDBRANCH   1   7
BRANCH   2  22
HETATM   22  N2  UNK     1      24.911  -7.509  38.435  1.00  0.00    -0.323 N 
HETATM   23  C11 UNK     1      26.083  -8.030  38.964  1.00  0.00     0.262 C 
HETATM   24  O4  UNK     1      26.253  -9.127  39.495  1.00  0.00    -0.267 OA
HETATM   25  H6  UNK     1      24.942  -6.585  38.008  1.00  0.00     0.169 HD
BRANCH  23  26
HETATM   26  C8  UNK     1      27.211  -7.101  38.834  1.00  0.00     0.108 A 
HETATM   27  C13 UNK     1      27.025  -5.633  38.851  1.00  0.00     0.304 A 
HETATM   28  O1  UNK     1      28.173  -4.856  38.721  1.00  0.00    -0.274 OA
HETATM   29  O5  UNK     1      25.918  -5.120  38.976  1.00  0.00    -0.259 OA
HETATM   30  C10 UNK     1      29.449  -5.433  38.579  1.00  0.00     0.089 A 
HETATM   31  C7  UNK     1      29.602  -6.816  38.564  1.00  0.00    -0.001 A 
HETATM   32  C15 UNK     1      30.539  -4.573  38.454  1.00  0.00     0.038 A 
HETATM   33  C14 UNK     1      30.885  -7.351  38.421  1.00  0.00     0.014 A 
HETATM   34  C9  UNK     1      28.422  -7.655  38.699  1.00  0.00     0.037 A 
HETATM   35  C16 UNK     1      31.986  -6.500  38.295  1.00  0.00     0.001 A 
HETATM   36  C17 UNK     1      31.814  -5.115  38.313  1.00  0.00     0.003 A 
ENDBRANCH  23  26
ENDBRANCH   2  22
TORSDOF 7
ENDMDL
MODEL 5
REMARK VINA RESULT:     -10.2      0.991      2.163
REMARK  7 active torsions:
REMARK  status: ('A' for Active; 'I' for Inactive)
REMARK    1  A    between atoms: C1_13  and  S1_1 
REMARK    2  A    between atoms: N1_9  and  S1_1 
REMARK    3  A    between atoms: C19_31  and  O6_7 
REMARK    4  A    between atoms: C20_32  and  O7_8 
REMARK    5  A    between atoms: C12_24  and  N1_9 
REMARK       I    between atoms: C11_23  and  N2_10 
REMARK    6  A    between atoms: C2_14  and  N2_10 
REMARK    7  A    between atoms: C11_23  and  C8_20 
ROOT
HETATM    1  C1  UNK     1      18.377  -0.153  36.493  1.00  0.00     0.080 A 
HETATM    2  C2  UNK     1      18.901  -2.872  36.551  1.00  0.00     0.035 A 
HETATM    3  C3  UNK     1      17.950  -0.923  37.575  1.00  0.00     0.027 A 
HETATM    4  C4  UNK     1      19.068  -0.753  35.440  1.00  0.00     0.027 A 
HETATM    5  C5  UNK     1      18.214  -2.293  37.605  1.00  0.00     0.031 A 
HETATM    6  C6  UNK     1      19.332  -2.123  35.470  1.00  0.00     0.031 A 
ENDROOT
BRANCH   1   7
HETATM    7  S1  UNK     1      18.047   1.560  36.457  1.00  0.00     0.264 S 
HETATM    8  O2  UNK     1      18.438   2.115  37.748  1.00  0.00    -0.200 OA
HETATM    9  O3  UNK     1      16.682   1.763  35.990  1.00  0.00    -0.200 OA
BRANCH   7  10
HETATM   10  N1  UNK     1      19.155   2.138  35.270  1.00  0.00    -0.264 N 
HETATM   11  H5  UNK     1      19.892   1.474  35.003  1.00  0.00     0.180 HD
BRANCH  10  12
HETATM   12  C12 UNK     1      18.630   2.905  34.172  1.00  0.00     0.145 A 
HETATM   13  N3  UNK     1      18.519   4.229  34.380  1.00  0.00    -0.189 NA
HETATM   14  C20 UNK     1      18.026   4.921  33.336  1.00  0.00     0.272 A 
HETATM   15  N4  UNK     1      17.645   4.424  32.144  1.00  0.00    -0.182 NA
HETATM   16  C19 UNK     1      17.786   3.088  32.011  1.00  0.00     0.171 A 
HETATM   17  C18 UNK     1      18.280   2.268  33.004  1.00  0.00     0.109 A 
BRANCH  14  18
HETATM   18  O7  UNK     1      17.897   6.279  33.505  1.00  0.00    -0.324 OA
HETATM   19  C22 UNK     1      18.102   7.084  32.353  1.00  0.00     0.213 C 
ENDBRANCH  14  18
BRANCH  16  20
HETATM   20  O6  UNK     1      17.413   2.539  30.814  1.00  0.00    -0.339 OA
HETATM   21  C21 UNK     1      18.458   2.070  29.970  1.00  0.00     0.211 C 
ENDBRANCH  16  20
ENDBRANCH  10  12
ENDBRANCH   7  10
ENDBRANCH   1   7
BRANCH   2  22
HETATM   22  N2  UNK     1      19.170  -4.262  36.581  1.00  0.00    -0.323 N 
HETATM   23  C11 UNK     1      20.366  -4.886  36.905  1.00  0.00     0.262 C 
HETATM   24  O4  UNK     1      21.430  -4.364  37.232  1.00  0.00    -0.267 OA
HETATM   25  H6  UNK     1      18.367  -4.843  36.349  1.00  0.00     0.169 HD
BRANCH  23  26
HETATM   26  C8  UNK     1      20.266  -6.348  36.826  1.00  0.00     0.108 A 
HETATM   27  C13 UNK     1      20.421  -7.078  35.548  1.00  0.00     0.304 A 
HETATM   28  O1  UNK     1      20.306  -8.465  35.602  1.00  0.00    -0.274 OA
HETATM   29  O5  UNK     1      20.642  -6.496  34.491  1.00  0.00    -0.259 OA
HETATM   30  C10 UNK     1      20.055  -9.143  36.810  1.00  0.00     0.089 A 
HETATM   31  C7  UNK     1      19.911  -8.438  38.000  1.00  0.00    -0.001 A 
HETATM   32  C15 UNK     1      19.955 -10.532  36.764  1.00  0.00     0.038 A 
HETATM   33  C14 UNK     1      19.662  -9.147  39.178  1.00  0.00     0.014 A 
HETATM   34  C9  UNK     1      20.026  -6.988  37.977  1.00  0.00     0.037 A 
HETATM   35  C16 UNK     1      19.560 -10.540  39.147  1.00  0.00     0.001 A 
HETATM   36  C17 UNK     1      19.708 -11.231  37.943  1.00  0.00     0.003 A 
ENDBRANCH  23  26
ENDBRANCH   2  22
TORSDOF 7
ENDMDL
MODEL 6
REMARK VINA RESULT:     -10.0      1.920      3.013
REMARK  7 active torsions:
REMARK  status: ('A' for Active; 'I' for Inactive)
REMARK    1  A    between atoms: C1_13  and  S1_1 
REMARK    2  A    between atoms: N1_9  and  S1_1 
REMARK    3  A    between atoms: C19_31  and  O6_7 
REMARK    4  A    between atoms: C20_32  and  O7_8 
REMARK    5  A    between atoms: C12_24  and  N1_9 
REMARK       I    between atoms: C11_23  and  N2_10 
REMARK    6  A    between atoms: C2_14  and  N2_10 
REMARK    7  A    between atoms: C11_23  and  C8_20 
ROOT
HETATM    1  C1  UNK     1      18.076  -0.498  35.856  1.00  0.00     0.080 A 
HETATM    2  C2  UNK     1      19.418  -2.896  36.193  1.00  0.00     0.035 A 
HETATM    3  C3  UNK     1      17.987  -1.183  37.069  1.00  0.00     0.027 A 
HETATM    4  C4  UNK     1      18.842  -1.021  34.814  1.00  0.00     0.027 A 
HETATM    5  C5  UNK     1      18.663  -2.391  37.238  1.00  0.00     0.031 A 
HETATM    6  C6  UNK     1      19.517  -2.229  34.984  1.00  0.00     0.031 A 
ENDROOT
BRANCH   1   7
HETATM    7  S1  UNK     1      17.231   1.014  35.645  1.00  0.00     0.264 S 
HETATM    8  O2  UNK     1      16.804   1.473  36.963  1.00  0.00    -0.200 OA
HETATM    9  O3  UNK     1      16.228   0.846  34.601  1.00  0.00    -0.200 OA
BRANCH   7  10
HETATM   10  N1  UNK     1      18.471   2.072  35.088  1.00  0.00    -0.264 N 
HETATM   11  H5  UNK     1      19.429   1.782  35.324  1.00  0.00     0.180 HD
BRANCH  10  12
HETATM   12  C12 UNK     1      18.337   2.638  33.772  1.00  0.00     0.145 A 
HETATM   13  N3  UNK     1      18.185   3.973  33.720  1.00  0.00    -0.189 NA
HETATM   14  C20 UNK     1      18.062   4.475  32.477  1.00  0.00     0.272 A 
HETATM   15  N4  UNK     1      18.077   3.784  31.321  1.00  0.00    -0.182 NA
HETATM   16  C19 UNK     1      18.233   2.450  31.455  1.00  0.00     0.171 A 
HETATM   17  C18 UNK     1      18.370   1.814  32.671  1.00  0.00     0.109 A 
BRANCH  14  18
HETATM   18  O7  UNK     1      17.905   5.837  32.376  1.00  0.00    -0.324 OA
HETATM   19  C22 UNK     1      16.862   6.414  33.149  1.00  0.00     0.213 C 
ENDBRANCH  14  18
BRANCH  16  20
HETATM   20  O6  UNK     1      18.255   1.707  30.305  1.00  0.00    -0.339 OA
HETATM   21  C21 UNK     1      18.153   2.420  29.079  1.00  0.00     0.211 C 
ENDBRANCH  16  20
ENDBRANCH  10  12
ENDBRANCH   7  10
ENDBRANCH   1   7
BRANCH   2  22
HETATM   22  N2  UNK     1      20.106  -4.122  36.364  1.00  0.00    -0.323 N 
HETATM   23  C11 UNK     1      19.556  -5.386  36.529  1.00  0.00     0.262 C 
HETATM   24  O4  UNK     1      18.366  -5.698  36.558  1.00  0.00    -0.267 OA
HETATM   25  H6  UNK     1      21.119  -4.035  36.342  1.00  0.00     0.169 HD
BRANCH  23  26
HETATM   26  C8  UNK     1      20.585  -6.422  36.677  1.00  0.00     0.108 A 
HETATM   27  C13 UNK     1      21.678  -6.307  37.668  1.00  0.00     0.304 A 
HETATM   28  O1  UNK     1      22.593  -7.356  37.714  1.00  0.00    -0.274 OA
HETATM   29  O5  UNK     1      21.777  -5.340  38.416  1.00  0.00    -0.259 OA
HETATM   30  C10 UNK     1      22.487  -8.472  36.862  1.00  0.00     0.089 A 
HETATM   31  C7  UNK     1      21.453  -8.560  35.937  1.00  0.00    -0.001 A 
HETATM   32  C15 UNK     1      23.451  -9.472  36.982  1.00  0.00     0.038 A 
HETATM   33  C14 UNK     1      21.382  -9.683  35.109  1.00  0.00     0.014 A 
HETATM   34  C9  UNK     1      20.480  -7.480  35.864  1.00  0.00     0.037 A 
HETATM   35  C16 UNK     1      22.341 -10.693  35.218  1.00  0.00     0.001 A 
HETATM   36  C17 UNK     1      23.372 -10.588  36.153  1.00  0.00     0.003 A 
ENDBRANCH  23  26
ENDBRANCH   2  22
TORSDOF 7
ENDMDL
MODEL 7
REMARK VINA RESULT:      -9.8      3.726     12.291
REMARK  7 active torsions:
REMARK  status: ('A' for Active; 'I' for Inactive)
REMARK    1  A    between atoms: C1_13  and  S1_1 
REMARK    2  A    between atoms: N1_9  and  S1_1 
REMARK    3  A    between atoms: C19_31  and  O6_7 
REMARK    4  A    between atoms: C20_32  and  O7_8 
REMARK    5  A    between atoms: C12_24  and  N1_9 
REMARK       I    between atoms: C11_23  and  N2_10 
REMARK    6  A    between atoms: C2_14  and  N2_10 
REMARK    7  A    between atoms: C11_23  and  C8_20 
ROOT
HETATM    1  C1  UNK     1      19.133   1.294  31.081  1.00  0.00     0.080 A 
HETATM    2  C2  UNK     1      17.998   3.766  31.601  1.00  0.00     0.035 A 
HETATM    3  C3  UNK     1      18.728   1.617  32.377  1.00  0.00     0.027 A 
HETATM    4  C4  UNK     1      18.967   2.217  30.048  1.00  0.00     0.027 A 
HETATM    5  C5  UNK     1      18.156   2.862  32.638  1.00  0.00     0.031 A 
HETATM    6  C6  UNK     1      18.395   3.462  30.310  1.00  0.00     0.031 A 
ENDROOT
BRANCH   1   7
HETATM    7  S1  UNK     1      19.848  -0.264  30.754  1.00  0.00     0.264 S 
HETATM    8  O2  UNK     1      21.139  -0.312  31.432  1.00  0.00    -0.200 OA
HETATM    9  O3  UNK     1      19.800  -0.507  29.317  1.00  0.00    -0.200 OA
BRANCH   7  10
HETATM   10  N1  UNK     1      18.781  -1.351  31.559  1.00  0.00    -0.264 N 
HETATM   11  H5  UNK     1      18.654  -2.260  31.094  1.00  0.00     0.180 HD
BRANCH  10  12
HETATM   12  C12 UNK     1      18.851  -1.430  32.993  1.00  0.00     0.145 A 
HETATM   13  N3  UNK     1      17.844  -0.842  33.662  1.00  0.00    -0.189 NA
HETATM   14  C20 UNK     1      17.935  -0.932  35.003  1.00  0.00     0.272 A 
HETATM   15  N4  UNK     1      18.910  -1.535  35.709  1.00  0.00    -0.182 NA
HETATM   16  C19 UNK     1      19.884  -2.102  34.966  1.00  0.00     0.171 A 
HETATM   17  C18 UNK     1      19.907  -2.081  33.587  1.00  0.00     0.109 A 
BRANCH  14  18
HETATM   18  O7  UNK     1      16.926  -0.344  35.728  1.00  0.00    -0.324 OA
HETATM   19  C22 UNK     1      17.297   0.257  36.961  1.00  0.00     0.213 C 
ENDBRANCH  14  18
BRANCH  16  20
HETATM   20  O6  UNK     1      20.897  -2.729  35.642  1.00  0.00    -0.339 OA
HETATM   21  C21 UNK     1      20.549  -3.381  36.858  1.00  0.00     0.211 C 
ENDBRANCH  16  20
ENDBRANCH  10  12
ENDBRANCH   7  10
ENDBRANCH   1   7
BRANCH   2  22
HETATM   22  N2  UNK     1      17.417   5.029  31.866  1.00  0.00    -0.323 N 
HETATM   23  C11 UNK     1      17.926   6.046  32.661  1.00  0.00     0.262 C 
HETATM   24  O4  UNK     1      18.981   6.059  33.295  1.00  0.00    -0.267 OA
HETATM   25  H6  UNK     1      16.532   5.186  31.389  1.00  0.00     0.169 HD
BRANCH  23  26
HETATM   26  C8  UNK     1      17.041   7.216  32.699  1.00  0.00     0.108 A 
HETATM   27  C13 UNK     1      16.573   7.888  31.466  1.00  0.00     0.304 A 
HETATM   28  O1  UNK     1      15.736   8.988  31.632  1.00  0.00    -0.274 OA
HETATM   29  O5  UNK     1      16.901   7.498  30.350  1.00  0.00    -0.259 OA
HETATM   30  C10 UNK     1      15.351   9.443  32.908  1.00  0.00     0.089 A 
HETATM   31  C7  UNK     1      15.803   8.798  34.055  1.00  0.00    -0.001 A 
HETATM   32  C15 UNK     1      14.510  10.552  32.973  1.00  0.00     0.038 A 
HETATM   33  C14 UNK     1      15.399   9.280  35.302  1.00  0.00     0.014 A 
HETATM   34  C9  UNK     1      16.679   7.645  33.914  1.00  0.00     0.037 A 
HETATM   35  C16 UNK     1      14.556  10.391  35.383  1.00  0.00     0.001 A 
HETATM   36  C17 UNK     1      14.112  11.025  34.221  1.00  0.00     0.003 A 
ENDBRANCH  23  26
ENDBRANCH   2  22
TORSDOF 7
ENDMDL
MODEL 8
REMARK VINA RESULT:      -9.6      1.634      2.170
REMARK  7 active torsions:
REMARK  status: ('A' for Active; 'I' for Inactive)
REMARK    1  A    between atoms: C1_13  and  S1_1 
REMARK    2  A    between atoms: N1_9  and  S1_1 
REMARK    3  A    between atoms: C19_31  and  O6_7 
REMARK    4  A    between atoms: C20_32  and  O7_8 
REMARK    5  A    between atoms: C12_24  and  N1_9 
REMARK       I    between atoms: C11_23  and  N2_10 
REMARK    6  A    between atoms: C2_14  and  N2_10 
REMARK    7  A    between atoms: C11_23  and  C8_20 
ROOT
HETATM    1  C1  UNK     1      18.468  -0.251  35.959  1.00  0.00     0.080 A 
HETATM    2  C2  UNK     1      18.940  -2.961  36.281  1.00  0.00     0.035 A 
HETATM    3  C3  UNK     1      17.580  -1.030  36.701  1.00  0.00     0.027 A 
HETATM    4  C4  UNK     1      19.594  -0.837  35.380  1.00  0.00     0.027 A 
HETATM    5  C5  UNK     1      17.818  -2.396  36.864  1.00  0.00     0.031 A 
HETATM    6  C6  UNK     1      19.831  -2.202  35.542  1.00  0.00     0.031 A 
ENDROOT
BRANCH   1   7
HETATM    7  S1  UNK     1      18.171   1.457  35.757  1.00  0.00     0.264 S 
HETATM    8  O2  UNK     1      19.453   2.104  35.503  1.00  0.00    -0.200 OA
HETATM    9  O3  UNK     1      17.356   1.923  36.872  1.00  0.00    -0.200 OA
BRANCH   7  10
HETATM   10  N1  UNK     1      17.246   1.514  34.304  1.00  0.00    -0.264 N 
HETATM   11  H5  UNK     1      16.363   2.037  34.371  1.00  0.00     0.180 HD
BRANCH  10  12
HETATM   12  C12 UNK     1      17.947   1.704  33.063  1.00  0.00     0.145 A 
HETATM   13  N3  UNK     1      18.632   0.639  32.608  1.00  0.00    -0.189 NA
HETATM   14  C20 UNK     1      19.278   0.845  31.444  1.00  0.00     0.272 A 
HETATM   15  N4  UNK     1      19.301   1.981  30.722  1.00  0.00    -0.182 NA
HETATM   16  C19 UNK     1      18.592   3.003  31.244  1.00  0.00     0.171 A 
HETATM   17  C18 UNK     1      17.886   2.921  32.426  1.00  0.00     0.109 A 
BRANCH  14  18
HETATM   18  O7  UNK     1      19.990  -0.218  30.941  1.00  0.00    -0.324 OA
HETATM   19  C22 UNK     1      19.702  -1.494  31.494  1.00  0.00     0.213 C 
ENDBRANCH  14  18
BRANCH  16  20
HETATM   20  O6  UNK     1      18.586   4.179  30.542  1.00  0.00    -0.339 OA
HETATM   21  C21 UNK     1      19.696   5.047  30.735  1.00  0.00     0.211 C 
ENDBRANCH  16  20
ENDBRANCH  10  12
ENDBRANCH   7  10
ENDBRANCH   1   7
BRANCH   2  22
HETATM   22  N2  UNK     1      19.182  -4.346  36.447  1.00  0.00    -0.323 N 
HETATM   23  C11 UNK     1      20.169  -4.947  37.215  1.00  0.00     0.262 C 
HETATM   24  O4  UNK     1      21.029  -4.404  37.907  1.00  0.00    -0.267 OA
HETATM   25  H6  UNK     1      18.529  -4.943  35.945  1.00  0.00     0.169 HD
BRANCH  23  26
HETATM   26  C8  UNK     1      20.112  -6.412  37.143  1.00  0.00     0.108 A 
HETATM   27  C13 UNK     1      18.854  -7.161  37.360  1.00  0.00     0.304 A 
HETATM   28  O1  UNK     1      18.927  -8.548  37.265  1.00  0.00    -0.274 OA
HETATM   29  O5  UNK     1      17.796  -6.593  37.610  1.00  0.00    -0.259 OA
HETATM   30  C10 UNK     1      20.136  -9.210  36.976  1.00  0.00     0.089 A 
HETATM   31  C7  UNK     1      21.308  -8.488  36.776  1.00  0.00    -0.001 A 
HETATM   32  C15 UNK     1      20.110 -10.601  36.901  1.00  0.00     0.038 A 
HETATM   33  C14 UNK     1      22.487  -9.180  36.492  1.00  0.00     0.014 A 
HETATM   34  C9  UNK     1      21.264  -7.036  36.869  1.00  0.00     0.037 A 
HETATM   35  C16 UNK     1      22.476 -10.575  36.414  1.00  0.00     0.001 A 
HETATM   36  C17 UNK     1      21.290 -11.284  36.616  1.00  0.00     0.003 A 
ENDBRANCH  23  26
ENDBRANCH   2  22
TORSDOF 7
ENDMDL
MODEL 9
REMARK VINA RESULT:      -9.6      6.411     10.330
REMARK  7 active torsions:
REMARK  status: ('A' for Active; 'I' for Inactive)
REMARK    1  A    between atoms: C1_13  and  S1_1 
REMARK    2  A    between atoms: N1_9  and  S1_1 
REMARK    3  A    between atoms: C19_31  and  O6_7 
REMARK    4  A    between atoms: C20_32  and  O7_8 
REMARK    5  A    between atoms: C12_24  and  N1_9 
REMARK       I    between atoms: C11_23  and  N2_10 
REMARK    6  A    between atoms: C2_14  and  N2_10 
REMARK    7  A    between atoms: C11_23  and  C8_20 
ROOT
HETATM    1  C1  UNK     1      16.723   8.330  33.654  1.00  0.00     0.080 A 
HETATM    2  C2  UNK     1      17.496   5.744  33.033  1.00  0.00     0.035 A 
HETATM    3  C3  UNK     1      17.851   7.774  34.260  1.00  0.00     0.027 A 
HETATM    4  C4  UNK     1      15.985   7.582  32.736  1.00  0.00     0.027 A 
HETATM    5  C5  UNK     1      18.241   6.472  33.946  1.00  0.00     0.031 A 
HETATM    6  C6  UNK     1      16.374   6.280  32.424  1.00  0.00     0.031 A 
ENDROOT
BRANCH   1   7
HETATM    7  S1  UNK     1      16.237   9.959  34.046  1.00  0.00     0.264 S 
HETATM    8  O2  UNK     1      15.637   9.937  35.375  1.00  0.00    -0.200 OA
HETATM    9  O3  UNK     1      15.461  10.495  32.934  1.00  0.00    -0.200 OA
BRANCH   7  10
HETATM   10  N1  UNK     1      17.742  10.792  34.154  1.00  0.00    -0.264 N 
HETATM   11  H5  UNK     1      18.512  10.370  33.618  1.00  0.00     0.180 HD
BRANCH  10  12
HETATM   12  C12 UNK     1      17.723  12.230  34.120  1.00  0.00     0.145 A 
HETATM   13  N3  UNK     1      18.529  12.806  33.212  1.00  0.00    -0.189 NA
HETATM   14  C20 UNK     1      18.491  14.152  33.203  1.00  0.00     0.272 A 
HETATM   15  N4  UNK     1      17.745  14.945  33.994  1.00  0.00    -0.182 NA
HETATM   16  C19 UNK     1      16.962  14.293  34.880  1.00  0.00     0.171 A 
HETATM   17  C18 UNK     1      16.909  12.919  34.989  1.00  0.00     0.109 A 
BRANCH  14  18
HETATM   18  O7  UNK     1      19.300  14.784  32.288  1.00  0.00    -0.324 OA
HETATM   19  C22 UNK     1      18.764  14.965  30.985  1.00  0.00     0.213 C 
ENDBRANCH  14  18
BRANCH  16  20
HETATM   20  O6  UNK     1      16.184  15.060  35.705  1.00  0.00    -0.339 OA
HETATM   21  C21 UNK     1      16.108  16.449  35.408  1.00  0.00     0.211 C 
ENDBRANCH  16  20
ENDBRANCH  10  12
ENDBRANCH   7  10
ENDBRANCH   1   7
BRANCH   2  22
HETATM   22  N2  UNK     1      17.891   4.423  32.714  1.00  0.00    -0.323 N 
HETATM   23  C11 UNK     1      18.328   3.942  31.487  1.00  0.00     0.262 C 
HETATM   24  O4  UNK     1      18.461   4.561  30.433  1.00  0.00    -0.267 OA
HETATM   25  H6  UNK     1      17.857   3.779  33.501  1.00  0.00     0.169 HD
BRANCH  23  26
HETATM   26  C8  UNK     1      18.652   2.511  31.537  1.00  0.00     0.108 A 
HETATM   27  C13 UNK     1      18.358   1.680  32.725  1.00  0.00     0.304 A 
HETATM   28  O1  UNK     1      18.713   0.335  32.651  1.00  0.00    -0.274 OA
HETATM   29  O5  UNK     1      17.827   2.146  33.728  1.00  0.00    -0.259 OA
HETATM   30  C10 UNK     1      19.321  -0.211  31.504  1.00  0.00     0.089 A 
HETATM   31  C7  UNK     1      19.590   0.589  30.398  1.00  0.00    -0.001 A 
HETATM   32  C15 UNK     1      19.640  -1.567  31.524  1.00  0.00     0.038 A 
HETATM   33  C14 UNK     1      20.195   0.010  29.280  1.00  0.00     0.014 A 
HETATM   34  C9  UNK     1      19.231   1.998  30.445  1.00  0.00     0.037 A 
HETATM   35  C16 UNK     1      20.520  -1.349  29.285  1.00  0.00     0.001 A 
HETATM   36  C17 UNK     1      20.242  -2.136  30.404  1.00  0.00     0.003 A 
ENDBRANCH  23  26
ENDBRANCH   2  22
TORSDOF 7
ENDMDL
MODEL 10
REMARK VINA RESULT:      -9.6      6.791     10.386
REMARK  7 active torsions:
REMARK  status: ('A' for Active; 'I' for Inactive)
REMARK    1  A    between atoms: C1_13  and  S1_1 
REMARK    2  A    between atoms: N1_9  and  S1_1 
REMARK    3  A    between atoms: C19_31  and  O6_7 
REMARK    4  A    between atoms: C20_32  and  O7_8 
REMARK    5  A    between atoms: C12_24  and  N1_9 
REMARK       I    between atoms: C11_23  and  N2_10 
REMARK    6  A    between atoms: C2_14  and  N2_10 
REMARK    7  A    between atoms: C11_23  and  C8_20 
ROOT
HETATM    1  C1  UNK     1      16.964   8.182  33.231  1.00  0.00     0.080 A 
HETATM    2  C2  UNK     1      17.782   5.786  32.108  1.00  0.00     0.035 A 
HETATM    3  C3  UNK     1      16.017   7.280  32.745  1.00  0.00     0.027 A 
HETATM    4  C4  UNK     1      18.323   7.876  33.152  1.00  0.00     0.027 A 
HETATM    5  C5  UNK     1      16.429   6.073  32.180  1.00  0.00     0.031 A 
HETATM    6  C6  UNK     1      18.735   6.669  32.586  1.00  0.00     0.031 A 
ENDROOT
BRANCH   1   7
HETATM    7  S1  UNK     1      16.448   9.691  33.939  1.00  0.00     0.264 S 
HETATM    8  O2  UNK     1      15.998   9.414  35.299  1.00  0.00    -0.200 OA
HETATM    9  O3  UNK     1      15.532  10.350  33.016  1.00  0.00    -0.200 OA
BRANCH   7  10
HETATM   10  N1  UNK     1      17.915  10.590  34.035  1.00  0.00    -0.264 N 
HETATM   11  H5  UNK     1      18.656  10.284  33.390  1.00  0.00     0.180 HD
BRANCH  10  12
HETATM   12  C12 UNK     1      17.825  12.017  34.191  1.00  0.00     0.145 A 
HETATM   13  N3  UNK     1      16.893  12.455  35.056  1.00  0.00    -0.189 NA
HETATM   14  C20 UNK     1      16.832  13.794  35.182  1.00  0.00     0.272 A 
HETATM   15  N4  UNK     1      17.592  14.702  34.542  1.00  0.00    -0.182 NA
HETATM   16  C19 UNK     1      18.504  14.186  33.692  1.00  0.00     0.171 A 
HETATM   17  C18 UNK     1      18.668  12.834  33.473  1.00  0.00     0.109 A 
BRANCH  14  18
HETATM   18  O7  UNK     1      15.892  14.286  36.057  1.00  0.00    -0.324 OA
HETATM   19  C22 UNK     1      15.855  13.693  37.348  1.00  0.00     0.213 C 
ENDBRANCH  14  18
BRANCH  16  20
HETATM   20  O6  UNK     1      19.301  15.073  33.020  1.00  0.00    -0.339 OA
HETATM   21  C21 UNK     1      19.897  16.110  33.789  1.00  0.00     0.211 C 
ENDBRANCH  16  20
ENDBRANCH  10  12
ENDBRANCH   7  10
ENDBRANCH   1   7
BRANCH   2  22
HETATM   22  N2  UNK     1      18.200   4.561  31.536  1.00  0.00    -0.323 N 
HETATM   23  C11 UNK     1      18.154   3.298  32.109  1.00  0.00     0.262 C 
HETATM   24  O4  UNK     1      17.741   2.986  33.225  1.00  0.00    -0.267 OA
HETATM   25  H6  UNK     1      18.555   4.648  30.586  1.00  0.00     0.169 HD
BRANCH  23  26
HETATM   26  C8  UNK     1      18.677   2.262  31.211  1.00  0.00     0.108 A 
HETATM   27  C13 UNK     1      18.822   2.484  29.755  1.00  0.00     0.304 A 
HETATM   28  O1  UNK     1      19.331   1.425  29.008  1.00  0.00    -0.274 OA
HETATM   29  O5  UNK     1      18.513   3.548  29.227  1.00  0.00    -0.259 OA
HETATM   30  C10 UNK     1      19.691   0.202  29.604  1.00  0.00     0.089 A 
HETATM   31  C7  UNK     1      19.546   0.012  30.974  1.00  0.00    -0.001 A 
HETATM   32  C15 UNK     1      20.191  -0.800  28.774  1.00  0.00     0.038 A 
HETATM   33  C14 UNK     1      19.913  -1.217  31.528  1.00  0.00     0.014 A 
HETATM   34  C9  UNK     1      19.017   1.100  31.782  1.00  0.00     0.037 A 
HETATM   35  C16 UNK     1      20.417  -2.230  30.708  1.00  0.00     0.001 A 
HETATM   36  C17 UNK     1      20.556  -2.022  29.334  1.00  0.00     0.003 A 
ENDBRANCH  23  26
ENDBRANCH   2  22
TORSDOF 7
ENDMDL
