MODEL 1
REMARK VINA RESULT:      -8.0      0.000      0.000
REMARK  5 active torsions:
REMARK  status: ('A' for Active; 'I' for Inactive)
REMARK    1  A    between atoms: C5_11  and  N1_4 
REMARK       I    between atoms: C6_12  and  N2_5 
REMARK    2  A    between atoms: C14_20  and  N3_6 
REMARK    3  A    between atoms: C6_12  and  C7_13 
REMARK    4  A    between atoms: C10_16  and  C7_13 
REMARK    5  A    between atoms: C13_19  and  C15_21 
ROOT
HETATM    1  O1  UNK     1      31.676  -9.035  38.252  1.00  0.00    -0.267 OA
HETATM    2  N1  UNK     1      30.602  -9.515  33.542  1.00  0.00    -0.378 N 
HETATM    3  N2  UNK     1      30.394  -9.431  36.355  1.00  0.00    -0.345 N 
HETATM    4  C1  UNK     1      31.794  -9.775  34.367  1.00  0.00     0.143 C 
HETATM    5  C2  UNK     1      29.546  -8.704  34.166  1.00  0.00     0.143 C 
HETATM    6  C3  UNK     1      31.389 -10.306  35.742  1.00  0.00     0.146 C 
HETATM    7  C4  UNK     1      29.187  -9.269  35.539  1.00  0.00     0.146 C 
HETATM    8  C6  UNK     1      30.642  -8.869  37.602  1.00  0.00     0.254 C 
ENDROOT
BRANCH   8   9
HETATM    9  C7  UNK     1      29.597  -8.007  38.190  1.00  0.00     0.043 C 
HETATM   10  C13 UNK     1      29.843  -6.688  38.118  1.00  0.00     0.029 C 
BRANCH   9  11
HETATM   11  C10 UNK     1      28.407  -8.623  38.791  1.00  0.00    -0.021 A 
HETATM   12  C16 UNK     1      27.169  -8.016  38.634  1.00  0.00     0.012 A 
HETATM   13  C18 UNK     1      26.039  -8.603  39.203  1.00  0.00     0.001 A 
HETATM   14  C22 UNK     1      26.158  -9.791  39.924  1.00  0.00     0.000 A 
HETATM   15  C19 UNK     1      27.409 -10.392  40.075  1.00  0.00     0.001 A 
HETATM   16  C17 UNK     1      28.539  -9.805  39.506  1.00  0.00     0.012 A 
ENDBRANCH   9  11
BRANCH  10  17
HETATM   17  C15 UNK     1      31.033  -6.066  37.518  1.00  0.00    -0.035 A 
HETATM   18  C20 UNK     1      31.061  -5.825  36.153  1.00  0.00     0.011 A 
HETATM   19  C23 UNK     1      32.189  -5.234  35.585  1.00  0.00     0.001 A 
HETATM   20  C25 UNK     1      33.276  -4.890  36.388  1.00  0.00     0.000 A 
HETATM   21  C24 UNK     1      33.234  -5.139  37.760  1.00  0.00     0.001 A 
HETATM   22  C21 UNK     1      32.106  -5.729  38.329  1.00  0.00     0.011 A 
ENDBRANCH  10  17
ENDBRANCH   8   9
BRANCH   2  23
HETATM   23  C5  UNK     1      30.769  -9.480  32.153  1.00  0.00     0.030 A 
HETATM   24  C8  UNK     1      29.796 -10.021  31.279  1.00  0.00     0.032 A 
HETATM   25  C11 UNK     1      29.963  -9.987  29.895  1.00  0.00     0.038 A 
HETATM   26  C14 UNK     1      31.107  -9.410  29.345  1.00  0.00     0.103 A 
HETATM   27  C12 UNK     1      32.085  -8.868  30.179  1.00  0.00     0.038 A 
HETATM   28  C9  UNK     1      31.918  -8.903  31.563  1.00  0.00     0.032 A 
BRANCH  26  29
HETATM   29  N3  UNK     1      31.278  -9.374  27.936  1.00  0.00    -0.116 N 
HETATM   30  O2  UNK     1      30.440  -9.959  27.207  1.00  0.00    -0.532 OA
HETATM   31  O3  UNK     1      32.261  -8.758  27.456  1.00  0.00    -0.532 OA
ENDBRANCH  26  29
ENDBRANCH   2  23
TORSDOF 5
ENDMDL
MODEL 2
REMARK VINA RESULT:      -8.0      3.077      3.834
REMARK  5 active torsions:
REMARK  status: ('A' for Active; 'I' for Inactive)
REMARK    1  A    between atoms: C5_11  and  N1_4 
REMARK       I    between atoms: C6_12  and  N2_5 
REMARK    2  A    between atoms: C14_20  and  N3_6 
REMARK    3  A    between atoms: C6_12  and  C7_13 
REMARK    4  A    between atoms: C10_16  and  C7_13 
REMARK    5  A    between atoms: C13_19  and  C15_21 
ROOT
HETATM    1  O1  UNK     1      29.841  -6.246  35.395  1.00  0.00    -0.267 OA
HETATM    2  N1  UNK     1      31.285 -10.677  34.037  1.00  0.00    -0.378 N 
HETATM    3  N2  UNK     1      31.169  -8.150  35.285  1.00  0.00    -0.345 N 
HETATM    4  C1  UNK     1      30.556  -9.577  33.383  1.00  0.00     0.143 C 
HETATM    5  C2  UNK     1      31.426 -10.585  35.498  1.00  0.00     0.143 C 
HETATM    6  C3  UNK     1      31.115  -8.226  33.827  1.00  0.00     0.146 C 
HETATM    7  C4  UNK     1      31.975  -9.214  35.889  1.00  0.00     0.146 C 
HETATM    8  C6  UNK     1      30.509  -7.121  35.948  1.00  0.00     0.254 C 
ENDROOT
BRANCH   8   9
HETATM    9  C7  UNK     1      30.609  -7.075  37.421  1.00  0.00     0.043 C 
HETATM   10  C13 UNK     1      31.690  -6.433  37.896  1.00  0.00     0.029 C 
BRANCH   9  11
HETATM   11  C10 UNK     1      29.565  -7.710  38.236  1.00  0.00    -0.021 A 
HETATM   12  C16 UNK     1      29.501  -9.094  38.309  1.00  0.00     0.012 A 
HETATM   13  C18 UNK     1      28.512  -9.696  39.086  1.00  0.00     0.001 A 
HETATM   14  C22 UNK     1      27.594  -8.907  39.781  1.00  0.00     0.000 A 
HETATM   15  C19 UNK     1      27.668  -7.516  39.698  1.00  0.00     0.001 A 
HETATM   16  C17 UNK     1      28.659  -6.914  38.922  1.00  0.00     0.012 A 
ENDBRANCH   9  11
BRANCH  10  17
HETATM   17  C15 UNK     1      32.738  -5.796  37.084  1.00  0.00    -0.035 A 
HETATM   18  C20 UNK     1      33.985  -6.396  36.988  1.00  0.00     0.011 A 
HETATM   19  C23 UNK     1      34.977  -5.792  36.216  1.00  0.00     0.001 A 
HETATM   20  C25 UNK     1      34.712  -4.596  35.550  1.00  0.00     0.000 A 
HETATM   21  C24 UNK     1      33.453  -4.004  35.655  1.00  0.00     0.001 A 
HETATM   22  C21 UNK     1      32.461  -4.607  36.427  1.00  0.00     0.011 A 
ENDBRANCH  10  17
ENDBRANCH   8   9
BRANCH   2  23
HETATM   23  C5  UNK     1      31.242 -11.937  33.426  1.00  0.00     0.030 A 
HETATM   24  C8  UNK     1      31.776 -13.083  34.063  1.00  0.00     0.032 A 
HETATM   25  C11 UNK     1      31.734 -14.337  33.455  1.00  0.00     0.038 A 
HETATM   26  C14 UNK     1      31.158 -14.481  32.193  1.00  0.00     0.103 A 
HETATM   27  C12 UNK     1      30.624 -13.372  31.539  1.00  0.00     0.038 A 
HETATM   28  C9  UNK     1      30.666 -12.117  32.147  1.00  0.00     0.032 A 
BRANCH  26  29
HETATM   29  N3  UNK     1      31.115 -15.758  31.573  1.00  0.00    -0.116 N 
HETATM   30  O2  UNK     1      31.048 -16.783  32.295  1.00  0.00    -0.532 OA
HETATM   31  O3  UNK     1      31.144 -15.828  30.320  1.00  0.00    -0.532 OA
ENDBRANCH  26  29
ENDBRANCH   2  23
TORSDOF 5
ENDMDL
MODEL 3
REMARK VINA RESULT:      -7.8      1.215      4.400
REMARK  5 active torsions:
REMARK  status: ('A' for Active; 'I' for Inactive)
REMARK    1  A    between atoms: C5_11  and  N1_4 
REMARK       I    between atoms: C6_12  and  N2_5 
REMARK    2  A    between atoms: C14_20  and  N3_6 
REMARK    3  A    between atoms: C6_12  and  C7_13 
REMARK    4  A    between atoms: C10_16  and  C7_13 
REMARK    5  A    between atoms: C13_19  and  C15_21 
ROOT
HETATM    1  O1  UNK     1      30.339  -9.882  38.184  1.00  0.00    -0.267 OA
HETATM    2  N1  UNK     1      29.898  -8.979  33.435  1.00  0.00    -0.378 N 
HETATM    3  N2  UNK     1      29.620  -8.834  36.240  1.00  0.00    -0.345 N 
HETATM    4  C1  UNK     1      30.089 -10.192  34.248  1.00  0.00     0.143 C 
HETATM    5  C2  UNK     1      30.124  -7.697  34.120  1.00  0.00     0.143 C 
HETATM    6  C3  UNK     1      29.310 -10.088  35.558  1.00  0.00     0.146 C 
HETATM    7  C4  UNK     1      29.334  -7.649  35.426  1.00  0.00     0.146 C 
HETATM    8  C6  UNK     1      30.114  -8.857  37.539  1.00  0.00     0.254 C 
ENDROOT
BRANCH   8   9
HETATM    9  C7  UNK     1      30.394  -7.563  38.193  1.00  0.00     0.043 C 
HETATM   10  C13 UNK     1      29.361  -7.034  38.869  1.00  0.00     0.029 C 
BRANCH   9  11
HETATM   11  C10 UNK     1      31.729  -6.964  38.065  1.00  0.00    -0.021 A 
HETATM   12  C16 UNK     1      31.910  -5.624  38.378  1.00  0.00     0.012 A 
HETATM   13  C18 UNK     1      33.178  -5.056  38.259  1.00  0.00     0.001 A 
HETATM   14  C22 UNK     1      34.253  -5.834  37.827  1.00  0.00     0.000 A 
HETATM   15  C19 UNK     1      34.058  -7.180  37.514  1.00  0.00     0.001 A 
HETATM   16  C17 UNK     1      32.790  -7.747  37.634  1.00  0.00     0.012 A 
ENDBRANCH   9  11
BRANCH  10  17
HETATM   17  C15 UNK     1      28.023  -7.630  39.000  1.00  0.00    -0.035 A 
HETATM   18  C20 UNK     1      27.866  -8.803  39.723  1.00  0.00     0.011 A 
HETATM   19  C23 UNK     1      26.597  -9.366  39.847  1.00  0.00     0.001 A 
HETATM   20  C25 UNK     1      25.498  -8.750  39.248  1.00  0.00     0.000 A 
HETATM   21  C24 UNK     1      25.670  -7.570  38.524  1.00  0.00     0.001 A 
HETATM   22  C21 UNK     1      26.939  -7.006  38.399  1.00  0.00     0.011 A 
ENDBRANCH  10  17
ENDBRANCH   8   9
BRANCH   2  23
HETATM   23  C5  UNK     1      30.131  -9.077  32.058  1.00  0.00     0.030 A 
HETATM   24  C8  UNK     1      29.090  -8.888  31.119  1.00  0.00     0.032 A 
HETATM   25  C11 UNK     1      29.322  -8.986  29.747  1.00  0.00     0.038 A 
HETATM   26  C14 UNK     1      30.603  -9.275  29.276  1.00  0.00     0.103 A 
HETATM   27  C12 UNK     1      31.650  -9.467  30.176  1.00  0.00     0.038 A 
HETATM   28  C9  UNK     1      31.418  -9.369  31.548  1.00  0.00     0.032 A 
BRANCH  26  29
HETATM   29  N3  UNK     1      30.840  -9.374  27.879  1.00  0.00    -0.116 N 
HETATM   30  O2  UNK     1      31.934  -8.968  27.418  1.00  0.00    -0.532 OA
HETATM   31  O3  UNK     1      29.950  -9.867  27.144  1.00  0.00    -0.532 OA
ENDBRANCH  26  29
ENDBRANCH   2  23
TORSDOF 5
ENDMDL
MODEL 4
REMARK VINA RESULT:      -7.8      3.913      6.065
REMARK  5 active torsions:
REMARK  status: ('A' for Active; 'I' for Inactive)
REMARK    1  A    between atoms: C5_11  and  N1_4 
REMARK       I    between atoms: C6_12  and  N2_5 
REMARK    2  A    between atoms: C14_20  and  N3_6 
REMARK    3  A    between atoms: C6_12  and  C7_13 
REMARK    4  A    between atoms: C10_16  and  C7_13 
REMARK    5  A    between atoms: C13_19  and  C15_21 
ROOT
HETATM    1  O1  UNK     1      30.277  -5.474  36.148  1.00  0.00    -0.267 OA
HETATM    2  N1  UNK     1      33.526  -8.574  34.306  1.00  0.00    -0.378 N 
HETATM    3  N2  UNK     1      31.152  -7.479  35.367  1.00  0.00    -0.345 N 
HETATM    4  C1  UNK     1      33.599  -7.393  35.183  1.00  0.00     0.143 C 
HETATM    5  C2  UNK     1      32.255  -8.777  33.595  1.00  0.00     0.143 C 
HETATM    6  C3  UNK     1      32.395  -7.348  36.123  1.00  0.00     0.146 C 
HETATM    7  C4  UNK     1      31.085  -8.711  34.575  1.00  0.00     0.146 C 
HETATM    8  C6  UNK     1      30.175  -6.495  35.467  1.00  0.00     0.254 C 
ENDROOT
BRANCH   8   9
HETATM    9  C7  UNK     1      28.927  -6.682  34.700  1.00  0.00     0.043 C 
HETATM   10  C13 UNK     1      27.905  -7.206  35.397  1.00  0.00     0.029 C 
BRANCH   9  11
HETATM   11  C10 UNK     1      28.888  -6.302  33.281  1.00  0.00    -0.021 A 
HETATM   12  C16 UNK     1      27.836  -6.733  32.486  1.00  0.00     0.012 A 
HETATM   13  C18 UNK     1      27.797  -6.369  31.141  1.00  0.00     0.001 A 
HETATM   14  C22 UNK     1      28.813  -5.577  30.603  1.00  0.00     0.000 A 
HETATM   15  C19 UNK     1      29.866  -5.150  31.413  1.00  0.00     0.001 A 
HETATM   16  C17 UNK     1      29.903  -5.514  32.759  1.00  0.00     0.012 A 
ENDBRANCH   9  11
BRANCH  10  17
HETATM   17  C15 UNK     1      27.939  -7.589  36.817  1.00  0.00    -0.035 A 
HETATM   18  C20 UNK     1      27.592  -6.657  37.783  1.00  0.00     0.011 A 
HETATM   19  C23 UNK     1      27.623  -7.022  39.129  1.00  0.00     0.001 A 
HETATM   20  C25 UNK     1      28.001  -8.314  39.493  1.00  0.00     0.000 A 
HETATM   21  C24 UNK     1      28.349  -9.241  38.510  1.00  0.00     0.001 A 
HETATM   22  C21 UNK     1      28.317  -8.877  37.164  1.00  0.00     0.011 A 
ENDBRANCH  10  17
ENDBRANCH   8   9
BRANCH   2  23
HETATM   23  C5  UNK     1      34.719  -9.030  33.732  1.00  0.00     0.030 A 
HETATM   24  C8  UNK     1      34.805 -10.309  33.130  1.00  0.00     0.032 A 
HETATM   25  C11 UNK     1      35.993 -10.764  32.558  1.00  0.00     0.038 A 
HETATM   26  C14 UNK     1      37.128  -9.953  32.572  1.00  0.00     0.103 A 
HETATM   27  C12 UNK     1      37.076  -8.689  33.157  1.00  0.00     0.038 A 
HETATM   28  C9  UNK     1      35.888  -8.234  33.729  1.00  0.00     0.032 A 
BRANCH  26  29
HETATM   29  N3  UNK     1      38.338 -10.416  31.989  1.00  0.00    -0.116 N 
HETATM   30  O2  UNK     1      39.380 -10.437  32.688  1.00  0.00    -0.532 OA
HETATM   31  O3  UNK     1      38.333 -10.792  30.792  1.00  0.00    -0.532 OA
ENDBRANCH  26  29
ENDBRANCH   2  23
TORSDOF 5
ENDMDL
MODEL 5
REMARK VINA RESULT:      -7.8      1.370      4.585
REMARK  5 active torsions:
REMARK  status: ('A' for Active; 'I' for Inactive)
REMARK    1  A    between atoms: C5_11  and  N1_4 
REMARK       I    between atoms: C6_12  and  N2_5 
REMARK    2  A    between atoms: C14_20  and  N3_6 
REMARK    3  A    between atoms: C6_12  and  C7_13 
REMARK    4  A    between atoms: C10_16  and  C7_13 
REMARK    5  A    between atoms: C13_19  and  C15_21 
ROOT
HETATM    1  O1  UNK     1      30.867  -8.337  37.920  1.00  0.00    -0.267 OA
HETATM    2  N1  UNK     1      29.416  -8.805  33.311  1.00  0.00    -0.378 N 
HETATM    3  N2  UNK     1      29.472  -8.201  36.067  1.00  0.00    -0.345 N 
HETATM    4  C1  UNK     1      30.295  -9.576  34.206  1.00  0.00     0.143 C 
HETATM    5  C2  UNK     1      29.055  -7.453  33.763  1.00  0.00     0.143 C 
HETATM    6  C3  UNK     1      29.747  -9.568  35.633  1.00  0.00     0.146 C 
HETATM    7  C4  UNK     1      28.526  -7.499  35.196  1.00  0.00     0.146 C 
HETATM    8  C6  UNK     1      30.075  -7.706  37.218  1.00  0.00     0.254 C 
ENDROOT
BRANCH   8   9
HETATM    9  C7  UNK     1      29.750  -6.326  37.627  1.00  0.00     0.043 C 
HETATM   10  C13 UNK     1      28.645  -6.202  38.381  1.00  0.00     0.029 C 
BRANCH   9  11
HETATM   11  C10 UNK     1      30.620  -5.222  37.198  1.00  0.00    -0.021 A 
HETATM   12  C16 UNK     1      30.305  -3.921  37.564  1.00  0.00     0.012 A 
HETATM   13  C18 UNK     1      31.133  -2.874  37.159  1.00  0.00     0.001 A 
HETATM   14  C22 UNK     1      32.267  -3.139  36.391  1.00  0.00     0.000 A 
HETATM   15  C19 UNK     1      32.573  -4.451  36.029  1.00  0.00     0.001 A 
HETATM   16  C17 UNK     1      31.745  -5.498  36.435  1.00  0.00     0.012 A 
ENDBRANCH   9  11
BRANCH  10  17
HETATM   17  C15 UNK     1      27.771  -7.304  38.813  1.00  0.00    -0.035 A 
HETATM   18  C20 UNK     1      26.482  -7.388  38.310  1.00  0.00     0.011 A 
HETATM   19  C23 UNK     1      25.654  -8.433  38.719  1.00  0.00     0.001 A 
HETATM   20  C25 UNK     1      26.126  -9.383  39.625  1.00  0.00     0.000 A 
HETATM   21  C24 UNK     1      27.426  -9.286  40.123  1.00  0.00     0.001 A 
HETATM   22  C21 UNK     1      28.253  -8.241  39.714  1.00  0.00     0.011 A 
ENDBRANCH  10  17
ENDBRANCH   8   9
BRANCH   2  23
HETATM   23  C5  UNK     1      29.485  -9.079  31.940  1.00  0.00     0.030 A 
HETATM   24  C8  UNK     1      30.667  -9.583  31.347  1.00  0.00     0.032 A 
HETATM   25  C11 UNK     1      30.736  -9.854  29.981  1.00  0.00     0.038 A 
HETATM   26  C14 UNK     1      29.624  -9.630  29.169  1.00  0.00     0.103 A 
HETATM   27  C12 UNK     1      28.445  -9.134  29.722  1.00  0.00     0.038 A 
HETATM   28  C9  UNK     1      28.376  -8.862  31.088  1.00  0.00     0.032 A 
BRANCH  26  29
HETATM   29  N3  UNK     1      29.694  -9.907  27.777  1.00  0.00    -0.116 N 
HETATM   30  O2  UNK     1      28.629 -10.103  27.143  1.00  0.00    -0.532 OA
HETATM   31  O3  UNK     1      30.818  -9.947  27.220  1.00  0.00    -0.532 OA
ENDBRANCH  26  29
ENDBRANCH   2  23
TORSDOF 5
ENDMDL
MODEL 6
REMARK VINA RESULT:      -7.7     33.772     35.621
REMARK  5 active torsions:
REMARK  status: ('A' for Active; 'I' for Inactive)
REMARK    1  A    between atoms: C5_11  and  N1_4 
REMARK       I    between atoms: C6_12  and  N2_5 
REMARK    2  A    between atoms: C14_20  and  N3_6 
REMARK    3  A    between atoms: C6_12  and  C7_13 
REMARK    4  A    between atoms: C10_16  and  C7_13 
REMARK    5  A    between atoms: C13_19  and  C15_21 
ROOT
HETATM    1  O1  UNK     1      13.039   6.854  10.633  1.00  0.00    -0.267 OA
HETATM    2  N1  UNK     1      16.529   9.846   9.073  1.00  0.00    -0.378 N 
HETATM    3  N2  UNK     1      14.258   8.173   9.159  1.00  0.00    -0.345 N 
HETATM    4  C1  UNK     1      16.453   8.775  10.081  1.00  0.00     0.143 C 
HETATM    5  C2  UNK     1      15.245  10.342   8.556  1.00  0.00     0.143 C 
HETATM    6  C3  UNK     1      15.549   7.644   9.595  1.00  0.00     0.146 C 
HETATM    7  C4  UNK     1      14.375   9.173   8.095  1.00  0.00     0.146 C 
HETATM    8  C6  UNK     1      13.087   7.699   9.738  1.00  0.00     0.254 C 
ENDROOT
BRANCH   8   9
HETATM    9  C7  UNK     1      11.806   8.250   9.251  1.00  0.00     0.043 C 
HETATM   10  C13 UNK     1      11.427   9.402   9.830  1.00  0.00     0.029 C 
BRANCH   9  11
HETATM   11  C10 UNK     1      11.061   7.531   8.208  1.00  0.00    -0.021 A 
HETATM   12  C16 UNK     1      11.710   7.152   7.042  1.00  0.00     0.012 A 
HETATM   13  C18 UNK     1      11.003   6.468   6.054  1.00  0.00     0.001 A 
HETATM   14  C22 UNK     1       9.653   6.169   6.242  1.00  0.00     0.000 A 
HETATM   15  C19 UNK     1       9.012   6.556   7.419  1.00  0.00     0.001 A 
HETATM   16  C17 UNK     1       9.720   7.240   8.407  1.00  0.00     0.012 A 
ENDBRANCH   9  11
BRANCH  10  17
HETATM   17  C15 UNK     1      12.169  10.125  10.874  1.00  0.00    -0.035 A 
HETATM   18  C20 UNK     1      12.279   9.570  12.140  1.00  0.00     0.011 A 
HETATM   19  C23 UNK     1      12.984  10.256  13.129  1.00  0.00     0.001 A 
HETATM   20  C25 UNK     1      13.571  11.488  12.840  1.00  0.00     0.000 A 
HETATM   21  C24 UNK     1      13.452  12.034  11.562  1.00  0.00     0.001 A 
HETATM   22  C21 UNK     1      12.747  11.348  10.573  1.00  0.00     0.011 A 
ENDBRANCH  10  17
ENDBRANCH   8   9
BRANCH   2  23
HETATM   23  C5  UNK     1      17.632  10.707   9.122  1.00  0.00     0.030 A 
HETATM   24  C8  UNK     1      18.067  11.279  10.342  1.00  0.00     0.032 A 
HETATM   25  C11 UNK     1      19.165  12.137  10.391  1.00  0.00     0.038 A 
HETATM   26  C14 UNK     1      19.859  12.449   9.222  1.00  0.00     0.103 A 
HETATM   27  C12 UNK     1      19.455  11.903   8.004  1.00  0.00     0.038 A 
HETATM   28  C9  UNK     1      18.357  11.044   7.955  1.00  0.00     0.032 A 
BRANCH  26  29
HETATM   29  N3  UNK     1      20.977  13.323   9.271  1.00  0.00    -0.116 N 
HETATM   30  O2  UNK     1      21.943  13.119   8.496  1.00  0.00    -0.532 OA
HETATM   31  O3  UNK     1      20.969  14.277  10.087  1.00  0.00    -0.532 OA
ENDBRANCH  26  29
ENDBRANCH   2  23
TORSDOF 5
ENDMDL
MODEL 7
REMARK VINA RESULT:      -7.7      1.921      2.433
REMARK  5 active torsions:
REMARK  status: ('A' for Active; 'I' for Inactive)
REMARK    1  A    between atoms: C5_11  and  N1_4 
REMARK       I    between atoms: C6_12  and  N2_5 
REMARK    2  A    between atoms: C14_20  and  N3_6 
REMARK    3  A    between atoms: C6_12  and  C7_13 
REMARK    4  A    between atoms: C10_16  and  C7_13 
REMARK    5  A    between atoms: C13_19  and  C15_21 
ROOT
HETATM    1  O1  UNK     1      31.209  -9.915  38.413  1.00  0.00    -0.267 OA
HETATM    2  N1  UNK     1      32.045  -8.583  33.820  1.00  0.00    -0.378 N 
HETATM    3  N2  UNK     1      30.753  -9.178  36.257  1.00  0.00    -0.345 N 
HETATM    4  C1  UNK     1      32.653  -9.552  34.747  1.00  0.00     0.143 C 
HETATM    5  C2  UNK     1      31.140  -7.592  34.421  1.00  0.00     0.143 C 
HETATM    6  C3  UNK     1      31.582 -10.200  35.624  1.00  0.00     0.146 C 
HETATM    7  C4  UNK     1      30.098  -8.288  35.295  1.00  0.00     0.146 C 
HETATM    8  C6  UNK     1      30.637  -9.142  37.642  1.00  0.00     0.254 C 
ENDROOT
BRANCH   8   9
HETATM    9  C7  UNK     1      29.772  -8.103  38.235  1.00  0.00     0.043 C 
HETATM   10  C13 UNK     1      30.336  -6.888  38.343  1.00  0.00     0.029 C 
BRANCH   9  11
HETATM   11  C10 UNK     1      28.407  -8.451  38.652  1.00  0.00    -0.021 A 
HETATM   12  C16 UNK     1      27.350  -7.627  38.291  1.00  0.00     0.012 A 
HETATM   13  C18 UNK     1      26.055  -7.959  38.685  1.00  0.00     0.001 A 
HETATM   14  C22 UNK     1      25.828  -9.113  39.436  1.00  0.00     0.000 A 
HETATM   15  C19 UNK     1      26.899  -9.934  39.792  1.00  0.00     0.001 A 
HETATM   16  C17 UNK     1      28.195  -9.601  39.398  1.00  0.00     0.012 A 
ENDBRANCH   9  11
BRANCH  10  17
HETATM   17  C15 UNK     1      31.702  -6.535  37.928  1.00  0.00    -0.035 A 
HETATM   18  C20 UNK     1      32.767  -7.318  38.348  1.00  0.00     0.011 A 
HETATM   19  C23 UNK     1      34.062  -6.983  37.952  1.00  0.00     0.001 A 
HETATM   20  C25 UNK     1      34.277  -5.869  37.140  1.00  0.00     0.000 A 
HETATM   21  C24 UNK     1      33.196  -5.090  36.725  1.00  0.00     0.001 A 
HETATM   22  C21 UNK     1      31.902  -5.425  37.120  1.00  0.00     0.011 A 
ENDBRANCH  10  17
ENDBRANCH   8   9
BRANCH   2  23
HETATM   23  C5  UNK     1      32.762  -8.252  32.665  1.00  0.00     0.030 A 
HETATM   24  C8  UNK     1      34.144  -8.536  32.548  1.00  0.00     0.032 A 
HETATM   25  C11 UNK     1      34.859  -8.206  31.397  1.00  0.00     0.038 A 
HETATM   26  C14 UNK     1      34.213  -7.581  30.330  1.00  0.00     0.103 A 
HETATM   27  C12 UNK     1      32.852  -7.287  30.414  1.00  0.00     0.038 A 
HETATM   28  C9  UNK     1      32.137  -7.618  31.565  1.00  0.00     0.032 A 
BRANCH  26  29
HETATM   29  N3  UNK     1      34.940  -7.244  29.158  1.00  0.00    -0.116 N 
HETATM   30  O2  UNK     1      34.908  -8.026  28.177  1.00  0.00    -0.532 OA
HETATM   31  O3  UNK     1      35.595  -6.173  29.134  1.00  0.00    -0.532 OA
ENDBRANCH  26  29
ENDBRANCH   2  23
TORSDOF 5
ENDMDL
MODEL 8
REMARK VINA RESULT:      -7.7      3.502      8.605
REMARK  5 active torsions:
REMARK  status: ('A' for Active; 'I' for Inactive)
REMARK    1  A    between atoms: C5_11  and  N1_4 
REMARK       I    between atoms: C6_12  and  N2_5 
REMARK    2  A    between atoms: C14_20  and  N3_6 
REMARK    3  A    between atoms: C6_12  and  C7_13 
REMARK    4  A    between atoms: C10_16  and  C7_13 
REMARK    5  A    between atoms: C13_19  and  C15_21 
ROOT
HETATM    1  O1  UNK     1      32.947 -10.893  32.563  1.00  0.00    -0.267 OA
HETATM    2  N1  UNK     1      31.779  -7.165  35.444  1.00  0.00    -0.378 N 
HETATM    3  N2  UNK     1      33.059  -8.776  33.514  1.00  0.00    -0.345 N 
HETATM    4  C1  UNK     1      31.725  -8.631  35.570  1.00  0.00     0.143 C 
HETATM    5  C2  UNK     1      31.993  -6.637  34.088  1.00  0.00     0.143 C 
HETATM    6  C3  UNK     1      32.928  -9.273  34.881  1.00  0.00     0.146 C 
HETATM    7  C4  UNK     1      33.197  -7.319  33.440  1.00  0.00     0.146 C 
HETATM    8  C6  UNK     1      33.065  -9.672  32.450  1.00  0.00     0.254 C 
ENDROOT
BRANCH   8   9
HETATM    9  C7  UNK     1      33.220  -9.123  31.088  1.00  0.00     0.043 C 
HETATM   10  C13 UNK     1      34.477  -9.133  30.612  1.00  0.00     0.029 C 
BRANCH   9  11
HETATM   11  C10 UNK     1      32.039  -8.621  30.374  1.00  0.00    -0.021 A 
HETATM   12  C16 UNK     1      30.823  -9.274  30.518  1.00  0.00     0.012 A 
HETATM   13  C18 UNK     1      29.702  -8.795  29.842  1.00  0.00     0.001 A 
HETATM   14  C22 UNK     1      29.807  -7.667  29.027  1.00  0.00     0.000 A 
HETATM   15  C19 UNK     1      31.036  -7.020  28.889  1.00  0.00     0.001 A 
HETATM   16  C17 UNK     1      32.157  -7.499  29.566  1.00  0.00     0.012 A 
ENDBRANCH   9  11
BRANCH  10  17
HETATM   17  C15 UNK     1      35.662  -9.635  31.323  1.00  0.00    -0.035 A 
HETATM   18  C20 UNK     1      36.124 -10.916  31.061  1.00  0.00     0.011 A 
HETATM   19  C23 UNK     1      37.249 -11.389  31.735  1.00  0.00     0.001 A 
HETATM   20  C25 UNK     1      37.900 -10.577  32.663  1.00  0.00     0.000 A 
HETATM   21  C24 UNK     1      37.424  -9.290  32.917  1.00  0.00     0.001 A 
HETATM   22  C21 UNK     1      36.299  -8.816  32.243  1.00  0.00     0.011 A 
ENDBRANCH  10  17
ENDBRANCH   8   9
BRANCH   2  23
HETATM   23  C5  UNK     1      31.057  -6.406  36.373  1.00  0.00     0.030 A 
HETATM   24  C8  UNK     1      30.138  -7.010  37.264  1.00  0.00     0.032 A 
HETATM   25  C11 UNK     1      29.418  -6.255  38.189  1.00  0.00     0.038 A 
HETATM   26  C14 UNK     1      29.597  -4.873  38.250  1.00  0.00     0.103 A 
HETATM   27  C12 UNK     1      30.495  -4.247  37.386  1.00  0.00     0.038 A 
HETATM   28  C9  UNK     1      31.215  -5.003  36.461  1.00  0.00     0.032 A 
BRANCH  26  29
HETATM   29  N3  UNK     1      28.865  -4.103  39.192  1.00  0.00    -0.116 N 
HETATM   30  O2  UNK     1      29.478  -3.561  40.143  1.00  0.00    -0.532 OA
HETATM   31  O3  UNK     1      27.623  -3.983  39.047  1.00  0.00    -0.532 OA
ENDBRANCH  26  29
ENDBRANCH   2  23
TORSDOF 5
ENDMDL
MODEL 9
REMARK VINA RESULT:      -7.7      3.608      5.370
REMARK  5 active torsions:
REMARK  status: ('A' for Active; 'I' for Inactive)
REMARK    1  A    between atoms: C5_11  and  N1_4 
REMARK       I    between atoms: C6_12  and  N2_5 
REMARK    2  A    between atoms: C14_20  and  N3_6 
REMARK    3  A    between atoms: C6_12  and  C7_13 
REMARK    4  A    between atoms: C10_16  and  C7_13 
REMARK    5  A    between atoms: C13_19  and  C15_21 
ROOT
HETATM    1  O1  UNK     1      31.364  -6.043  33.703  1.00  0.00    -0.267 OA
HETATM    2  N1  UNK     1      31.163 -10.893  33.654  1.00  0.00    -0.378 N 
HETATM    3  N2  UNK     1      31.050  -8.203  34.499  1.00  0.00    -0.345 N 
HETATM    4  C1  UNK     1      31.984  -9.881  32.968  1.00  0.00     0.143 C 
HETATM    5  C2  UNK     1      29.956 -10.398  34.333  1.00  0.00     0.143 C 
HETATM    6  C3  UNK     1      32.283  -8.710  33.904  1.00  0.00     0.146 C 
HETATM    7  C4  UNK     1      30.307  -9.224  35.245  1.00  0.00     0.146 C 
HETATM    8  C6  UNK     1      30.705  -6.866  34.341  1.00  0.00     0.254 C 
ENDROOT
BRANCH   8   9
HETATM    9  C7  UNK     1      29.458  -6.396  34.978  1.00  0.00     0.043 C 
HETATM   10  C13 UNK     1      28.388  -6.351  34.167  1.00  0.00     0.029 C 
BRANCH   9  11
HETATM   11  C10 UNK     1      29.470  -6.022  36.399  1.00  0.00    -0.021 A 
HETATM   12  C16 UNK     1      30.416  -5.118  36.861  1.00  0.00     0.012 A 
HETATM   13  C18 UNK     1      30.425  -4.761  38.209  1.00  0.00     0.001 A 
HETATM   14  C22 UNK     1      29.488  -5.314  39.082  1.00  0.00     0.000 A 
HETATM   15  C19 UNK     1      28.542  -6.222  38.606  1.00  0.00     0.001 A 
HETATM   16  C17 UNK     1      28.533  -6.578  37.258  1.00  0.00     0.012 A 
ENDBRANCH   9  11
BRANCH  10  17
HETATM   17  C15 UNK     1      28.371  -6.724  32.744  1.00  0.00    -0.035 A 
HETATM   18  C20 UNK     1      28.175  -8.050  32.389  1.00  0.00     0.011 A 
HETATM   19  C23 UNK     1      28.158  -8.402  31.040  1.00  0.00     0.001 A 
HETATM   20  C25 UNK     1      28.337  -7.424  30.061  1.00  0.00     0.000 A 
HETATM   21  C24 UNK     1      28.533  -6.094  30.433  1.00  0.00     0.001 A 
HETATM   22  C21 UNK     1      28.550  -5.742  31.782  1.00  0.00     0.011 A 
ENDBRANCH  10  17
ENDBRANCH   8   9
BRANCH   2  23
HETATM   23  C5  UNK     1      31.183 -12.198  33.146  1.00  0.00     0.030 A 
HETATM   24  C8  UNK     1      31.727 -13.271  33.891  1.00  0.00     0.032 A 
HETATM   25  C11 UNK     1      31.747 -14.571  33.385  1.00  0.00     0.038 A 
HETATM   26  C14 UNK     1      31.224 -14.834  32.120  1.00  0.00     0.103 A 
HETATM   27  C12 UNK     1      30.681 -13.798  31.360  1.00  0.00     0.038 A 
HETATM   28  C9  UNK     1      30.661 -12.499  31.866  1.00  0.00     0.032 A 
BRANCH  26  29
HETATM   29  N3  UNK     1      31.244 -16.157  31.604  1.00  0.00    -0.116 N 
HETATM   30  O2  UNK     1      31.228 -16.325  30.360  1.00  0.00    -0.532 OA
HETATM   31  O3  UNK     1      31.279 -17.122  32.405  1.00  0.00    -0.532 OA
ENDBRANCH  26  29
ENDBRANCH   2  23
TORSDOF 5
ENDMDL
MODEL 10
REMARK VINA RESULT:      -7.6      3.014      8.826
REMARK  5 active torsions:
REMARK  status: ('A' for Active; 'I' for Inactive)
REMARK    1  A    between atoms: C5_11  and  N1_4 
REMARK       I    between atoms: C6_12  and  N2_5 
REMARK    2  A    between atoms: C14_20  and  N3_6 
REMARK    3  A    between atoms: C6_12  and  C7_13 
REMARK    4  A    between atoms: C10_16  and  C7_13 
REMARK    5  A    between atoms: C13_19  and  C15_21 
ROOT
HETATM    1  O1  UNK     1      30.826 -11.363  31.886  1.00  0.00    -0.267 OA
HETATM    2  N1  UNK     1      30.753  -7.936  35.323  1.00  0.00    -0.378 N 
HETATM    3  N2  UNK     1      31.633  -9.742  33.341  1.00  0.00    -0.345 N 
HETATM    4  C1  UNK     1      29.981  -9.162  35.063  1.00  0.00     0.143 C 
HETATM    5  C2  UNK     1      31.583  -7.444  34.212  1.00  0.00     0.143 C 
HETATM    6  C3  UNK     1      30.883 -10.252  34.486  1.00  0.00     0.146 C 
HETATM    7  C4  UNK     1      32.455  -8.573  33.665  1.00  0.00     0.146 C 
HETATM    8  C6  UNK     1      31.533 -10.379  32.110  1.00  0.00     0.254 C 
ENDROOT
BRANCH   8   9
HETATM    9  C7  UNK     1      32.325  -9.838  30.988  1.00  0.00     0.043 C 
HETATM   10  C13 UNK     1      31.627  -9.112  30.098  1.00  0.00     0.029 C 
BRANCH   9  11
HETATM   11  C10 UNK     1      33.766 -10.119  30.919  1.00  0.00    -0.021 A 
HETATM   12  C16 UNK     1      34.661  -9.069  30.774  1.00  0.00     0.012 A 
HETATM   13  C18 UNK     1      36.028  -9.336  30.712  1.00  0.00     0.001 A 
HETATM   14  C22 UNK     1      36.487 -10.651  30.795  1.00  0.00     0.000 A 
HETATM   15  C19 UNK     1      35.576 -11.699  30.941  1.00  0.00     0.001 A 
HETATM   16  C17 UNK     1      34.209 -11.431  31.004  1.00  0.00     0.012 A 
ENDBRANCH   9  11
BRANCH  10  17
HETATM   17  C15 UNK     1      30.185  -8.828  30.162  1.00  0.00    -0.035 A 
HETATM   18  C20 UNK     1      29.720  -7.850  31.028  1.00  0.00     0.011 A 
HETATM   19  C23 UNK     1      28.353  -7.581  31.087  1.00  0.00     0.001 A 
HETATM   20  C25 UNK     1      27.467  -8.293  30.278  1.00  0.00     0.000 A 
HETATM   21  C24 UNK     1      27.949  -9.274  29.411  1.00  0.00     0.001 A 
HETATM   22  C21 UNK     1      29.316  -9.543  29.353  1.00  0.00     0.011 A 
ENDBRANCH  10  17
ENDBRANCH   8   9
BRANCH   2  23
HETATM   23  C5  UNK     1      30.234  -7.026  36.252  1.00  0.00     0.030 A 
HETATM   24  C8  UNK     1      29.171  -7.380  37.116  1.00  0.00     0.032 A 
HETATM   25  C11 UNK     1      28.653  -6.473  38.041  1.00  0.00     0.038 A 
HETATM   26  C14 UNK     1      29.185  -5.186  38.127  1.00  0.00     0.103 A 
HETATM   27  C12 UNK     1      30.232  -4.806  37.290  1.00  0.00     0.038 A 
HETATM   28  C9  UNK     1      30.750  -5.713  36.365  1.00  0.00     0.032 A 
BRANCH  26  29
HETATM   29  N3  UNK     1      28.658  -4.262  39.069  1.00  0.00    -0.116 N 
HETATM   30  O2  UNK     1      29.432  -3.744  39.910  1.00  0.00    -0.532 OA
HETATM   31  O3  UNK     1      27.434  -3.988  39.033  1.00  0.00    -0.532 OA
ENDBRANCH  26  29
ENDBRANCH   2  23
TORSDOF 5
ENDMDL
