MODEL 1
REMARK VINA RESULT:      -7.7      0.000      0.000
REMARK  9 active torsions:
REMARK  status: ('A' for Active; 'I' for Inactive)
REMARK       I    between atoms: C10_14  and  N1_4 
REMARK    1  A    between atoms: C7_11  and  N1_4 
REMARK    2  A    between atoms: C1_5  and  C2_6 
REMARK    3  A    between atoms: C1_5  and  C3_7 
REMARK    4  A    between atoms: C2_6  and  C4_8 
REMARK    5  A    between atoms: C3_7  and  C5_9 
REMARK    6  A    between atoms: C4_8  and  C6_10 
REMARK    7  A    between atoms: C5_9  and  C7_11 
REMARK    8  A    between atoms: C6_10  and  C8_12 
REMARK    9  A    between atoms: C10_14  and  C11_15 
ROOT
HETATM    1  O2  UNK     1      17.988   3.103  28.662  1.00  0.00    -0.267 OA
HETATM    2  N1  UNK     1      19.219   4.174  30.328  1.00  0.00    -0.357 N 
HETATM    3  C10 UNK     1      18.665   3.080  29.684  1.00  0.00     0.257 C 
HETATM    4  H17 UNK     1      19.767   4.032  31.172  1.00  0.00     0.162 HD
ENDROOT
BRANCH   3   5
HETATM    5  C11 UNK     1      18.969   1.803  30.355  1.00  0.00     0.108 A 
HETATM    6  C12 UNK     1      19.607   0.885  29.618  1.00  0.00     0.037 A 
HETATM    7  C13 UNK     1      19.949  -0.407  30.192  1.00  0.00    -0.001 A 
HETATM    8  C14 UNK     1      19.604  -0.669  31.515  1.00  0.00     0.089 A 
HETATM    9  C16 UNK     1      20.614  -1.395  29.461  1.00  0.00     0.014 A 
HETATM   10  O1  UNK     1      18.933   0.301  32.285  1.00  0.00    -0.274 OA
HETATM   11  C17 UNK     1      19.903  -1.886  32.124  1.00  0.00     0.038 A 
HETATM   12  C15 UNK     1      18.592   1.546  31.762  1.00  0.00     0.304 A 
HETATM   13  O3  UNK     1      18.007   2.384  32.441  1.00  0.00    -0.259 OA
HETATM   14  C19 UNK     1      20.565  -2.865  31.387  1.00  0.00     0.003 A 
HETATM   15  C18 UNK     1      20.921  -2.620  30.059  1.00  0.00     0.001 A 
ENDBRANCH   3   5
BRANCH   2  16
HETATM   16  C7  UNK     1      19.062   5.523  29.859  1.00  0.00     0.123 C 
BRANCH  16  17
HETATM   17  C5  UNK     1      18.494   6.454  30.928  1.00  0.00     0.020 C 
BRANCH  17  18
HETATM   18  C3  UNK     1      17.766   5.747  32.077  1.00  0.00     0.002 C 
BRANCH  18  19
HETATM   19  C1  UNK     1      18.517   5.820  33.408  1.00  0.00     0.000 C 
BRANCH  19  20
HETATM   20  C2  UNK     1      19.507   6.987  33.423  1.00  0.00     0.000 C 
BRANCH  20  21
HETATM   21  C4  UNK     1      18.976   8.157  34.255  1.00  0.00     0.000 C 
BRANCH  21  22
HETATM   22  C6  UNK     1      17.642   7.807  34.916  1.00  0.00    -0.000 C 
BRANCH  22  23
HETATM   23  C8  UNK     1      16.540   8.830  34.638  1.00  0.00    -0.005 C 
HETATM   24  C9  UNK     1      16.156   8.925  33.169  1.00  0.00     0.005 C 
ENDBRANCH  22  23
ENDBRANCH  21  22
ENDBRANCH  20  21
ENDBRANCH  19  20
ENDBRANCH  18  19
ENDBRANCH  17  18
ENDBRANCH  16  17
ENDBRANCH   2  16
TORSDOF 9
ENDMDL
MODEL 2
REMARK VINA RESULT:      -7.6      6.888     12.235
REMARK  9 active torsions:
REMARK  status: ('A' for Active; 'I' for Inactive)
REMARK       I    between atoms: C10_14  and  N1_4 
REMARK    1  A    between atoms: C7_11  and  N1_4 
REMARK    2  A    between atoms: C1_5  and  C2_6 
REMARK    3  A    between atoms: C1_5  and  C3_7 
REMARK    4  A    between atoms: C2_6  and  C4_8 
REMARK    5  A    between atoms: C3_7  and  C5_9 
REMARK    6  A    between atoms: C4_8  and  C6_10 
REMARK    7  A    between atoms: C5_9  and  C7_11 
REMARK    8  A    between atoms: C6_10  and  C8_12 
REMARK    9  A    between atoms: C10_14  and  C11_15 
ROOT
HETATM    1  O2  UNK     1      21.017  -4.606  37.161  1.00  0.00    -0.267 OA
HETATM    2  N1  UNK     1      19.200  -5.310  35.880  1.00  0.00    -0.357 N 
HETATM    3  C10 UNK     1      20.041  -4.372  36.456  1.00  0.00     0.257 C 
HETATM    4  H17 UNK     1      18.418  -4.997  35.311  1.00  0.00     0.162 HD
ENDROOT
BRANCH   3   5
HETATM    5  C11 UNK     1      19.657  -2.985  36.140  1.00  0.00     0.108 A 
HETATM    6  C12 UNK     1      18.958  -2.336  37.079  1.00  0.00     0.037 A 
HETATM    7  C13 UNK     1      18.532  -0.963  36.858  1.00  0.00    -0.001 A 
HETATM    8  C14 UNK     1      18.864  -0.340  35.659  1.00  0.00     0.089 A 
HETATM    9  C16 UNK     1      17.802  -0.247  37.811  1.00  0.00     0.014 A 
HETATM   10  O1  UNK     1      19.599  -1.027  34.675  1.00  0.00    -0.274 OA
HETATM   11  C17 UNK     1      18.486   0.974  35.386  1.00  0.00     0.038 A 
HETATM   12  C15 UNK     1      20.020  -2.343  34.858  1.00  0.00     0.304 A 
HETATM   13  O3  UNK     1      20.660  -2.934  33.994  1.00  0.00    -0.259 OA
HETATM   14  C19 UNK     1      17.758   1.680  36.340  1.00  0.00     0.003 A 
HETATM   15  C18 UNK     1      17.417   1.071  37.550  1.00  0.00     0.001 A 
ENDBRANCH   3   5
BRANCH   2  16
HETATM   16  C7  UNK     1      19.375  -6.727  36.044  1.00  0.00     0.123 C 
BRANCH  16  17
HETATM   17  C5  UNK     1      20.489  -7.287  35.165  1.00  0.00     0.020 C 
BRANCH  17  18
HETATM   18  C3  UNK     1      21.454  -8.243  35.877  1.00  0.00     0.002 C 
BRANCH  18  19
HETATM   19  C1  UNK     1      21.114  -9.719  35.664  1.00  0.00     0.000 C 
BRANCH  19  20
HETATM   20  C2  UNK     1      21.187 -10.499  36.979  1.00  0.00     0.000 C 
BRANCH  20  21
HETATM   21  C4  UNK     1      19.793 -10.887  37.476  1.00  0.00     0.000 C 
BRANCH  21  22
HETATM   22  C6  UNK     1      19.161  -9.759  38.293  1.00  0.00    -0.000 C 
BRANCH  22  23
HETATM   23  C8  UNK     1      20.094  -9.188  39.362  1.00  0.00    -0.005 C 
HETATM   24  C9  UNK     1      20.055  -7.670  39.455  1.00  0.00     0.005 C 
ENDBRANCH  22  23
ENDBRANCH  21  22
ENDBRANCH  20  21
ENDBRANCH  19  20
ENDBRANCH  18  19
ENDBRANCH  17  18
ENDBRANCH  16  17
ENDBRANCH   2  16
TORSDOF 9
ENDMDL
MODEL 3
REMARK VINA RESULT:      -7.6      7.009     12.442
REMARK  9 active torsions:
REMARK  status: ('A' for Active; 'I' for Inactive)
REMARK       I    between atoms: C10_14  and  N1_4 
REMARK    1  A    between atoms: C7_11  and  N1_4 
REMARK    2  A    between atoms: C1_5  and  C2_6 
REMARK    3  A    between atoms: C1_5  and  C3_7 
REMARK    4  A    between atoms: C2_6  and  C4_8 
REMARK    5  A    between atoms: C3_7  and  C5_9 
REMARK    6  A    between atoms: C4_8  and  C6_10 
REMARK    7  A    between atoms: C5_9  and  C7_11 
REMARK    8  A    between atoms: C6_10  and  C8_12 
REMARK    9  A    between atoms: C10_14  and  C11_15 
ROOT
HETATM    1  O2  UNK     1      21.035  -4.704  36.744  1.00  0.00    -0.267 OA
HETATM    2  N1  UNK     1      18.837  -5.221  36.166  1.00  0.00    -0.357 N 
HETATM    3  C10 UNK     1      19.911  -4.374  36.384  1.00  0.00     0.257 C 
HETATM    4  H17 UNK     1      17.947  -4.831  35.864  1.00  0.00     0.162 HD
ENDROOT
BRANCH   3   5
HETATM    5  C11 UNK     1      19.588  -2.958  36.132  1.00  0.00     0.108 A 
HETATM    6  C12 UNK     1      18.880  -2.336  37.081  1.00  0.00     0.037 A 
HETATM    7  C13 UNK     1      18.511  -0.937  36.922  1.00  0.00    -0.001 A 
HETATM    8  C14 UNK     1      18.906  -0.263  35.771  1.00  0.00     0.089 A 
HETATM    9  C16 UNK     1      17.773  -0.247  37.888  1.00  0.00     0.014 A 
HETATM   10  O1  UNK     1      19.652  -0.924  34.776  1.00  0.00    -0.274 OA
HETATM   11  C17 UNK     1      18.585   1.076  35.559  1.00  0.00     0.038 A 
HETATM   12  C15 UNK     1      20.019  -2.262  34.899  1.00  0.00     0.304 A 
HETATM   13  O3  UNK     1      20.667  -2.829  34.026  1.00  0.00    -0.259 OA
HETATM   14  C19 UNK     1      17.849   1.756  36.526  1.00  0.00     0.003 A 
HETATM   15  C18 UNK     1      17.444   1.096  37.688  1.00  0.00     0.001 A 
ENDBRANCH   3   5
BRANCH   2  16
HETATM   16  C7  UNK     1      18.910  -6.645  36.343  1.00  0.00     0.123 C 
BRANCH  16  17
HETATM   17  C5  UNK     1      18.657  -7.071  37.786  1.00  0.00     0.020 C 
BRANCH  17  18
HETATM   18  C3  UNK     1      19.910  -7.485  38.566  1.00  0.00     0.002 C 
BRANCH  18  19
HETATM   19  C1  UNK     1      19.887  -8.945  39.022  1.00  0.00     0.000 C 
BRANCH  19  20
HETATM   20  C2  UNK     1      19.033  -9.805  38.087  1.00  0.00     0.000 C 
BRANCH  20  21
HETATM   21  C4  UNK     1      19.800 -11.041  37.612  1.00  0.00     0.000 C 
BRANCH  21  22
HETATM   22  C6  UNK     1      21.230 -10.684  37.203  1.00  0.00    -0.000 C 
BRANCH  22  23
HETATM   23  C8  UNK     1      21.422 -10.584  35.689  1.00  0.00    -0.005 C 
HETATM   24  C9  UNK     1      21.384  -9.156  35.165  1.00  0.00     0.005 C 
ENDBRANCH  22  23
ENDBRANCH  21  22
ENDBRANCH  20  21
ENDBRANCH  19  20
ENDBRANCH  18  19
ENDBRANCH  17  18
ENDBRANCH  16  17
ENDBRANCH   2  16
TORSDOF 9
ENDMDL
MODEL 4
REMARK VINA RESULT:      -7.4      1.888      7.080
REMARK  9 active torsions:
REMARK  status: ('A' for Active; 'I' for Inactive)
REMARK       I    between atoms: C10_14  and  N1_4 
REMARK    1  A    between atoms: C7_11  and  N1_4 
REMARK    2  A    between atoms: C1_5  and  C2_6 
REMARK    3  A    between atoms: C1_5  and  C3_7 
REMARK    4  A    between atoms: C2_6  and  C4_8 
REMARK    5  A    between atoms: C3_7  and  C5_9 
REMARK    6  A    between atoms: C4_8  and  C6_10 
REMARK    7  A    between atoms: C5_9  and  C7_11 
REMARK    8  A    between atoms: C6_10  and  C8_12 
REMARK    9  A    between atoms: C10_14  and  C11_15 
ROOT
HETATM    1  O2  UNK     1      18.384   1.805  28.519  1.00  0.00    -0.267 OA
HETATM    2  N1  UNK     1      19.917   0.809  29.968  1.00  0.00    -0.357 N 
HETATM    3  C10 UNK     1      18.961   1.742  29.599  1.00  0.00     0.257 C 
HETATM    4  H17 UNK     1      20.327   0.855  30.897  1.00  0.00     0.162 HD
ENDROOT
BRANCH   3   5
HETATM    5  C11 UNK     1      18.666   2.715  30.667  1.00  0.00     0.108 A 
HETATM    6  C12 UNK     1      18.729   4.007  30.323  1.00  0.00     0.037 A 
HETATM    7  C13 UNK     1      18.456   5.041  31.309  1.00  0.00    -0.001 A 
HETATM    8  C14 UNK     1      18.128   4.665  32.607  1.00  0.00     0.089 A 
HETATM    9  C16 UNK     1      18.510   6.402  30.995  1.00  0.00     0.014 A 
HETATM   10  O1  UNK     1      18.062   3.304  32.962  1.00  0.00    -0.274 OA
HETATM   11  C17 UNK     1      17.854   5.606  33.597  1.00  0.00     0.038 A 
HETATM   12  C15 UNK     1      18.320   2.291  32.041  1.00  0.00     0.304 A 
HETATM   13  O3  UNK     1      18.261   1.108  32.360  1.00  0.00    -0.259 OA
HETATM   14  C19 UNK     1      17.911   6.960  33.276  1.00  0.00     0.003 A 
HETATM   15  C18 UNK     1      18.237   7.358  31.977  1.00  0.00     0.001 A 
ENDBRANCH   3   5
BRANCH   2  16
HETATM   16  C7  UNK     1      20.366  -0.241  29.096  1.00  0.00     0.123 C 
BRANCH  16  17
HETATM   17  C5  UNK     1      20.401  -1.602  29.784  1.00  0.00     0.020 C 
BRANCH  17  18
HETATM   18  C3  UNK     1      20.211  -1.561  31.305  1.00  0.00     0.002 C 
BRANCH  18  19
HETATM   19  C1  UNK     1      20.907  -2.709  32.037  1.00  0.00     0.000 C 
BRANCH  19  20
HETATM   20  C2  UNK     1      20.550  -2.715  33.525  1.00  0.00     0.000 C 
BRANCH  20  21
HETATM   21  C4  UNK     1      19.543  -1.613  33.862  1.00  0.00     0.000 C 
BRANCH  21  22
HETATM   22  C6  UNK     1      19.214  -1.600  35.356  1.00  0.00    -0.000 C 
BRANCH  22  23
HETATM   23  C8  UNK     1      18.056  -0.667  35.714  1.00  0.00    -0.005 C 
HETATM   24  C9  UNK     1      18.460   0.797  35.802  1.00  0.00     0.005 C 
ENDBRANCH  22  23
ENDBRANCH  21  22
ENDBRANCH  20  21
ENDBRANCH  19  20
ENDBRANCH  18  19
ENDBRANCH  17  18
ENDBRANCH  16  17
ENDBRANCH   2  16
TORSDOF 9
ENDMDL
MODEL 5
REMARK VINA RESULT:      -7.3      2.941      5.253
REMARK  9 active torsions:
REMARK  status: ('A' for Active; 'I' for Inactive)
REMARK       I    between atoms: C10_14  and  N1_4 
REMARK    1  A    between atoms: C7_11  and  N1_4 
REMARK    2  A    between atoms: C1_5  and  C2_6 
REMARK    3  A    between atoms: C1_5  and  C3_7 
REMARK    4  A    between atoms: C2_6  and  C4_8 
REMARK    5  A    between atoms: C3_7  and  C5_9 
REMARK    6  A    between atoms: C4_8  and  C6_10 
REMARK    7  A    between atoms: C5_9  and  C7_11 
REMARK    8  A    between atoms: C6_10  and  C8_12 
REMARK    9  A    between atoms: C10_14  and  C11_15 
ROOT
HETATM    1  O2  UNK     1      20.179  -2.296  30.380  1.00  0.00    -0.267 OA
HETATM    2  N1  UNK     1      19.615  -0.047  30.627  1.00  0.00    -0.357 N 
HETATM    3  C10 UNK     1      19.830  -1.343  31.067  1.00  0.00     0.257 C 
HETATM    4  H17 UNK     1      19.327   0.666  31.293  1.00  0.00     0.162 HD
ENDROOT
BRANCH   3   5
HETATM    5  C11 UNK     1      19.598  -1.504  32.514  1.00  0.00     0.108 A 
HETATM    6  C12 UNK     1      18.590  -0.795  33.034  1.00  0.00     0.037 A 
HETATM    7  C13 UNK     1      18.284  -0.887  34.453  1.00  0.00    -0.001 A 
HETATM    8  C14 UNK     1      19.056  -1.721  35.255  1.00  0.00     0.089 A 
HETATM    9  C16 UNK     1      17.240  -0.165  35.038  1.00  0.00     0.014 A 
HETATM   10  O1  UNK     1      20.116  -2.465  34.702  1.00  0.00    -0.274 OA
HETATM   11  C17 UNK     1      18.815  -1.854  36.621  1.00  0.00     0.038 A 
HETATM   12  C15 UNK     1      20.433  -2.397  33.347  1.00  0.00     0.304 A 
HETATM   13  O3  UNK     1      21.359  -3.048  32.875  1.00  0.00    -0.259 OA
HETATM   14  C19 UNK     1      17.773  -1.131  37.197  1.00  0.00     0.003 A 
HETATM   15  C18 UNK     1      16.987  -0.289  36.407  1.00  0.00     0.001 A 
ENDBRANCH   3   5
BRANCH   2  16
HETATM   16  C7  UNK     1      19.780   0.355  29.257  1.00  0.00     0.123 C 
BRANCH  16  17
HETATM   17  C5  UNK     1      18.453   0.676  28.574  1.00  0.00     0.020 C 
BRANCH  17  18
HETATM   18  C3  UNK     1      17.923   2.091  28.830  1.00  0.00     0.002 C 
BRANCH  18  19
HETATM   19  C1  UNK     1      18.826   2.924  29.740  1.00  0.00     0.000 C 
BRANCH  19  20
HETATM   20  C2  UNK     1      18.205   3.097  31.129  1.00  0.00     0.000 C 
BRANCH  20  21
HETATM   21  C4  UNK     1      18.216   4.563  31.567  1.00  0.00     0.000 C 
BRANCH  21  22
HETATM   22  C6  UNK     1      19.070   5.416  30.626  1.00  0.00    -0.000 C 
BRANCH  22  23
HETATM   23  C8  UNK     1      20.408   5.837  31.237  1.00  0.00    -0.005 C 
HETATM   24  C9  UNK     1      20.278   6.434  32.630  1.00  0.00     0.005 C 
ENDBRANCH  22  23
ENDBRANCH  21  22
ENDBRANCH  20  21
ENDBRANCH  19  20
ENDBRANCH  18  19
ENDBRANCH  17  18
ENDBRANCH  16  17
ENDBRANCH   2  16
TORSDOF 9
ENDMDL
MODEL 6
REMARK VINA RESULT:      -7.1      5.425     10.140
REMARK  9 active torsions:
REMARK  status: ('A' for Active; 'I' for Inactive)
REMARK       I    between atoms: C10_14  and  N1_4 
REMARK    1  A    between atoms: C7_11  and  N1_4 
REMARK    2  A    between atoms: C1_5  and  C2_6 
REMARK    3  A    between atoms: C1_5  and  C3_7 
REMARK    4  A    between atoms: C2_6  and  C4_8 
REMARK    5  A    between atoms: C3_7  and  C5_9 
REMARK    6  A    between atoms: C4_8  and  C6_10 
REMARK    7  A    between atoms: C5_9  and  C7_11 
REMARK    8  A    between atoms: C6_10  and  C8_12 
REMARK    9  A    between atoms: C10_14  and  C11_15 
ROOT
HETATM    1  O2  UNK     1      17.435  -0.660  35.759  1.00  0.00    -0.267 OA
HETATM    2  N1  UNK     1      19.256  -2.097  35.521  1.00  0.00    -0.357 N 
HETATM    3  C10 UNK     1      18.376  -1.108  35.113  1.00  0.00     0.257 C 
HETATM    4  H17 UNK     1      20.004  -2.388  34.897  1.00  0.00     0.162 HD
ENDROOT
BRANCH   3   5
HETATM    5  C11 UNK     1      18.672  -0.596  33.763  1.00  0.00     0.108 A 
HETATM    6  C12 UNK     1      19.229  -1.464  32.911  1.00  0.00     0.037 A 
HETATM    7  C13 UNK     1      19.559  -1.052  31.555  1.00  0.00    -0.001 A 
HETATM    8  C14 UNK     1      19.286   0.255  31.163  1.00  0.00     0.089 A 
HETATM    9  C16 UNK     1      20.141  -1.925  30.632  1.00  0.00     0.014 A 
HETATM   10  O1  UNK     1      18.699   1.164  32.065  1.00  0.00    -0.274 OA
HETATM   11  C17 UNK     1      19.577   0.712  29.880  1.00  0.00     0.038 A 
HETATM   12  C15 UNK     1      18.373   0.798  33.369  1.00  0.00     0.304 A 
HETATM   13  O3  UNK     1      17.863   1.598  34.147  1.00  0.00    -0.259 OA
HETATM   14  C19 UNK     1      20.158  -0.164  28.966  1.00  0.00     0.003 A 
HETATM   15  C18 UNK     1      20.438  -1.480  29.341  1.00  0.00     0.001 A 
ENDBRANCH   3   5
BRANCH   2  16
HETATM   16  C7  UNK     1      19.170  -2.746  36.800  1.00  0.00     0.123 C 
BRANCH  16  17
HETATM   17  C5  UNK     1      19.511  -4.232  36.730  1.00  0.00     0.020 C 
BRANCH  17  18
HETATM   18  C3  UNK     1      20.795  -4.635  37.463  1.00  0.00     0.002 C 
BRANCH  18  19
HETATM   19  C1  UNK     1      20.909  -6.140  37.707  1.00  0.00     0.000 C 
BRANCH  19  20
HETATM   20  C2  UNK     1      20.624  -6.488  39.170  1.00  0.00     0.000 C 
BRANCH  20  21
HETATM   21  C4  UNK     1      19.940  -7.851  39.297  1.00  0.00     0.000 C 
BRANCH  21  22
HETATM   22  C6  UNK     1      18.995  -8.108  38.121  1.00  0.00    -0.000 C 
BRANCH  22  23
HETATM   23  C8  UNK     1      19.210  -9.469  37.457  1.00  0.00    -0.005 C 
HETATM   24  C9  UNK     1      19.392 -10.607  38.449  1.00  0.00     0.005 C 
ENDBRANCH  22  23
ENDBRANCH  21  22
ENDBRANCH  20  21
ENDBRANCH  19  20
ENDBRANCH  18  19
ENDBRANCH  17  18
ENDBRANCH  16  17
ENDBRANCH   2  16
TORSDOF 9
ENDMDL
MODEL 7
REMARK VINA RESULT:      -7.0      2.031      8.706
REMARK  9 active torsions:
REMARK  status: ('A' for Active; 'I' for Inactive)
REMARK       I    between atoms: C10_14  and  N1_4 
REMARK    1  A    between atoms: C7_11  and  N1_4 
REMARK    2  A    between atoms: C1_5  and  C2_6 
REMARK    3  A    between atoms: C1_5  and  C3_7 
REMARK    4  A    between atoms: C2_6  and  C4_8 
REMARK    5  A    between atoms: C3_7  and  C5_9 
REMARK    6  A    between atoms: C4_8  and  C6_10 
REMARK    7  A    between atoms: C5_9  and  C7_11 
REMARK    8  A    between atoms: C6_10  and  C8_12 
REMARK    9  A    between atoms: C10_14  and  C11_15 
ROOT
HETATM    1  O2  UNK     1      17.910   3.799  33.041  1.00  0.00    -0.267 OA
HETATM    2  N1  UNK     1      18.662   4.709  31.030  1.00  0.00    -0.357 N 
HETATM    3  C10 UNK     1      18.147   4.758  32.315  1.00  0.00     0.257 C 
HETATM    4  H17 UNK     1      18.819   5.575  30.522  1.00  0.00     0.162 HD
ENDROOT
BRANCH   3   5
HETATM    5  C11 UNK     1      17.890   6.134  32.779  1.00  0.00     0.108 A 
HETATM    6  C12 UNK     1      16.617   6.434  33.061  1.00  0.00     0.037 A 
HETATM    7  C13 UNK     1      16.264   7.767  33.525  1.00  0.00    -0.001 A 
HETATM    8  C14 UNK     1      17.270   8.718  33.670  1.00  0.00     0.089 A 
HETATM    9  C16 UNK     1      14.948   8.125  33.831  1.00  0.00     0.014 A 
HETATM   10  O1  UNK     1      18.607   8.395  33.372  1.00  0.00    -0.274 OA
HETATM   11  C17 UNK     1      16.998  10.012  34.110  1.00  0.00     0.038 A 
HETATM   12  C15 UNK     1      18.976   7.128  32.926  1.00  0.00     0.304 A 
HETATM   13  O3  UNK     1      20.144   6.857  32.668  1.00  0.00    -0.259 OA
HETATM   14  C19 UNK     1      15.684  10.361  34.412  1.00  0.00     0.003 A 
HETATM   15  C18 UNK     1      14.661   9.419  34.274  1.00  0.00     0.001 A 
ENDBRANCH   3   5
BRANCH   2  16
HETATM   16  C7  UNK     1      18.995   3.480  30.364  1.00  0.00     0.123 C 
BRANCH  16  17
HETATM   17  C5  UNK     1      18.088   3.195  29.169  1.00  0.00     0.020 C 
BRANCH  17  18
HETATM   18  C3  UNK     1      18.072   1.734  28.707  1.00  0.00     0.002 C 
BRANCH  18  19
HETATM   19  C1  UNK     1      18.848   0.794  29.631  1.00  0.00     0.000 C 
BRANCH  19  20
HETATM   20  C2  UNK     1      19.943   0.046  28.867  1.00  0.00     0.000 C 
BRANCH  20  21
HETATM   21  C4  UNK     1      20.329  -1.254  29.577  1.00  0.00     0.000 C 
BRANCH  21  22
HETATM   22  C6  UNK     1      20.827  -0.983  30.998  1.00  0.00    -0.000 C 
BRANCH  22  23
HETATM   23  C8  UNK     1      20.151  -1.858  32.055  1.00  0.00    -0.005 C 
HETATM   24  C9  UNK     1      18.828  -1.295  32.554  1.00  0.00     0.005 C 
ENDBRANCH  22  23
ENDBRANCH  21  22
ENDBRANCH  20  21
ENDBRANCH  19  20
ENDBRANCH  18  19
ENDBRANCH  17  18
ENDBRANCH  16  17
ENDBRANCH   2  16
TORSDOF 9
ENDMDL
MODEL 8
REMARK VINA RESULT:      -6.9      6.222      9.432
REMARK  9 active torsions:
REMARK  status: ('A' for Active; 'I' for Inactive)
REMARK       I    between atoms: C10_14  and  N1_4 
REMARK    1  A    between atoms: C7_11  and  N1_4 
REMARK    2  A    between atoms: C1_5  and  C2_6 
REMARK    3  A    between atoms: C1_5  and  C3_7 
REMARK    4  A    between atoms: C2_6  and  C4_8 
REMARK    5  A    between atoms: C3_7  and  C5_9 
REMARK    6  A    between atoms: C4_8  and  C6_10 
REMARK    7  A    between atoms: C5_9  and  C7_11 
REMARK    8  A    between atoms: C6_10  and  C8_12 
REMARK    9  A    between atoms: C10_14  and  C11_15 
ROOT
HETATM    1  O2  UNK     1      18.588  -2.861  36.704  1.00  0.00    -0.267 OA
HETATM    2  N1  UNK     1      20.144  -3.523  35.099  1.00  0.00    -0.357 N 
HETATM    3  C10 UNK     1      19.416  -3.654  36.270  1.00  0.00     0.257 C 
HETATM    4  H17 UNK     1      20.805  -4.250  34.837  1.00  0.00     0.162 HD
ENDROOT
BRANCH   3   5
HETATM    5  C11 UNK     1      19.723  -4.897  37.001  1.00  0.00     0.108 A 
HETATM    6  C12 UNK     1      20.928  -4.961  37.578  1.00  0.00     0.037 A 
HETATM    7  C13 UNK     1      21.324  -6.147  38.322  1.00  0.00    -0.001 A 
HETATM    8  C14 UNK     1      20.429  -7.208  38.421  1.00  0.00     0.089 A 
HETATM    9  C16 UNK     1      22.572  -6.257  38.940  1.00  0.00     0.014 A 
HETATM   10  O1  UNK     1      19.161  -7.135  37.812  1.00  0.00    -0.274 OA
HETATM   11  C17 UNK     1      20.746  -8.372  39.119  1.00  0.00     0.038 A 
HETATM   12  C15 UNK     1      18.755  -6.013  37.094  1.00  0.00     0.304 A 
HETATM   13  O3  UNK     1      17.649  -5.959  36.566  1.00  0.00    -0.259 OA
HETATM   14  C19 UNK     1      21.993  -8.473  39.732  1.00  0.00     0.003 A 
HETATM   15  C18 UNK     1      22.903  -7.418  39.644  1.00  0.00     0.001 A 
ENDBRANCH   3   5
BRANCH   2  16
HETATM   16  C7  UNK     1      20.015  -2.397  34.216  1.00  0.00     0.123 C 
BRANCH  16  17
HETATM   17  C5  UNK     1      20.788  -2.581  32.912  1.00  0.00     0.020 C 
BRANCH  17  18
HETATM   18  C3  UNK     1      20.266  -1.755  31.731  1.00  0.00     0.002 C 
BRANCH  18  19
HETATM   19  C1  UNK     1      20.598  -2.365  30.368  1.00  0.00     0.000 C 
BRANCH  19  20
HETATM   20  C2  UNK     1      20.289  -1.386  29.233  1.00  0.00     0.000 C 
BRANCH  20  21
HETATM   21  C4  UNK     1      20.276   0.061  29.732  1.00  0.00     0.000 C 
BRANCH  21  22
HETATM   22  C6  UNK     1      19.211   0.888  29.009  1.00  0.00    -0.000 C 
BRANCH  22  23
HETATM   23  C8  UNK     1      18.365   1.745  29.951  1.00  0.00    -0.005 C 
HETATM   24  C9  UNK     1      18.721   3.223  29.912  1.00  0.00     0.005 C 
ENDBRANCH  22  23
ENDBRANCH  21  22
ENDBRANCH  20  21
ENDBRANCH  19  20
ENDBRANCH  18  19
ENDBRANCH  17  18
ENDBRANCH  16  17
ENDBRANCH   2  16
TORSDOF 9
ENDMDL
MODEL 9
REMARK VINA RESULT:      -6.9      5.454     10.722
REMARK  9 active torsions:
REMARK  status: ('A' for Active; 'I' for Inactive)
REMARK       I    between atoms: C10_14  and  N1_4 
REMARK    1  A    between atoms: C7_11  and  N1_4 
REMARK    2  A    between atoms: C1_5  and  C2_6 
REMARK    3  A    between atoms: C1_5  and  C3_7 
REMARK    4  A    between atoms: C2_6  and  C4_8 
REMARK    5  A    between atoms: C3_7  and  C5_9 
REMARK    6  A    between atoms: C4_8  and  C6_10 
REMARK    7  A    between atoms: C5_9  and  C7_11 
REMARK    8  A    between atoms: C6_10  and  C8_12 
REMARK    9  A    between atoms: C10_14  and  C11_15 
ROOT
HETATM    1  O2  UNK     1      20.795  -1.661  35.404  1.00  0.00    -0.267 OA
HETATM    2  N1  UNK     1      19.900  -3.764  34.945  1.00  0.00    -0.357 N 
HETATM    3  C10 UNK     1      20.380  -2.506  34.619  1.00  0.00     0.257 C 
HETATM    4  H17 UNK     1      19.581  -4.384  34.205  1.00  0.00     0.162 HD
ENDROOT
BRANCH   3   5
HETATM    5  C11 UNK     1      20.357  -2.239  33.169  1.00  0.00     0.108 A 
HETATM    6  C12 UNK     1      19.836  -1.066  32.793  1.00  0.00     0.037 A 
HETATM    7  C13 UNK     1      19.769  -0.712  31.383  1.00  0.00    -0.001 A 
HETATM    8  C14 UNK     1      20.253  -1.613  30.440  1.00  0.00     0.089 A 
HETATM    9  C16 UNK     1      19.234   0.502  30.944  1.00  0.00     0.014 A 
HETATM   10  O1  UNK     1      20.799  -2.847  30.842  1.00  0.00    -0.274 OA
HETATM   11  C17 UNK     1      20.217  -1.335  29.074  1.00  0.00     0.038 A 
HETATM   12  C15 UNK     1      20.877  -3.213  32.184  1.00  0.00     0.304 A 
HETATM   13  O3  UNK     1      21.353  -4.290  32.525  1.00  0.00    -0.259 OA
HETATM   14  C19 UNK     1      19.683  -0.123  28.645  1.00  0.00     0.003 A 
HETATM   15  C18 UNK     1      19.193   0.794  29.578  1.00  0.00     0.001 A 
ENDBRANCH   3   5
BRANCH   2  16
HETATM   16  C7  UNK     1      19.827  -4.252  36.294  1.00  0.00     0.123 C 
BRANCH  16  17
HETATM   17  C5  UNK     1      20.129  -5.744  36.397  1.00  0.00     0.020 C 
BRANCH  17  18
HETATM   18  C3  UNK     1      20.078  -6.506  35.067  1.00  0.00     0.002 C 
BRANCH  18  19
HETATM   19  C1  UNK     1      20.540  -7.959  35.180  1.00  0.00     0.000 C 
BRANCH  19  20
HETATM   20  C2  UNK     1      21.697  -8.097  36.173  1.00  0.00     0.000 C 
BRANCH  20  21
HETATM   21  C4  UNK     1      21.436  -9.218  37.181  1.00  0.00     0.000 C 
BRANCH  21  22
HETATM   22  C6  UNK     1      21.286  -8.665  38.600  1.00  0.00    -0.000 C 
BRANCH  22  23
HETATM   23  C8  UNK     1      19.830  -8.518  39.043  1.00  0.00    -0.005 C 
HETATM   24  C9  UNK     1      18.858  -9.356  38.225  1.00  0.00     0.005 C 
ENDBRANCH  22  23
ENDBRANCH  21  22
ENDBRANCH  20  21
ENDBRANCH  19  20
ENDBRANCH  18  19
ENDBRANCH  17  18
ENDBRANCH  16  17
ENDBRANCH   2  16
TORSDOF 9
ENDMDL
MODEL 10
REMARK VINA RESULT:      -6.8      6.671      9.849
REMARK  9 active torsions:
REMARK  status: ('A' for Active; 'I' for Inactive)
REMARK       I    between atoms: C10_14  and  N1_4 
REMARK    1  A    between atoms: C7_11  and  N1_4 
REMARK    2  A    between atoms: C1_5  and  C2_6 
REMARK    3  A    between atoms: C1_5  and  C3_7 
REMARK    4  A    between atoms: C2_6  and  C4_8 
REMARK    5  A    between atoms: C3_7  and  C5_9 
REMARK    6  A    between atoms: C4_8  and  C6_10 
REMARK    7  A    between atoms: C5_9  and  C7_11 
REMARK    8  A    between atoms: C6_10  and  C8_12 
REMARK    9  A    between atoms: C10_14  and  C11_15 
ROOT
HETATM    1  O2  UNK     1      20.214  -4.267  34.978  1.00  0.00    -0.267 OA
HETATM    2  N1  UNK     1      19.274  -3.817  37.063  1.00  0.00    -0.357 N 
HETATM    3  C10 UNK     1      19.740  -4.634  36.047  1.00  0.00     0.257 C 
HETATM    4  H17 UNK     1      18.901  -4.237  37.911  1.00  0.00     0.162 HD
ENDROOT
BRANCH   3   5
HETATM    5  C11 UNK     1      19.621  -6.069  36.363  1.00  0.00     0.108 A 
HETATM    6  C12 UNK     1      20.741  -6.793  36.256  1.00  0.00     0.037 A 
HETATM    7  C13 UNK     1      20.724  -8.218  36.545  1.00  0.00    -0.001 A 
HETATM    8  C14 UNK     1      19.527  -8.812  36.935  1.00  0.00     0.089 A 
HETATM    9  C16 UNK     1      21.869  -9.013  36.447  1.00  0.00     0.014 A 
HETATM   10  O1  UNK     1      18.351  -8.045  37.046  1.00  0.00    -0.274 OA
HETATM   11  C17 UNK     1      19.443 -10.172  37.226  1.00  0.00     0.038 A 
HETATM   12  C15 UNK     1      18.337  -6.678  36.774  1.00  0.00     0.304 A 
HETATM   13  O3  UNK     1      17.307  -6.019  36.873  1.00  0.00    -0.259 OA
HETATM   14  C19 UNK     1      20.589 -10.956  37.125  1.00  0.00     0.003 A 
HETATM   15  C18 UNK     1      21.800 -10.378  36.738  1.00  0.00     0.001 A 
ENDBRANCH   3   5
BRANCH   2  16
HETATM   16  C7  UNK     1      19.289  -2.382  36.987  1.00  0.00     0.123 C 
BRANCH  16  17
HETATM   17  C5  UNK     1      18.020  -1.750  37.550  1.00  0.00     0.020 C 
BRANCH  17  18
HETATM   18  C3  UNK     1      17.498  -0.541  36.765  1.00  0.00     0.002 C 
BRANCH  18  19
HETATM   19  C1  UNK     1      17.023  -0.891  35.354  1.00  0.00     0.000 C 
BRANCH  19  20
HETATM   20  C2  UNK     1      17.846  -0.156  34.293  1.00  0.00     0.000 C 
BRANCH  20  21
HETATM   21  C4  UNK     1      18.710  -1.126  33.486  1.00  0.00     0.000 C 
BRANCH  21  22
HETATM   22  C6  UNK     1      19.074  -0.541  32.120  1.00  0.00    -0.000 C 
BRANCH  22  23
HETATM   23  C8  UNK     1      19.948  -1.470  31.276  1.00  0.00    -0.005 C 
HETATM   24  C9  UNK     1      20.884  -2.340  32.101  1.00  0.00     0.005 C 
ENDBRANCH  22  23
ENDBRANCH  21  22
ENDBRANCH  20  21
ENDBRANCH  19  20
ENDBRANCH  18  19
ENDBRANCH  17  18
ENDBRANCH  16  17
ENDBRANCH   2  16
TORSDOF 9
ENDMDL
