MODEL 1
REMARK VINA RESULT:     -10.1      0.000      0.000
REMARK  3 active torsions:
REMARK  status: ('A' for Active; 'I' for Inactive)
REMARK    1  A    between atoms: C18_25  and  O4_5 
REMARK    2  A    between atoms: C5_12  and  N1_6 
REMARK       I    between atoms: C6_13  and  N2_7 
REMARK    3  A    between atoms: C6_13  and  C7_14 
ROOT
HETATM    1  O1  UNK     1      17.049  -0.073  35.569  1.00  0.00    -0.267 OA
HETATM    2  N1  UNK     1      20.015  -3.859  37.119  1.00  0.00    -0.378 N 
HETATM    3  N2  UNK     1      18.768  -1.630  35.757  1.00  0.00    -0.345 N 
HETATM    4  C1  UNK     1      20.808  -2.991  36.248  1.00  0.00     0.143 C 
HETATM    5  C2  UNK     1      18.621  -3.489  37.380  1.00  0.00     0.143 C 
HETATM    6  C3  UNK     1      19.926  -2.329  35.188  1.00  0.00     0.146 C 
HETATM    7  C4  UNK     1      18.400  -2.000  37.122  1.00  0.00     0.146 C 
HETATM    8  C6  UNK     1      18.021  -0.661  35.092  1.00  0.00     0.260 C 
ENDROOT
BRANCH   8   9
HETATM    9  C7  UNK     1      18.424  -0.327  33.710  1.00  0.00     0.108 A 
HETATM   10  C10 UNK     1      19.032  -1.300  33.020  1.00  0.00     0.037 A 
HETATM   11  C11 UNK     1      19.466  -1.066  31.652  1.00  0.00     0.002 A 
HETATM   12  C15 UNK     1      19.241   0.180  31.077  1.00  0.00     0.123 A 
HETATM   13  C17 UNK     1      20.103  -2.053  30.894  1.00  0.00     0.014 A 
HETATM   14  O2  UNK     1      18.601   1.200  31.809  1.00  0.00    -0.271 OA
HETATM   15  C18 UNK     1      19.632   0.468  29.771  1.00  0.00     0.102 A 
HETATM   16  C12 UNK     1      18.173   1.006  33.119  1.00  0.00     0.304 A 
HETATM   17  O3  UNK     1      17.616   1.900  33.747  1.00  0.00    -0.259 OA
HETATM   18  C20 UNK     1      20.266  -0.522  29.023  1.00  0.00     0.040 A 
HETATM   19  C19 UNK     1      20.502  -1.779  29.583  1.00  0.00     0.004 A 
BRANCH  15  20
HETATM   20  O4  UNK     1      19.405   1.690  29.222  1.00  0.00    -0.353 OA
HETATM   21  C21 UNK     1      18.112   1.921  28.661  1.00  0.00     0.210 C 
ENDBRANCH  15  20
ENDBRANCH   8   9
BRANCH   2  22
HETATM   22  C5  UNK     1      20.578  -4.974  37.737  1.00  0.00     0.030 A 
HETATM   23  C8  UNK     1      19.802  -6.115  38.050  1.00  0.00     0.032 A 
HETATM   24  C13 UNK     1      20.367  -7.230  38.670  1.00  0.00     0.044 A 
HETATM   25  C16 UNK     1      21.724  -7.235  38.993  1.00  0.00     0.116 A 
HETATM   26  C14 UNK     1      22.516  -6.127  38.696  1.00  0.00     0.044 A 
HETATM   27  F1  UNK     1      22.267  -8.306  39.587  1.00  0.00    -0.206 F 
HETATM   28  C9  UNK     1      21.951  -5.011  38.077  1.00  0.00     0.032 A 
ENDBRANCH   2  22
TORSDOF 3
ENDMDL
MODEL 2
REMARK VINA RESULT:     -10.1      6.468     10.619
REMARK  3 active torsions:
REMARK  status: ('A' for Active; 'I' for Inactive)
REMARK    1  A    between atoms: C18_25  and  O4_5 
REMARK    2  A    between atoms: C5_12  and  N1_6 
REMARK       I    between atoms: C6_13  and  N2_7 
REMARK    3  A    between atoms: C6_13  and  C7_14 
ROOT
HETATM    1  O1  UNK     1      17.566   2.391  31.122  1.00  0.00    -0.267 OA
HETATM    2  N1  UNK     1      18.586   6.842  33.285  1.00  0.00    -0.378 N 
HETATM    3  N2  UNK     1      18.305   4.049  32.577  1.00  0.00    -0.345 N 
HETATM    4  C1  UNK     1      19.480   5.840  33.868  1.00  0.00     0.143 C 
HETATM    5  C2  UNK     1      17.647   6.409  32.246  1.00  0.00     0.143 C 
HETATM    6  C3  UNK     1      18.816   4.462  33.889  1.00  0.00     0.146 C 
HETATM    7  C4  UNK     1      18.124   5.114  31.592  1.00  0.00     0.146 C 
HETATM    8  C6  UNK     1      17.993   2.738  32.223  1.00  0.00     0.260 C 
ENDROOT
BRANCH   8   9
HETATM    9  C7  UNK     1      18.183   1.697  33.254  1.00  0.00     0.108 A 
HETATM   10  C10 UNK     1      17.656   1.953  34.458  1.00  0.00     0.037 A 
HETATM   11  C11 UNK     1      17.791   0.989  35.538  1.00  0.00     0.002 A 
HETATM   12  C15 UNK     1      18.475  -0.198  35.299  1.00  0.00     0.123 A 
HETATM   13  C17 UNK     1      17.256   1.214  36.809  1.00  0.00     0.014 A 
HETATM   14  O2  UNK     1      19.028  -0.462  34.030  1.00  0.00    -0.271 OA
HETATM   15  C18 UNK     1      18.640  -1.163  36.290  1.00  0.00     0.102 A 
HETATM   16  C12 UNK     1      18.915   0.441  32.977  1.00  0.00     0.304 A 
HETATM   17  O3  UNK     1      19.399   0.202  31.877  1.00  0.00    -0.259 OA
HETATM   18  C20 UNK     1      18.103  -0.930  37.555  1.00  0.00     0.040 A 
HETATM   19  C19 UNK     1      17.412   0.256  37.814  1.00  0.00     0.004 A 
BRANCH  15  20
HETATM   20  O4  UNK     1      19.311  -2.319  36.043  1.00  0.00    -0.353 OA
HETATM   21  C21 UNK     1      19.978  -2.932  37.147  1.00  0.00     0.210 C 
ENDBRANCH  15  20
ENDBRANCH   8   9
BRANCH   2  22
HETATM   22  C5  UNK     1      18.662   8.182  33.656  1.00  0.00     0.030 A 
HETATM   23  C8  UNK     1      17.542   9.041  33.551  1.00  0.00     0.032 A 
HETATM   24  C13 UNK     1      17.619  10.384  33.922  1.00  0.00     0.044 A 
HETATM   25  C16 UNK     1      18.818  10.905  34.410  1.00  0.00     0.116 A 
HETATM   26  C14 UNK     1      19.939  10.084  34.526  1.00  0.00     0.044 A 
HETATM   27  F1  UNK     1      18.892  12.194  34.767  1.00  0.00    -0.206 F 
HETATM   28  C9  UNK     1      19.862   8.741  34.155  1.00  0.00     0.032 A 
ENDBRANCH   2  22
TORSDOF 3
ENDMDL
MODEL 3
REMARK VINA RESULT:      -9.8     26.712     28.484
REMARK  3 active torsions:
REMARK  status: ('A' for Active; 'I' for Inactive)
REMARK    1  A    between atoms: C18_25  and  O4_5 
REMARK    2  A    between atoms: C5_12  and  N1_6 
REMARK       I    between atoms: C6_13  and  N2_7 
REMARK    3  A    between atoms: C6_13  and  C7_14 
ROOT
HETATM    1  O1  UNK     1       7.798   6.868   7.224  1.00  0.00    -0.267 OA
HETATM    2  N1  UNK     1      12.530   6.482   8.955  1.00  0.00    -0.378 N 
HETATM    3  N2  UNK     1       9.685   6.289   8.457  1.00  0.00    -0.345 N 
HETATM    4  C1  UNK     1      11.769   5.336   9.458  1.00  0.00     0.143 C 
HETATM    5  C2  UNK     1      11.840   7.444   8.092  1.00  0.00     0.143 C 
HETATM    6  C3  UNK     1      10.298   5.702   9.654  1.00  0.00     0.146 C 
HETATM    7  C4  UNK     1      10.608   6.809   7.451  1.00  0.00     0.146 C 
HETATM    8  C6  UNK     1       8.314   6.376   8.229  1.00  0.00     0.260 C 
ENDROOT
BRANCH   8   9
HETATM    9  C7  UNK     1       7.419   5.847   9.279  1.00  0.00     0.108 A 
HETATM   10  C10 UNK     1       7.097   6.693  10.265  1.00  0.00     0.037 A 
HETATM   11  C11 UNK     1       6.222   6.264  11.344  1.00  0.00     0.002 A 
HETATM   12  C15 UNK     1       5.729   4.963  11.334  1.00  0.00     0.123 A 
HETATM   13  C17 UNK     1       5.860   7.114  12.392  1.00  0.00     0.014 A 
HETATM   14  O2  UNK     1       6.072   4.076  10.294  1.00  0.00    -0.271 OA
HETATM   15  C18 UNK     1       4.888   4.490  12.338  1.00  0.00     0.102 A 
HETATM   16  C12 UNK     1       6.906   4.459   9.247  1.00  0.00     0.304 A 
HETATM   17  O3  UNK     1       7.197   3.680   8.346  1.00  0.00    -0.259 OA
HETATM   18  C20 UNK     1       4.531   5.344  13.379  1.00  0.00     0.040 A 
HETATM   19  C19 UNK     1       5.016   6.653  13.407  1.00  0.00     0.004 A 
BRANCH  15  20
HETATM   20  O4  UNK     1       4.413   3.216  12.316  1.00  0.00    -0.353 OA
HETATM   21  C21 UNK     1       4.859   2.337  13.349  1.00  0.00     0.210 C 
ENDBRANCH  15  20
ENDBRANCH   8   9
BRANCH   2  22
HETATM   22  C5  UNK     1      13.887   6.628   9.235  1.00  0.00     0.030 A 
HETATM   23  C8  UNK     1      14.465   7.903   9.441  1.00  0.00     0.032 A 
HETATM   24  C13 UNK     1      15.824   8.048   9.719  1.00  0.00     0.044 A 
HETATM   25  C16 UNK     1      16.644   6.922   9.799  1.00  0.00     0.116 A 
HETATM   26  C14 UNK     1      16.104   5.651   9.602  1.00  0.00     0.044 A 
HETATM   27  F1  UNK     1      17.948   7.061  10.067  1.00  0.00    -0.206 F 
HETATM   28  C9  UNK     1      14.745   5.506   9.324  1.00  0.00     0.032 A 
ENDBRANCH   2  22
TORSDOF 3
ENDMDL
MODEL 4
REMARK VINA RESULT:      -9.8      8.573     12.129
REMARK  3 active torsions:
REMARK  status: ('A' for Active; 'I' for Inactive)
REMARK    1  A    between atoms: C18_25  and  O4_5 
REMARK    2  A    between atoms: C5_12  and  N1_6 
REMARK       I    between atoms: C6_13  and  N2_7 
REMARK    3  A    between atoms: C6_13  and  C7_14 
ROOT
HETATM    1  O1  UNK     1      27.793 -10.027  39.333  1.00  0.00    -0.267 OA
HETATM    2  N1  UNK     1      30.464  -6.464  36.945  1.00  0.00    -0.378 N 
HETATM    3  N2  UNK     1      28.421  -8.130  38.140  1.00  0.00    -0.345 N 
HETATM    4  C1  UNK     1      29.155  -5.900  37.280  1.00  0.00     0.143 C 
HETATM    5  C2  UNK     1      30.747  -7.843  37.352  1.00  0.00     0.143 C 
HETATM    6  C3  UNK     1      28.079  -6.987  37.287  1.00  0.00     0.146 C 
HETATM    7  C4  UNK     1      29.831  -8.267  38.498  1.00  0.00     0.146 C 
HETATM    8  C6  UNK     1      27.507  -9.067  38.616  1.00  0.00     0.260 C 
ENDROOT
BRANCH   8   9
HETATM    9  C7  UNK     1      26.094  -8.894  38.220  1.00  0.00     0.108 A 
HETATM   10  C10 UNK     1      25.359  -8.080  38.987  1.00  0.00     0.037 A 
HETATM   11  C11 UNK     1      23.958  -7.846  38.676  1.00  0.00     0.002 A 
HETATM   12  C15 UNK     1      23.398  -8.482  37.573  1.00  0.00     0.123 A 
HETATM   13  C17 UNK     1      23.154  -7.004  39.449  1.00  0.00     0.014 A 
HETATM   14  O2  UNK     1      24.176  -9.338  36.769  1.00  0.00    -0.271 OA
HETATM   15  C18 UNK     1      22.062  -8.301  37.221  1.00  0.00     0.102 A 
HETATM   16  C12 UNK     1      25.520  -9.580  37.040  1.00  0.00     0.304 A 
HETATM   17  O3  UNK     1      26.189 -10.326  36.335  1.00  0.00    -0.259 OA
HETATM   18  C20 UNK     1      21.268  -7.460  37.997  1.00  0.00     0.040 A 
HETATM   19  C19 UNK     1      21.812  -6.813  39.109  1.00  0.00     0.004 A 
BRANCH  15  20
HETATM   20  O4  UNK     1      21.527  -8.929  36.140  1.00  0.00    -0.353 OA
HETATM   21  C21 UNK     1      20.904  -8.107  35.154  1.00  0.00     0.210 C 
ENDBRANCH  15  20
ENDBRANCH   8   9
BRANCH   2  22
HETATM   22  C5  UNK     1      31.442  -5.698  36.314  1.00  0.00     0.030 A 
HETATM   23  C8  UNK     1      32.222  -6.223  35.257  1.00  0.00     0.032 A 
HETATM   24  C13 UNK     1      33.202  -5.455  34.626  1.00  0.00     0.044 A 
HETATM   25  C16 UNK     1      33.428  -4.141  35.035  1.00  0.00     0.116 A 
HETATM   26  C14 UNK     1      32.675  -3.594  36.073  1.00  0.00     0.044 A 
HETATM   27  F1  UNK     1      34.368  -3.404  34.429  1.00  0.00    -0.206 F 
HETATM   28  C9  UNK     1      31.695  -4.361  36.704  1.00  0.00     0.032 A 
ENDBRANCH   2  22
TORSDOF 3
ENDMDL
MODEL 5
REMARK VINA RESULT:      -9.7     27.701     30.065
REMARK  3 active torsions:
REMARK  status: ('A' for Active; 'I' for Inactive)
REMARK    1  A    between atoms: C18_25  and  O4_5 
REMARK    2  A    between atoms: C5_12  and  N1_6 
REMARK       I    between atoms: C6_13  and  N2_7 
REMARK    3  A    between atoms: C6_13  and  C7_14 
ROOT
HETATM    1  O1  UNK     1      15.714   7.172  10.496  1.00  0.00    -0.267 OA
HETATM    2  N1  UNK     1      17.072  11.532   8.332  1.00  0.00    -0.378 N 
HETATM    3  N2  UNK     1      15.687   9.227   9.403  1.00  0.00    -0.345 N 
HETATM    4  C1  UNK     1      15.647  11.614   8.661  1.00  0.00     0.143 C 
HETATM    5  C2  UNK     1      17.792  10.305   8.683  1.00  0.00     0.143 C 
HETATM    6  C3  UNK     1      14.992  10.234   8.595  1.00  0.00     0.146 C 
HETATM    7  C4  UNK     1      17.060   9.546   9.788  1.00  0.00     0.146 C 
HETATM    8  C6  UNK     1      15.132   8.018   9.817  1.00  0.00     0.260 C 
ENDROOT
BRANCH   8   9
HETATM    9  C7  UNK     1      13.744   7.734   9.395  1.00  0.00     0.108 A 
HETATM   10  C10 UNK     1      13.592   7.216   8.170  1.00  0.00     0.037 A 
HETATM   11  C11 UNK     1      12.264   6.903   7.666  1.00  0.00     0.002 A 
HETATM   12  C15 UNK     1      11.161   7.151   8.475  1.00  0.00     0.123 A 
HETATM   13  C17 UNK     1      12.059   6.362   6.394  1.00  0.00     0.014 A 
HETATM   14  O2  UNK     1      11.327   7.697   9.764  1.00  0.00    -0.271 OA
HETATM   15  C18 UNK     1       9.863   6.874   8.052  1.00  0.00     0.102 A 
HETATM   16  C12 UNK     1      12.585   8.005  10.274  1.00  0.00     0.304 A 
HETATM   17  O3  UNK     1      12.719   8.479  11.397  1.00  0.00    -0.259 OA
HETATM   18  C20 UNK     1       9.667   6.334   6.783  1.00  0.00     0.040 A 
HETATM   19  C19 UNK     1      10.763   6.078   5.955  1.00  0.00     0.004 A 
BRANCH  15  20
HETATM   20  O4  UNK     1       8.793   7.122   8.854  1.00  0.00    -0.353 OA
HETATM   21  C21 UNK     1       7.919   6.027   9.128  1.00  0.00     0.210 C 
ENDBRANCH  15  20
ENDBRANCH   8   9
BRANCH   2  22
HETATM   22  C5  UNK     1      17.745  12.608   7.759  1.00  0.00     0.030 A 
HETATM   23  C8  UNK     1      18.265  12.538   6.445  1.00  0.00     0.032 A 
HETATM   24  C13 UNK     1      18.940  13.616   5.871  1.00  0.00     0.044 A 
HETATM   25  C16 UNK     1      19.114  14.795   6.596  1.00  0.00     0.116 A 
HETATM   26  C14 UNK     1      18.612  14.896   7.893  1.00  0.00     0.044 A 
HETATM   27  F1  UNK     1      19.761  15.830   6.046  1.00  0.00    -0.206 F 
HETATM   28  C9  UNK     1      17.937  13.818   8.467  1.00  0.00     0.032 A 
ENDBRANCH   2  22
TORSDOF 3
ENDMDL
MODEL 6
REMARK VINA RESULT:      -9.7      7.503     10.279
REMARK  3 active torsions:
REMARK  status: ('A' for Active; 'I' for Inactive)
REMARK    1  A    between atoms: C18_25  and  O4_5 
REMARK    2  A    between atoms: C5_12  and  N1_6 
REMARK       I    between atoms: C6_13  and  N2_7 
REMARK    3  A    between atoms: C6_13  and  C7_14 
ROOT
HETATM    1  O1  UNK     1      23.476 -11.828  35.483  1.00  0.00    -0.267 OA
HETATM    2  N1  UNK     1      27.241  -9.043  37.380  1.00  0.00    -0.378 N 
HETATM    3  N2  UNK     1      24.704 -10.180  36.574  1.00  0.00    -0.345 N 
HETATM    4  C1  UNK     1      26.016  -8.703  38.108  1.00  0.00     0.143 C 
HETATM    5  C2  UNK     1      27.162 -10.064  36.332  1.00  0.00     0.143 C 
HETATM    6  C3  UNK     1      24.788  -8.861  37.210  1.00  0.00     0.146 C 
HETATM    7  C4  UNK     1      25.941 -10.957  36.540  1.00  0.00     0.146 C 
HETATM    8  C6  UNK     1      23.548 -10.721  36.017  1.00  0.00     0.260 C 
ENDROOT
BRANCH   8   9
HETATM    9  C7  UNK     1      22.325  -9.893  36.066  1.00  0.00     0.108 A 
HETATM   10  C10 UNK     1      21.938  -9.478  37.278  1.00  0.00     0.037 A 
HETATM   11  C11 UNK     1      20.746  -8.659  37.427  1.00  0.00     0.002 A 
HETATM   12  C15 UNK     1      20.017  -8.317  36.293  1.00  0.00     0.123 A 
HETATM   13  C17 UNK     1      20.307  -8.203  38.673  1.00  0.00     0.014 A 
HETATM   14  O2  UNK     1      20.428  -8.757  35.020  1.00  0.00    -0.271 OA
HETATM   15  C18 UNK     1      18.867  -7.536  36.368  1.00  0.00     0.102 A 
HETATM   16  C12 UNK     1      21.565  -9.541  34.844  1.00  0.00     0.304 A 
HETATM   17  O3  UNK     1      21.915  -9.918  33.732  1.00  0.00    -0.259 OA
HETATM   18  C20 UNK     1      18.436  -7.085  37.614  1.00  0.00     0.040 A 
HETATM   19  C19 UNK     1      19.154  -7.419  38.765  1.00  0.00     0.004 A 
BRANCH  15  20
HETATM   20  O4  UNK     1      18.164  -7.209  35.251  1.00  0.00    -0.353 OA
HETATM   21  C21 UNK     1      16.746  -7.367  35.305  1.00  0.00     0.210 C 
ENDBRANCH  15  20
ENDBRANCH   8   9
BRANCH   2  22
HETATM   22  C5  UNK     1      28.463  -8.461  37.711  1.00  0.00     0.030 A 
HETATM   23  C8  UNK     1      28.543  -7.129  38.182  1.00  0.00     0.032 A 
HETATM   24  C13 UNK     1      29.767  -6.547  38.512  1.00  0.00     0.044 A 
HETATM   25  C16 UNK     1      30.946  -7.282  38.381  1.00  0.00     0.116 A 
HETATM   26  C14 UNK     1      30.901  -8.597  37.921  1.00  0.00     0.044 A 
HETATM   27  F1  UNK     1      32.121  -6.723  38.699  1.00  0.00    -0.206 F 
HETATM   28  C9  UNK     1      29.677  -9.179  37.591  1.00  0.00     0.032 A 
ENDBRANCH   2  22
TORSDOF 3
ENDMDL
MODEL 7
REMARK VINA RESULT:      -9.6     26.238     28.347
REMARK  3 active torsions:
REMARK  status: ('A' for Active; 'I' for Inactive)
REMARK    1  A    between atoms: C18_25  and  O4_5 
REMARK    2  A    between atoms: C5_12  and  N1_6 
REMARK       I    between atoms: C6_13  and  N2_7 
REMARK    3  A    between atoms: C6_13  and  C7_14 
ROOT
HETATM    1  O1  UNK     1       8.210   6.766   7.144  1.00  0.00    -0.267 OA
HETATM    2  N1  UNK     1      12.906   6.557   8.998  1.00  0.00    -0.378 N 
HETATM    3  N2  UNK     1      10.084   6.256   8.425  1.00  0.00    -0.345 N 
HETATM    4  C1  UNK     1      12.177   5.381   9.478  1.00  0.00     0.143 C 
HETATM    5  C2  UNK     1      12.202   7.494   8.118  1.00  0.00     0.143 C 
HETATM    6  C3  UNK     1      10.688   5.690   9.637  1.00  0.00     0.146 C 
HETATM    7  C4  UNK     1      11.013   6.814   7.444  1.00  0.00     0.146 C 
HETATM    8  C6  UNK     1       8.717   6.292   8.161  1.00  0.00     0.260 C 
ENDROOT
BRANCH   8   9
HETATM    9  C7  UNK     1       7.817   5.726   9.187  1.00  0.00     0.108 A 
HETATM   10  C10 UNK     1       7.406   4.468   8.985  1.00  0.00     0.037 A 
HETATM   11  C11 UNK     1       6.518   3.824   9.940  1.00  0.00     0.002 A 
HETATM   12  C15 UNK     1       6.104   4.536  11.061  1.00  0.00     0.123 A 
HETATM   13  C17 UNK     1       6.065   2.513   9.770  1.00  0.00     0.014 A 
HETATM   14  O2  UNK     1       6.539   5.861  11.267  1.00  0.00    -0.271 OA
HETATM   15  C18 UNK     1       5.254   3.978  12.012  1.00  0.00     0.102 A 
HETATM   16  C12 UNK     1       7.390   6.503  10.372  1.00  0.00     0.304 A 
HETATM   17  O3  UNK     1       7.764   7.655  10.561  1.00  0.00    -0.259 OA
HETATM   18  C20 UNK     1       4.807   2.671  11.835  1.00  0.00     0.040 A 
HETATM   19  C19 UNK     1       5.212   1.939  10.716  1.00  0.00     0.004 A 
BRANCH  15  20
HETATM   20  O4  UNK     1       4.857   4.686  13.103  1.00  0.00    -0.353 OA
HETATM   21  C21 UNK     1       5.455   4.343  14.354  1.00  0.00     0.210 C 
ENDBRANCH  15  20
ENDBRANCH   8   9
BRANCH   2  22
HETATM   22  C5  UNK     1      14.249   6.753   9.312  1.00  0.00     0.030 A 
HETATM   23  C8  UNK     1      14.746   8.033   9.655  1.00  0.00     0.032 A 
HETATM   24  C13 UNK     1      16.091   8.229   9.969  1.00  0.00     0.044 A 
HETATM   25  C16 UNK     1      16.977   7.151   9.949  1.00  0.00     0.116 A 
HETATM   26  C14 UNK     1      16.517   5.878   9.616  1.00  0.00     0.044 A 
HETATM   27  F1  UNK     1      18.268   7.340  10.251  1.00  0.00    -0.206 F 
HETATM   28  C9  UNK     1      15.172   5.681   9.302  1.00  0.00     0.032 A 
ENDBRANCH   2  22
TORSDOF 3
ENDMDL
MODEL 8
REMARK VINA RESULT:      -9.6      9.945     12.482
REMARK  3 active torsions:
REMARK  status: ('A' for Active; 'I' for Inactive)
REMARK    1  A    between atoms: C18_25  and  O4_5 
REMARK    2  A    between atoms: C5_12  and  N1_6 
REMARK       I    between atoms: C6_13  and  N2_7 
REMARK    3  A    between atoms: C6_13  and  C7_14 
ROOT
HETATM    1  O1  UNK     1      27.666  -8.478  40.172  1.00  0.00    -0.267 OA
HETATM    2  N1  UNK     1      30.695  -6.240  36.804  1.00  0.00    -0.378 N 
HETATM    3  N2  UNK     1      28.513  -7.472  38.252  1.00  0.00    -0.345 N 
HETATM    4  C1  UNK     1      29.309  -5.991  36.401  1.00  0.00     0.143 C 
HETATM    5  C2  UNK     1      30.932  -7.013  38.026  1.00  0.00     0.143 C 
HETATM    6  C3  UNK     1      28.403  -7.147  36.826  1.00  0.00     0.146 C 
HETATM    7  C4  UNK     1      29.705  -6.974  38.935  1.00  0.00     0.146 C 
HETATM    8  C6  UNK     1      27.575  -8.205  38.975  1.00  0.00     0.260 C 
ENDROOT
BRANCH   8   9
HETATM    9  C7  UNK     1      26.391  -8.697  38.239  1.00  0.00     0.108 A 
HETATM   10  C10 UNK     1      26.503  -9.906  37.676  1.00  0.00     0.037 A 
HETATM   11  C11 UNK     1      25.391 -10.474  36.932  1.00  0.00     0.002 A 
HETATM   12  C15 UNK     1      24.214  -9.742  36.814  1.00  0.00     0.123 A 
HETATM   13  C17 UNK     1      25.464 -11.732  36.328  1.00  0.00     0.014 A 
HETATM   14  O2  UNK     1      24.102  -8.469  37.409  1.00  0.00    -0.271 OA
HETATM   15  C18 UNK     1      23.113 -10.229  36.114  1.00  0.00     0.102 A 
HETATM   16  C12 UNK     1      25.148  -7.899  38.128  1.00  0.00     0.304 A 
HETATM   17  O3  UNK     1      25.041  -6.792  38.643  1.00  0.00    -0.259 OA
HETATM   18  C20 UNK     1      23.194 -11.484  35.516  1.00  0.00     0.040 A 
HETATM   19  C19 UNK     1      24.367 -12.235  35.623  1.00  0.00     0.004 A 
BRANCH  15  20
HETATM   20  O4  UNK     1      21.969  -9.502  36.008  1.00  0.00    -0.353 OA
HETATM   21  C21 UNK     1      20.794 -10.046  36.610  1.00  0.00     0.210 C 
ENDBRANCH  15  20
ENDBRANCH   8   9
BRANCH   2  22
HETATM   22  C5  UNK     1      31.764  -5.707  36.085  1.00  0.00     0.030 A 
HETATM   23  C8  UNK     1      32.228  -4.392  36.321  1.00  0.00     0.032 A 
HETATM   24  C13 UNK     1      33.297  -3.858  35.600  1.00  0.00     0.044 A 
HETATM   25  C16 UNK     1      33.932  -4.627  34.624  1.00  0.00     0.116 A 
HETATM   26  C14 UNK     1      33.499  -5.927  34.369  1.00  0.00     0.044 A 
HETATM   27  F1  UNK     1      34.959  -4.115  33.933  1.00  0.00    -0.206 F 
HETATM   28  C9  UNK     1      32.430  -6.460  35.090  1.00  0.00     0.032 A 
ENDBRANCH   2  22
TORSDOF 3
ENDMDL
MODEL 9
REMARK VINA RESULT:      -9.5     26.517     28.810
REMARK  3 active torsions:
REMARK  status: ('A' for Active; 'I' for Inactive)
REMARK    1  A    between atoms: C18_25  and  O4_5 
REMARK    2  A    between atoms: C5_12  and  N1_6 
REMARK       I    between atoms: C6_13  and  N2_7 
REMARK    3  A    between atoms: C6_13  and  C7_14 
ROOT
HETATM    1  O1  UNK     1       9.703   5.781   6.773  1.00  0.00    -0.267 OA
HETATM    2  N1  UNK     1      13.787   7.977   8.779  1.00  0.00    -0.378 N 
HETATM    3  N2  UNK     1      11.280   6.627   8.260  1.00  0.00    -0.345 N 
HETATM    4  C1  UNK     1      13.184   7.122   9.804  1.00  0.00     0.143 C 
HETATM    5  C2  UNK     1      13.158   8.019   7.456  1.00  0.00     0.143 C 
HETATM    6  C3  UNK     1      11.669   7.032   9.615  1.00  0.00     0.146 C 
HETATM    7  C4  UNK     1      12.302   6.776   7.226  1.00  0.00     0.146 C 
HETATM    8  C6  UNK     1      10.030   6.122   7.910  1.00  0.00     0.260 C 
ENDROOT
BRANCH   8   9
HETATM    9  C7  UNK     1       9.026   5.999   8.988  1.00  0.00     0.108 A 
HETATM   10  C10 UNK     1       8.129   6.988   9.077  1.00  0.00     0.037 A 
HETATM   11  C11 UNK     1       7.101   6.955  10.106  1.00  0.00     0.002 A 
HETATM   12  C15 UNK     1       7.069   5.884  10.992  1.00  0.00     0.123 A 
HETATM   13  C17 UNK     1       6.145   7.966  10.235  1.00  0.00     0.014 A 
HETATM   14  O2  UNK     1       8.016   4.846  10.893  1.00  0.00    -0.271 OA
HETATM   15  C18 UNK     1       6.111   5.793  11.999  1.00  0.00     0.102 A 
HETATM   16  C12 UNK     1       9.010   4.848   9.919  1.00  0.00     0.304 A 
HETATM   17  O3  UNK     1       9.829   3.939   9.841  1.00  0.00    -0.259 OA
HETATM   18  C20 UNK     1       5.161   6.805  12.121  1.00  0.00     0.040 A 
HETATM   19  C19 UNK     1       5.178   7.889  11.240  1.00  0.00     0.004 A 
BRANCH  15  20
HETATM   20  O4  UNK     1       6.091   4.740  12.858  1.00  0.00    -0.353 OA
HETATM   21  C21 UNK     1       5.619   4.989  14.182  1.00  0.00     0.210 C 
ENDBRANCH  15  20
ENDBRANCH   8   9
BRANCH   2  22
HETATM   22  C5  UNK     1      14.962   8.684   9.027  1.00  0.00     0.030 A 
HETATM   23  C8  UNK     1      15.175   9.973   8.484  1.00  0.00     0.032 A 
HETATM   24  C13 UNK     1      16.351  10.681   8.732  1.00  0.00     0.044 A 
HETATM   25  C16 UNK     1      17.347  10.120   9.531  1.00  0.00     0.116 A 
HETATM   26  C14 UNK     1      17.167   8.852  10.083  1.00  0.00     0.044 A 
HETATM   27  F1  UNK     1      18.476  10.799   9.770  1.00  0.00    -0.206 F 
HETATM   28  C9  UNK     1      15.990   8.144   9.835  1.00  0.00     0.032 A 
ENDBRANCH   2  22
TORSDOF 3
ENDMDL
MODEL 10
REMARK VINA RESULT:      -9.4      2.242      3.375
REMARK  3 active torsions:
REMARK  status: ('A' for Active; 'I' for Inactive)
REMARK    1  A    between atoms: C18_25  and  O4_5 
REMARK    2  A    between atoms: C5_12  and  N1_6 
REMARK       I    between atoms: C6_13  and  N2_7 
REMARK    3  A    between atoms: C6_13  and  C7_14 
ROOT
HETATM    1  O1  UNK     1      17.268   0.936  37.643  1.00  0.00    -0.267 OA
HETATM    2  N1  UNK     1      19.767  -3.374  36.801  1.00  0.00    -0.378 N 
HETATM    3  N2  UNK     1      18.613  -0.721  36.716  1.00  0.00    -0.345 N 
HETATM    4  C1  UNK     1      20.393  -2.324  35.996  1.00  0.00     0.143 C 
HETATM    5  C2  UNK     1      18.632  -3.008  37.654  1.00  0.00     0.143 C 
HETATM    6  C3  UNK     1      19.366  -1.269  35.582  1.00  0.00     0.146 C 
HETATM    7  C4  UNK     1      18.638  -1.509  37.946  1.00  0.00     0.146 C 
HETATM    8  C6  UNK     1      17.899   0.475  36.692  1.00  0.00     0.260 C 
ENDROOT
BRANCH   8   9
HETATM    9  C7  UNK     1      17.894   1.232  35.423  1.00  0.00     0.108 A 
HETATM   10  C10 UNK     1      18.463   2.444  35.454  1.00  0.00     0.037 A 
HETATM   11  C11 UNK     1      18.507   3.265  34.255  1.00  0.00     0.002 A 
HETATM   12  C15 UNK     1      17.949   2.772  33.080  1.00  0.00     0.123 A 
HETATM   13  C17 UNK     1      19.092   4.534  34.243  1.00  0.00     0.014 A 
HETATM   14  O2  UNK     1      17.351   1.496  33.053  1.00  0.00    -0.271 OA
HETATM   15  C18 UNK     1      17.958   3.508  31.898  1.00  0.00     0.102 A 
HETATM   16  C12 UNK     1      17.295   0.687  34.184  1.00  0.00     0.304 A 
HETATM   17  O3  UNK     1      16.773  -0.422  34.150  1.00  0.00    -0.259 OA
HETATM   18  C20 UNK     1      18.543   4.772  31.894  1.00  0.00     0.040 A 
HETATM   19  C19 UNK     1      19.109   5.285  33.064  1.00  0.00     0.004 A 
BRANCH  15  20
HETATM   20  O4  UNK     1      17.409   3.013  30.757  1.00  0.00    -0.353 OA
HETATM   21  C21 UNK     1      18.307   2.502  29.772  1.00  0.00     0.210 C 
ENDBRANCH  15  20
ENDBRANCH   8   9
BRANCH   2  22
HETATM   22  C5  UNK     1      20.268  -4.674  36.809  1.00  0.00     0.030 A 
HETATM   23  C8  UNK     1      21.145  -5.120  37.826  1.00  0.00     0.032 A 
HETATM   24  C13 UNK     1      21.647  -6.421  37.833  1.00  0.00     0.044 A 
HETATM   25  C16 UNK     1      21.286  -7.314  36.824  1.00  0.00     0.116 A 
HETATM   26  C14 UNK     1      20.422  -6.906  35.808  1.00  0.00     0.044 A 
HETATM   27  F1  UNK     1      21.767  -8.564  36.831  1.00  0.00    -0.206 F 
HETATM   28  C9  UNK     1      19.919  -5.604  35.801  1.00  0.00     0.032 A 
ENDBRANCH   2  22
TORSDOF 3
ENDMDL
