MODEL 1
REMARK VINA RESULT:      -8.8      0.000      0.000
REMARK  2 active torsions:
REMARK  status: ('A' for Active; 'I' for Inactive)
REMARK    1  A    between atoms: C5_12  and  N1_5 
REMARK    2  A    between atoms: N1_5  and  N2_6 
REMARK       I    between atoms: C12_19  and  N2_6 
REMARK       I    between atoms: C12_19  and  N3_7 
ROOT
HETATM    1  O1  UNK     1      20.296  -2.804  34.824  1.00  0.00    -0.274 OA
HETATM    2  O2  UNK     1      17.772   0.133  33.462  1.00  0.00    -0.286 OA
HETATM    3  O3  UNK     1      21.153  -3.155  32.739  1.00  0.00    -0.259 OA
HETATM    4  C1  UNK     1      19.465  -1.482  32.981  1.00  0.00     0.114 A 
HETATM    5  C2  UNK     1      18.558  -1.133  35.276  1.00  0.00     0.049 A 
HETATM    6  C3  UNK     1      18.528  -0.743  33.860  1.00  0.00     0.203 A 
HETATM    7  C4  UNK     1      19.424  -2.132  35.702  1.00  0.00     0.093 A 
HETATM    8  C5  UNK     1      19.486  -1.172  31.676  1.00  0.00     0.042 C 
HETATM    9  C6  UNK     1      20.377  -2.541  33.462  1.00  0.00     0.304 A 
HETATM   10  C7  UNK     1      17.719  -0.506  36.203  1.00  0.00     0.018 A 
HETATM   11  C8  UNK     1      19.469  -2.520  37.041  1.00  0.00     0.038 A 
HETATM   12  C9  UNK     1      20.415  -1.888  30.735  1.00  0.00     0.071 C 
HETATM   13  C10 UNK     1      17.760  -0.890  37.545  1.00  0.00     0.001 A 
HETATM   14  C11 UNK     1      18.633  -1.894  37.964  1.00  0.00     0.003 A 
ENDROOT
BRANCH   8  15
HETATM   15  N1  UNK     1      18.690  -0.213  31.113  1.00  0.00    -0.300 N 
HETATM   16  H6  UNK     1      17.761  -0.426  30.774  1.00  0.00     0.186 HD
BRANCH  15  17
HETATM   17  N2  UNK     1      19.122   1.076  30.980  1.00  0.00    -0.252 N 
HETATM   18  C12 UNK     1      18.484   1.890  30.060  1.00  0.00     0.332 C 
HETATM   19  O4  UNK     1      17.548   1.550  29.339  1.00  0.00    -0.246 OA
HETATM   20  N3  UNK     1      19.027   3.162  30.033  1.00  0.00    -0.351 N 
HETATM   21  H10 UNK     1      18.667   3.875  29.407  1.00  0.00     0.160 HD
HETATM   22  H11 UNK     1      19.798   3.422  30.637  1.00  0.00     0.160 HD
HETATM   23  H9  UNK     1      19.965   1.333  31.482  1.00  0.00     0.191 HD
ENDBRANCH  15  17
ENDBRANCH   8  15
TORSDOF 2
ENDMDL
MODEL 2
REMARK VINA RESULT:      -8.3      3.045      6.596
REMARK  2 active torsions:
REMARK  status: ('A' for Active; 'I' for Inactive)
REMARK    1  A    between atoms: C5_12  and  N1_5 
REMARK    2  A    between atoms: N1_5  and  N2_6 
REMARK       I    between atoms: C12_19  and  N2_6 
REMARK       I    between atoms: C12_19  and  N3_7 
ROOT
HETATM    1  O1  UNK     1      18.503   0.488  32.655  1.00  0.00    -0.274 OA
HETATM    2  O2  UNK     1      20.403  -3.012  33.649  1.00  0.00    -0.286 OA
HETATM    3  O3  UNK     1      17.673   0.738  34.765  1.00  0.00    -0.259 OA
HETATM    4  C1  UNK     1      19.028  -1.178  34.322  1.00  0.00     0.114 A 
HETATM    5  C2  UNK     1      19.913  -1.411  32.003  1.00  0.00     0.049 A 
HETATM    6  C3  UNK     1      19.834  -1.968  33.360  1.00  0.00     0.203 A 
HETATM    7  C4  UNK     1      19.257  -0.224  31.701  1.00  0.00     0.093 A 
HETATM    8  C5  UNK     1      18.918  -1.634  35.579  1.00  0.00     0.042 C 
HETATM    9  C6  UNK     1      18.340   0.083  33.974  1.00  0.00     0.304 A 
HETATM   10  C7  UNK     1      20.644  -2.067  31.008  1.00  0.00     0.018 A 
HETATM   11  C8  UNK     1      19.316   0.323  30.420  1.00  0.00     0.038 A 
HETATM   12  C9  UNK     1      18.113  -0.877  36.598  1.00  0.00     0.071 C 
HETATM   13  C10 UNK     1      20.709  -1.523  29.723  1.00  0.00     0.001 A 
HETATM   14  C11 UNK     1      20.047  -0.331  29.429  1.00  0.00     0.003 A 
ENDROOT
BRANCH   8  15
HETATM   15  N1  UNK     1      19.506  -2.787  36.020  1.00  0.00    -0.300 N 
HETATM   16  H6  UNK     1      20.509  -2.913  36.001  1.00  0.00     0.186 HD
BRANCH  15  17
HETATM   17  N2  UNK     1      18.757  -3.823  36.503  1.00  0.00    -0.252 N 
HETATM   18  C12 UNK     1      19.348  -5.072  36.593  1.00  0.00     0.332 C 
HETATM   19  O4  UNK     1      20.504  -5.336  36.271  1.00  0.00    -0.246 OA
HETATM   20  N3  UNK     1      18.473  -6.020  37.094  1.00  0.00    -0.351 N 
HETATM   21  H10 UNK     1      18.759  -6.986  37.218  1.00  0.00     0.160 HD
HETATM   22  H11 UNK     1      17.523  -5.780  37.355  1.00  0.00     0.160 HD
HETATM   23  H9  UNK     1      17.772  -3.644  36.660  1.00  0.00     0.191 HD
ENDBRANCH  15  17
ENDBRANCH   8  15
TORSDOF 2
ENDMDL
MODEL 3
REMARK VINA RESULT:      -8.2      2.748      5.041
REMARK  2 active torsions:
REMARK  status: ('A' for Active; 'I' for Inactive)
REMARK    1  A    between atoms: C5_12  and  N1_5 
REMARK    2  A    between atoms: N1_5  and  N2_6 
REMARK       I    between atoms: C12_19  and  N2_6 
REMARK       I    between atoms: C12_19  and  N3_7 
ROOT
HETATM    1  O1  UNK     1      19.534  -1.726  32.929  1.00  0.00    -0.274 OA
HETATM    2  O2  UNK     1      18.543   2.031  31.605  1.00  0.00    -0.286 OA
HETATM    3  O3  UNK     1      18.754  -1.286  35.027  1.00  0.00    -0.259 OA
HETATM    4  C1  UNK     1      18.596   0.450  33.395  1.00  0.00     0.114 A 
HETATM    5  C2  UNK     1      19.461  -0.074  31.117  1.00  0.00     0.049 A 
HETATM    6  C3  UNK     1      18.835   0.913  32.007  1.00  0.00     0.203 A 
HETATM    7  C4  UNK     1      19.784  -1.336  31.599  1.00  0.00     0.093 A 
HETATM    8  C5  UNK     1      18.027   1.305  34.258  1.00  0.00     0.042 C 
HETATM    9  C6  UNK     1      18.950  -0.900  33.881  1.00  0.00     0.304 A 
HETATM   10  C7  UNK     1      19.736   0.247  29.784  1.00  0.00     0.018 A 
HETATM   11  C8  UNK     1      20.379  -2.289  30.773  1.00  0.00     0.038 A 
HETATM   12  C9  UNK     1      17.760   0.893  35.679  1.00  0.00     0.071 C 
HETATM   13  C10 UNK     1      20.332  -0.703  28.951  1.00  0.00     0.001 A 
HETATM   14  C11 UNK     1      20.653  -1.968  29.444  1.00  0.00     0.003 A 
ENDROOT
BRANCH   8  15
HETATM   15  N1  UNK     1      17.656   2.580  33.927  1.00  0.00    -0.300 N 
HETATM   16  H6  UNK     1      16.837   2.766  33.365  1.00  0.00     0.186 HD
BRANCH  15  17
HETATM   17  N2  UNK     1      18.385   3.658  34.343  1.00  0.00    -0.252 N 
HETATM   18  C12 UNK     1      18.225   4.856  33.668  1.00  0.00     0.332 C 
HETATM   19  O4  UNK     1      17.474   5.039  32.713  1.00  0.00    -0.246 OA
HETATM   20  N3  UNK     1      19.026   5.855  34.195  1.00  0.00    -0.351 N 
HETATM   21  H10 UNK     1      19.021   6.792  33.806  1.00  0.00     0.160 HD
HETATM   22  H11 UNK     1      19.637   5.683  34.985  1.00  0.00     0.160 HD
HETATM   23  H9  UNK     1      19.092   3.491  35.050  1.00  0.00     0.191 HD
ENDBRANCH  15  17
ENDBRANCH   8  15
TORSDOF 2
ENDMDL
MODEL 4
REMARK VINA RESULT:      -8.0      1.369      1.489
REMARK  2 active torsions:
REMARK  status: ('A' for Active; 'I' for Inactive)
REMARK    1  A    between atoms: C5_12  and  N1_5 
REMARK    2  A    between atoms: N1_5  and  N2_6 
REMARK       I    between atoms: C12_19  and  N2_6 
REMARK       I    between atoms: C12_19  and  N3_7 
ROOT
HETATM    1  O1  UNK     1      19.706  -1.900  34.339  1.00  0.00    -0.274 OA
HETATM    2  O2  UNK     1      17.565   1.457  33.340  1.00  0.00    -0.286 OA
HETATM    3  O3  UNK     1      20.586  -2.068  32.241  1.00  0.00    -0.259 OA
HETATM    4  C1  UNK     1      19.085  -0.262  32.676  1.00  0.00     0.114 A 
HETATM    5  C2  UNK     1      18.148  -0.118  34.981  1.00  0.00     0.049 A 
HETATM    6  C3  UNK     1      18.207   0.456  33.630  1.00  0.00     0.203 A 
HETATM    7  C4  UNK     1      18.885  -1.256  35.284  1.00  0.00     0.093 A 
HETATM    8  C5  UNK     1      19.183   0.213  31.425  1.00  0.00     0.042 C 
HETATM    9  C6  UNK     1      19.860  -1.471  33.026  1.00  0.00     0.304 A 
HETATM   10  C7  UNK     1      17.353   0.472  35.969  1.00  0.00     0.018 A 
HETATM   11  C8  UNK     1      18.844  -1.819  36.559  1.00  0.00     0.038 A 
HETATM   12  C9  UNK     1      20.058  -0.474  30.413  1.00  0.00     0.071 C 
HETATM   13  C10 UNK     1      17.308  -0.087  37.248  1.00  0.00     0.001 A 
HETATM   14  C11 UNK     1      18.051  -1.230  37.543  1.00  0.00     0.003 A 
ENDROOT
BRANCH   8  15
HETATM   15  N1  UNK     1      18.515   1.321  30.982  1.00  0.00    -0.300 N 
HETATM   16  H6  UNK     1      17.505   1.368  30.982  1.00  0.00     0.186 HD
BRANCH  15  17
HETATM   17  N2  UNK     1      19.191   2.414  30.516  1.00  0.00    -0.252 N 
HETATM   18  C12 UNK     1      18.716   3.670  30.853  1.00  0.00     0.332 C 
HETATM   19  O4  UNK     1      17.725   3.894  31.545  1.00  0.00    -0.246 OA
HETATM   20  N3  UNK     1      19.495   4.677  30.311  1.00  0.00    -0.351 N 
HETATM   21  H10 UNK     1      19.274   5.655  30.467  1.00  0.00     0.160 HD
HETATM   22  H11 UNK     1      20.309   4.471  29.744  1.00  0.00     0.160 HD
HETATM   23  H9  UNK     1      19.937   2.245  29.851  1.00  0.00     0.191 HD
ENDBRANCH  15  17
ENDBRANCH   8  15
TORSDOF 2
ENDMDL
MODEL 5
REMARK VINA RESULT:      -7.9      2.934      6.169
REMARK  2 active torsions:
REMARK  status: ('A' for Active; 'I' for Inactive)
REMARK    1  A    between atoms: C5_12  and  N1_5 
REMARK    2  A    between atoms: N1_5  and  N2_6 
REMARK       I    between atoms: C12_19  and  N2_6 
REMARK       I    between atoms: C12_19  and  N3_7 
ROOT
HETATM    1  O1  UNK     1      18.163   3.636  33.673  1.00  0.00    -0.274 OA
HETATM    2  O2  UNK     1      19.001   1.905  30.046  1.00  0.00    -0.286 OA
HETATM    3  O3  UNK     1      18.023   1.607  34.706  1.00  0.00    -0.259 OA
HETATM    4  C1  UNK     1      18.519   1.633  32.370  1.00  0.00     0.114 A 
HETATM    5  C2  UNK     1      18.662   3.872  31.283  1.00  0.00     0.049 A 
HETATM    6  C3  UNK     1      18.752   2.414  31.131  1.00  0.00     0.203 A 
HETATM    7  C4  UNK     1      18.375   4.424  32.525  1.00  0.00     0.093 A 
HETATM    8  C5  UNK     1      18.588   0.296  32.298  1.00  0.00     0.042 C 
HETATM    9  C6  UNK     1      18.216   2.247  33.680  1.00  0.00     0.304 A 
HETATM   10  C7  UNK     1      18.862   4.714  30.184  1.00  0.00     0.018 A 
HETATM   11  C8  UNK     1      18.284   5.805  32.693  1.00  0.00     0.038 A 
HETATM   12  C9  UNK     1      18.361  -0.548  33.521  1.00  0.00     0.071 C 
HETATM   13  C10 UNK     1      18.772   6.098  30.346  1.00  0.00     0.001 A 
HETATM   14  C11 UNK     1      18.484   6.643  31.597  1.00  0.00     0.003 A 
ENDROOT
BRANCH   8  15
HETATM   15  N1  UNK     1      18.859  -0.387  31.144  1.00  0.00    -0.300 N 
HETATM   16  H6  UNK     1      18.588  -0.028  30.238  1.00  0.00     0.186 HD
BRANCH  15  17
HETATM   17  N2  UNK     1      19.507  -1.589  31.170  1.00  0.00    -0.252 N 
HETATM   18  C12 UNK     1      20.303  -1.928  30.089  1.00  0.00     0.332 C 
HETATM   19  O4  UNK     1      20.481  -1.232  29.092  1.00  0.00    -0.246 OA
HETATM   20  N3  UNK     1      20.892  -3.170  30.251  1.00  0.00    -0.351 N 
HETATM   21  H10 UNK     1      21.504  -3.558  29.542  1.00  0.00     0.160 HD
HETATM   22  H11 UNK     1      20.733  -3.727  31.083  1.00  0.00     0.160 HD
HETATM   23  H9  UNK     1      19.277  -2.221  31.929  1.00  0.00     0.191 HD
ENDBRANCH  15  17
ENDBRANCH   8  15
TORSDOF 2
ENDMDL
MODEL 6
REMARK VINA RESULT:      -7.8      3.818      6.761
REMARK  2 active torsions:
REMARK  status: ('A' for Active; 'I' for Inactive)
REMARK    1  A    between atoms: C5_12  and  N1_5 
REMARK    2  A    between atoms: N1_5  and  N2_6 
REMARK       I    between atoms: C12_19  and  N2_6 
REMARK       I    between atoms: C12_19  and  N3_7 
ROOT
HETATM    1  O1  UNK     1      18.406   5.617  30.308  1.00  0.00    -0.274 OA
HETATM    2  O2  UNK     1      18.147   2.817  33.299  1.00  0.00    -0.286 OA
HETATM    3  O3  UNK     1      18.847   4.023  28.737  1.00  0.00    -0.259 OA
HETATM    4  C1  UNK     1      18.513   3.302  30.989  1.00  0.00     0.114 A 
HETATM    5  C2  UNK     1      18.034   5.077  32.672  1.00  0.00     0.049 A 
HETATM    6  C3  UNK     1      18.225   3.645  32.402  1.00  0.00     0.203 A 
HETATM    7  C4  UNK     1      18.129   5.997  31.636  1.00  0.00     0.093 A 
HETATM    8  C5  UNK     1      18.697   2.011  30.676  1.00  0.00     0.042 C 
HETATM    9  C6  UNK     1      18.609   4.303  29.905  1.00  0.00     0.304 A 
HETATM   10  C7  UNK     1      17.756   5.523  33.968  1.00  0.00     0.018 A 
HETATM   11  C8  UNK     1      17.953   7.361  31.869  1.00  0.00     0.038 A 
HETATM   12  C9  UNK     1      18.994   1.601  29.260  1.00  0.00     0.071 C 
HETATM   13  C10 UNK     1      17.578   6.888  34.208  1.00  0.00     0.001 A 
HETATM   14  C11 UNK     1      17.676   7.804  33.161  1.00  0.00     0.003 A 
ENDROOT
BRANCH   8  15
HETATM   15  N1  UNK     1      18.635   0.994  31.590  1.00  0.00    -0.300 N 
HETATM   16  H6  UNK     1      18.566   1.176  32.583  1.00  0.00     0.186 HD
BRANCH  15  17
HETATM   17  N2  UNK     1      18.669  -0.314  31.197  1.00  0.00    -0.252 N 
HETATM   18  C12 UNK     1      19.896  -0.952  31.149  1.00  0.00     0.332 C 
HETATM   19  O4  UNK     1      20.976  -0.439  31.434  1.00  0.00    -0.246 OA
HETATM   20  N3  UNK     1      19.777  -2.266  30.732  1.00  0.00    -0.351 N 
HETATM   21  H10 UNK     1      20.591  -2.866  30.646  1.00  0.00     0.160 HD
HETATM   22  H11 UNK     1      18.877  -2.671  30.504  1.00  0.00     0.160 HD
HETATM   23  H9  UNK     1      17.804  -0.712  30.847  1.00  0.00     0.191 HD
ENDBRANCH  15  17
ENDBRANCH   8  15
TORSDOF 2
ENDMDL
MODEL 7
REMARK VINA RESULT:      -7.8      2.583      5.469
REMARK  2 active torsions:
REMARK  status: ('A' for Active; 'I' for Inactive)
REMARK    1  A    between atoms: C5_12  and  N1_5 
REMARK    2  A    between atoms: N1_5  and  N2_6 
REMARK       I    between atoms: C12_19  and  N2_6 
REMARK       I    between atoms: C12_19  and  N3_7 
ROOT
HETATM    1  O1  UNK     1      20.532  -2.464  31.995  1.00  0.00    -0.274 OA
HETATM    2  O2  UNK     1      18.384   0.835  33.156  1.00  0.00    -0.286 OA
HETATM    3  O3  UNK     1      20.516  -3.325  34.107  1.00  0.00    -0.259 OA
HETATM    4  C1  UNK     1      19.415  -1.236  33.750  1.00  0.00     0.114 A 
HETATM    5  C2  UNK     1      19.459  -0.332  31.426  1.00  0.00     0.049 A 
HETATM    6  C3  UNK     1      19.023  -0.151  32.818  1.00  0.00     0.203 A 
HETATM    7  C4  UNK     1      20.186  -1.461  31.069  1.00  0.00     0.093 A 
HETATM    8  C5  UNK     1      19.047  -1.130  35.035  1.00  0.00     0.042 C 
HETATM    9  C6  UNK     1      20.189  -2.427  33.341  1.00  0.00     0.304 A 
HETATM   10  C7  UNK     1      19.149   0.625  30.456  1.00  0.00     0.018 A 
HETATM   11  C8  UNK     1      20.611  -1.654  29.755  1.00  0.00     0.038 A 
HETATM   12  C9  UNK     1      19.416  -2.198  36.026  1.00  0.00     0.071 C 
HETATM   13  C10 UNK     1      19.571   0.437  29.137  1.00  0.00     0.001 A 
HETATM   14  C11 UNK     1      20.300  -0.700  28.787  1.00  0.00     0.003 A 
ENDROOT
BRANCH   8  15
HETATM   15  N1  UNK     1      18.331  -0.076  35.533  1.00  0.00    -0.300 N 
HETATM   16  H6  UNK     1      18.780   0.787  35.810  1.00  0.00     0.186 HD
BRANCH  15  17
HETATM   17  N2  UNK     1      16.975  -0.149  35.680  1.00  0.00    -0.252 N 
HETATM   18  C12 UNK     1      16.349   0.805  36.463  1.00  0.00     0.332 C 
HETATM   19  O4  UNK     1      16.913   1.728  37.047  1.00  0.00    -0.246 OA
HETATM   20  N3  UNK     1      14.981   0.605  36.524  1.00  0.00    -0.351 N 
HETATM   21  H10 UNK     1      14.382   1.223  37.061  1.00  0.00     0.160 HD
HETATM   22  H11 UNK     1      14.535  -0.161  36.033  1.00  0.00     0.160 HD
HETATM   23  H9  UNK     1      16.514  -0.969  35.302  1.00  0.00     0.191 HD
ENDBRANCH  15  17
ENDBRANCH   8  15
TORSDOF 2
ENDMDL
MODEL 8
REMARK VINA RESULT:      -7.7      3.109      4.718
REMARK  2 active torsions:
REMARK  status: ('A' for Active; 'I' for Inactive)
REMARK    1  A    between atoms: C5_12  and  N1_5 
REMARK    2  A    between atoms: N1_5  and  N2_6 
REMARK       I    between atoms: C12_19  and  N2_6 
REMARK       I    between atoms: C12_19  and  N3_7 
ROOT
HETATM    1  O1  UNK     1      19.971  -1.362  29.102  1.00  0.00    -0.274 OA
HETATM    2  O2  UNK     1      18.849   0.736  32.446  1.00  0.00    -0.286 OA
HETATM    3  O3  UNK     1      19.076   0.209  27.710  1.00  0.00    -0.259 OA
HETATM    4  C1  UNK     1      18.904   0.579  30.064  1.00  0.00     0.114 A 
HETATM    5  C2  UNK     1      19.895  -1.163  31.546  1.00  0.00     0.049 A 
HETATM    6  C3  UNK     1      19.180   0.117  31.445  1.00  0.00     0.203 A 
HETATM    7  C4  UNK     1      20.259  -1.847  30.392  1.00  0.00     0.093 A 
HETATM    8  C5  UNK     1      18.254   1.742  29.904  1.00  0.00     0.042 C 
HETATM    9  C6  UNK     1      19.303  -0.169  28.854  1.00  0.00     0.304 A 
HETATM   10  C7  UNK     1      20.212  -1.701  32.797  1.00  0.00     0.018 A 
HETATM   11  C8  UNK     1      20.937  -3.063  30.464  1.00  0.00     0.038 A 
HETATM   12  C9  UNK     1      17.945   2.261  28.527  1.00  0.00     0.071 C 
HETATM   13  C10 UNK     1      20.892  -2.919  32.875  1.00  0.00     0.001 A 
HETATM   14  C11 UNK     1      21.253  -3.599  31.711  1.00  0.00     0.003 A 
ENDROOT
BRANCH   8  15
HETATM   15  N1  UNK     1      17.832   2.523  30.945  1.00  0.00    -0.300 N 
HETATM   16  H6  UNK     1      17.132   2.202  31.600  1.00  0.00     0.186 HD
BRANCH  15  17
HETATM   17  N2  UNK     1      18.339   3.776  31.139  1.00  0.00    -0.252 N 
HETATM   18  C12 UNK     1      18.311   4.304  32.419  1.00  0.00     0.332 C 
HETATM   19  O4  UNK     1      17.863   3.735  33.412  1.00  0.00    -0.246 OA
HETATM   20  N3  UNK     1      18.853   5.576  32.464  1.00  0.00    -0.351 N 
HETATM   21  H10 UNK     1      18.903   6.096  33.333  1.00  0.00     0.160 HD
HETATM   22  H11 UNK     1      19.219   6.026  31.633  1.00  0.00     0.160 HD
HETATM   23  H9  UNK     1      18.603   4.300  30.311  1.00  0.00     0.191 HD
ENDBRANCH  15  17
ENDBRANCH   8  15
TORSDOF 2
ENDMDL
MODEL 9
REMARK VINA RESULT:      -7.7      8.359     10.661
REMARK  2 active torsions:
REMARK  status: ('A' for Active; 'I' for Inactive)
REMARK    1  A    between atoms: C5_12  and  N1_5 
REMARK    2  A    between atoms: N1_5  and  N2_6 
REMARK       I    between atoms: C12_19  and  N2_6 
REMARK       I    between atoms: C12_19  and  N3_7 
ROOT
HETATM    1  O1  UNK     1      18.127   7.086  34.136  1.00  0.00    -0.274 OA
HETATM    2  O2  UNK     1      15.985   8.467  30.919  1.00  0.00    -0.286 OA
HETATM    3  O3  UNK     1      16.805   8.217  35.612  1.00  0.00    -0.259 OA
HETATM    4  C1  UNK     1      16.299   8.416  33.286  1.00  0.00     0.114 A 
HETATM    5  C2  UNK     1      17.770   7.163  31.710  1.00  0.00     0.049 A 
HETATM    6  C3  UNK     1      16.618   8.059  31.882  1.00  0.00     0.203 A 
HETATM    7  C4  UNK     1      18.473   6.715  32.822  1.00  0.00     0.093 A 
HETATM    8  C5  UNK     1      15.258   9.231  33.510  1.00  0.00     0.042 C 
HETATM    9  C6  UNK     1      17.065   7.924  34.451  1.00  0.00     0.304 A 
HETATM   10  C7  UNK     1      18.167   6.756  30.433  1.00  0.00     0.018 A 
HETATM   11  C8  UNK     1      19.570   5.866  32.683  1.00  0.00     0.038 A 
HETATM   12  C9  UNK     1      14.887   9.629  34.912  1.00  0.00     0.071 C 
HETATM   13  C10 UNK     1      19.265   5.905  30.287  1.00  0.00     0.001 A 
HETATM   14  C11 UNK     1      19.964   5.460  31.409  1.00  0.00     0.003 A 
ENDROOT
BRANCH   8  15
HETATM   15  N1  UNK     1      14.476   9.751  32.516  1.00  0.00    -0.300 N 
HETATM   16  H6  UNK     1      14.810   9.832  31.565  1.00  0.00     0.186 HD
BRANCH  15  17
HETATM   17  N2  UNK     1      13.207  10.190  32.771  1.00  0.00    -0.252 N 
HETATM   18  C12 UNK     1      12.953  11.548  32.685  1.00  0.00     0.332 C 
HETATM   19  O4  UNK     1      13.782  12.409  32.396  1.00  0.00    -0.246 OA
HETATM   20  N3  UNK     1      11.632  11.844  32.971  1.00  0.00    -0.351 N 
HETATM   21  H10 UNK     1      11.291  12.799  32.951  1.00  0.00     0.160 HD
HETATM   22  H11 UNK     1      10.964  11.118  33.205  1.00  0.00     0.160 HD
HETATM   23  H9  UNK     1      12.546   9.506  33.123  1.00  0.00     0.191 HD
ENDBRANCH  15  17
ENDBRANCH   8  15
TORSDOF 2
ENDMDL
MODEL 10
REMARK VINA RESULT:      -7.6      2.217      3.714
REMARK  2 active torsions:
REMARK  status: ('A' for Active; 'I' for Inactive)
REMARK    1  A    between atoms: C5_12  and  N1_5 
REMARK    2  A    between atoms: N1_5  and  N2_6 
REMARK       I    between atoms: C12_19  and  N2_6 
REMARK       I    between atoms: C12_19  and  N3_7 
ROOT
HETATM    1  O1  UNK     1      18.145   2.788  35.217  1.00  0.00    -0.274 OA
HETATM    2  O2  UNK     1      18.212  -0.631  32.947  1.00  0.00    -0.286 OA
HETATM    3  O3  UNK     1      18.400   4.116  33.379  1.00  0.00    -0.259 OA
HETATM    4  C1  UNK     1      18.318   1.753  33.041  1.00  0.00     0.114 A 
HETATM    5  C2  UNK     1      18.039   0.341  35.077  1.00  0.00     0.049 A 
HETATM    6  C3  UNK     1      18.192   0.392  33.617  1.00  0.00     0.203 A 
HETATM    7  C4  UNK     1      18.022   1.519  35.814  1.00  0.00     0.093 A 
HETATM    8  C5  UNK     1      18.460   1.868  31.713  1.00  0.00     0.042 C 
HETATM    9  C6  UNK     1      18.296   2.990  33.850  1.00  0.00     0.304 A 
HETATM   10  C7  UNK     1      17.911  -0.886  35.734  1.00  0.00     0.018 A 
HETATM   11  C8  UNK     1      17.879   1.494  37.201  1.00  0.00     0.038 A 
HETATM   12  C9  UNK     1      18.594   3.221  31.072  1.00  0.00     0.071 C 
HETATM   13  C10 UNK     1      17.767  -0.917  37.123  1.00  0.00     0.001 A 
HETATM   14  C11 UNK     1      17.750   0.270  37.855  1.00  0.00     0.003 A 
ENDROOT
BRANCH   8  15
HETATM   15  N1  UNK     1      18.497   0.798  30.860  1.00  0.00    -0.300 N 
HETATM   16  H6  UNK     1      17.651   0.379  30.497  1.00  0.00     0.186 HD
BRANCH  15  17
HETATM   17  N2  UNK     1      19.684   0.248  30.467  1.00  0.00    -0.252 N 
HETATM   18  C12 UNK     1      19.880   0.009  29.117  1.00  0.00     0.332 C 
HETATM   19  O4  UNK     1      19.068   0.252  28.227  1.00  0.00    -0.246 OA
HETATM   20  N3  UNK     1      21.120  -0.551  28.868  1.00  0.00    -0.351 N 
HETATM   21  H10 UNK     1      21.412  -0.785  27.925  1.00  0.00     0.160 HD
HETATM   22  H11 UNK     1      21.776  -0.742  29.617  1.00  0.00     0.160 HD
HETATM   23  H9  UNK     1      20.312  -0.064  31.199  1.00  0.00     0.191 HD
ENDBRANCH  15  17
ENDBRANCH   8  15
TORSDOF 2
ENDMDL
