MODEL 1
REMARK VINA RESULT:      -7.4      0.000      0.000
REMARK  5 active torsions:
REMARK  status: ('A' for Active; 'I' for Inactive)
REMARK    1  A    between atoms: C15_20  and  O1_2 
REMARK    2  A    between atoms: C7_12  and  O1_2 
REMARK       I    between atoms: C17_22  and  N1_4 
REMARK    3  A    between atoms: C1_6  and  C3_8 
REMARK    4  A    between atoms: C2_7  and  C4_9 
REMARK    5  A    between atoms: C15_20  and  C17_22 
ROOT
HETATM    1  N2  UNK     1      29.647  -3.347  39.839  1.00  0.00    -0.191 NA
HETATM    2  C3  UNK     1      27.990  -6.306  39.140  1.00  0.00     0.034 C 
HETATM    3  C4  UNK     1      29.158  -5.685  38.839  1.00  0.00     0.055 C 
HETATM    4  C16 UNK     1      29.426  -4.394  39.391  1.00  0.00     0.100 C 
ENDROOT
BRANCH   3   5
HETATM    5  C2  UNK     1      30.178  -6.292  37.961  1.00  0.00    -0.015 A 
HETATM    6  C10 UNK     1      31.033  -7.249  38.479  1.00  0.00     0.014 A 
HETATM    7  C12 UNK     1      31.996  -7.823  37.650  1.00  0.00     0.024 A 
HETATM    8  C14 UNK     1      32.089  -7.432  36.315  1.00  0.00     0.034 A 
HETATM    9  C13 UNK     1      31.219  -6.467  35.809  1.00  0.00     0.024 A 
HETATM   10 Cl1  UNK     1      33.279  -8.140  35.292  1.00  0.00    -0.084 Cl
HETATM   11  C11 UNK     1      30.255  -5.893  36.638  1.00  0.00     0.014 A 
ENDBRANCH   3   5
BRANCH   2  12
HETATM   12  C1  UNK     1      27.539  -7.602  38.657  1.00  0.00    -0.035 A 
HETATM   13  C5  UNK     1      27.512  -8.698  39.518  1.00  0.00     0.014 A 
HETATM   14  C8  UNK     1      27.078  -9.940  39.053  1.00  0.00     0.037 A 
HETATM   15  C7  UNK     1      26.672 -10.085  37.727  1.00  0.00     0.069 A 
HETATM   16  C9  UNK     1      26.698  -8.988  36.865  1.00  0.00     0.037 A 
HETATM   17  C6  UNK     1      27.133  -7.746  37.330  1.00  0.00     0.014 A 
BRANCH  15  18
HETATM   18  O1  UNK     1      26.248 -11.296  37.274  1.00  0.00    -0.342 OA
BRANCH  18  19
HETATM   19  C15 UNK     1      25.365 -11.299  36.154  1.00  0.00     0.278 C 
BRANCH  19  20
HETATM   20  C17 UNK     1      24.814 -12.690  35.947  1.00  0.00     0.239 C 
HETATM   21  O2  UNK     1      24.226 -13.044  34.929  1.00  0.00    -0.271 OA
HETATM   22  N1  UNK     1      25.051 -13.514  37.026  1.00  0.00    -0.368 N 
HETATM   23  H12 UNK     1      24.737 -14.479  37.024  1.00  0.00     0.159 HD
HETATM   24  H13 UNK     1      25.541 -13.195  37.855  1.00  0.00     0.159 HD
ENDBRANCH  19  20
ENDBRANCH  18  19
ENDBRANCH  15  18
ENDBRANCH   2  12
TORSDOF 5
ENDMDL
MODEL 2
REMARK VINA RESULT:      -7.1      5.204      7.594
REMARK  5 active torsions:
REMARK  status: ('A' for Active; 'I' for Inactive)
REMARK    1  A    between atoms: C15_20  and  O1_2 
REMARK    2  A    between atoms: C7_12  and  O1_2 
REMARK       I    between atoms: C17_22  and  N1_4 
REMARK    3  A    between atoms: C1_6  and  C3_8 
REMARK    4  A    between atoms: C2_7  and  C4_9 
REMARK    5  A    between atoms: C15_20  and  C17_22 
ROOT
HETATM    1  N2  UNK     1      29.285  -3.895  39.834  1.00  0.00    -0.191 NA
HETATM    2  C3  UNK     1      32.031  -4.462  37.802  1.00  0.00     0.034 C 
HETATM    3  C4  UNK     1      30.809  -4.996  38.053  1.00  0.00     0.055 C 
HETATM    4  C16 UNK     1      29.969  -4.387  39.036  1.00  0.00     0.100 C 
ENDROOT
BRANCH   3   5
HETATM    5  C2  UNK     1      30.301  -6.186  37.342  1.00  0.00    -0.015 A 
HETATM    6  C10 UNK     1      30.437  -7.432  37.928  1.00  0.00     0.014 A 
HETATM    7  C12 UNK     1      29.958  -8.557  37.256  1.00  0.00     0.024 A 
HETATM    8  C14 UNK     1      29.348  -8.417  36.009  1.00  0.00     0.034 A 
HETATM    9  C13 UNK     1      29.219  -7.153  35.434  1.00  0.00     0.024 A 
HETATM   10 Cl1  UNK     1      28.757  -9.804  35.180  1.00  0.00    -0.084 Cl
HETATM   11  C11 UNK     1      29.698  -6.028  36.106  1.00  0.00     0.014 A 
ENDBRANCH   3   5
BRANCH   2  12
HETATM   12  C1  UNK     1      33.024  -4.955  36.860  1.00  0.00    -0.035 A 
HETATM   13  C5  UNK     1      33.921  -5.950  37.247  1.00  0.00     0.014 A 
HETATM   14  C8  UNK     1      34.872  -6.422  36.343  1.00  0.00     0.037 A 
HETATM   15  C7  UNK     1      34.926  -5.900  35.051  1.00  0.00     0.069 A 
HETATM   16  C9  UNK     1      34.028  -4.904  34.662  1.00  0.00     0.037 A 
HETATM   17  C6  UNK     1      33.078  -4.432  35.568  1.00  0.00     0.014 A 
BRANCH  15  18
HETATM   18  O1  UNK     1      35.854  -6.361  34.168  1.00  0.00    -0.342 OA
BRANCH  18  19
HETATM   19  C15 UNK     1      36.729  -7.390  34.623  1.00  0.00     0.278 C 
BRANCH  19  20
HETATM   20  C17 UNK     1      36.936  -8.402  33.521  1.00  0.00     0.239 C 
HETATM   21  O2  UNK     1      36.786  -8.149  32.329  1.00  0.00    -0.271 OA
HETATM   22  N1  UNK     1      37.314  -9.635  34.005  1.00  0.00    -0.368 N 
HETATM   23  H12 UNK     1      37.488 -10.412  33.376  1.00  0.00     0.159 HD
HETATM   24  H13 UNK     1      37.431  -9.817  34.997  1.00  0.00     0.159 HD
ENDBRANCH  19  20
ENDBRANCH  18  19
ENDBRANCH  15  18
ENDBRANCH   2  12
TORSDOF 5
ENDMDL
MODEL 3
REMARK VINA RESULT:      -6.9      4.333      6.900
REMARK  5 active torsions:
REMARK  status: ('A' for Active; 'I' for Inactive)
REMARK    1  A    between atoms: C15_20  and  O1_2 
REMARK    2  A    between atoms: C7_12  and  O1_2 
REMARK       I    between atoms: C17_22  and  N1_4 
REMARK    3  A    between atoms: C1_6  and  C3_8 
REMARK    4  A    between atoms: C2_7  and  C4_9 
REMARK    5  A    between atoms: C15_20  and  C17_22 
ROOT
HETATM    1  N2  UNK     1      24.924  -8.071  38.889  1.00  0.00    -0.191 NA
HETATM    2  C3  UNK     1      28.176  -6.882  38.961  1.00  0.00     0.034 C 
HETATM    3  C4  UNK     1      27.338  -7.539  38.119  1.00  0.00     0.055 C 
HETATM    4  C16 UNK     1      26.006  -7.832  38.545  1.00  0.00     0.100 C 
ENDROOT
BRANCH   3   5
HETATM    5  C2  UNK     1      27.746  -7.963  36.765  1.00  0.00    -0.015 A 
HETATM    6  C10 UNK     1      27.985  -7.001  35.798  1.00  0.00     0.014 A 
HETATM    7  C12 UNK     1      28.369  -7.401  34.519  1.00  0.00     0.024 A 
HETATM    8  C14 UNK     1      28.511  -8.758  34.225  1.00  0.00     0.034 A 
HETATM    9  C13 UNK     1      28.266  -9.713  35.212  1.00  0.00     0.024 A 
HETATM   10 Cl1  UNK     1      28.984  -9.252  32.647  1.00  0.00    -0.084 Cl
HETATM   11  C11 UNK     1      27.882  -9.313  36.491  1.00  0.00     0.014 A 
ENDBRANCH   3   5
BRANCH   2  12
HETATM   12  C1  UNK     1      29.562  -6.521  38.710  1.00  0.00    -0.035 A 
HETATM   13  C5  UNK     1      29.926  -5.179  38.603  1.00  0.00     0.014 A 
HETATM   14  C8  UNK     1      31.256  -4.834  38.363  1.00  0.00     0.037 A 
HETATM   15  C7  UNK     1      32.222  -5.830  38.230  1.00  0.00     0.069 A 
HETATM   16  C9  UNK     1      31.859  -7.174  38.338  1.00  0.00     0.037 A 
HETATM   17  C6  UNK     1      30.528  -7.519  38.577  1.00  0.00     0.014 A 
BRANCH  15  18
HETATM   18  O1  UNK     1      33.520  -5.494  37.997  1.00  0.00    -0.342 OA
BRANCH  18  19
HETATM   19  C15 UNK     1      34.405  -6.543  37.612  1.00  0.00     0.278 C 
BRANCH  19  20
HETATM   20  C17 UNK     1      35.053  -6.200  36.292  1.00  0.00     0.239 C 
HETATM   21  O2  UNK     1      35.066  -5.068  35.815  1.00  0.00    -0.271 OA
HETATM   22  N1  UNK     1      35.627  -7.297  35.688  1.00  0.00    -0.368 N 
HETATM   23  H12 UNK     1      36.099  -7.213  34.794  1.00  0.00     0.159 HD
HETATM   24  H13 UNK     1      35.601  -8.221  36.105  1.00  0.00     0.159 HD
ENDBRANCH  19  20
ENDBRANCH  18  19
ENDBRANCH  15  18
ENDBRANCH   2  12
TORSDOF 5
ENDMDL
MODEL 4
REMARK VINA RESULT:      -6.9      7.653     10.033
REMARK  5 active torsions:
REMARK  status: ('A' for Active; 'I' for Inactive)
REMARK    1  A    between atoms: C15_20  and  O1_2 
REMARK    2  A    between atoms: C7_12  and  O1_2 
REMARK       I    between atoms: C17_22  and  N1_4 
REMARK    3  A    between atoms: C1_6  and  C3_8 
REMARK    4  A    between atoms: C2_7  and  C4_9 
REMARK    5  A    between atoms: C15_20  and  C17_22 
ROOT
HETATM    1  N2  UNK     1      19.363 -11.756  38.606  1.00  0.00    -0.191 NA
HETATM    2  C3  UNK     1      19.246  -8.637  37.105  1.00  0.00     0.034 C 
HETATM    3  C4  UNK     1      20.127  -9.427  37.770  1.00  0.00     0.055 C 
HETATM    4  C16 UNK     1      19.704 -10.712  38.231  1.00  0.00     0.100 C 
ENDROOT
BRANCH   3   5
HETATM    5  C2  UNK     1      21.520  -9.016  38.034  1.00  0.00    -0.015 A 
HETATM    6  C10 UNK     1      22.486  -9.237  37.068  1.00  0.00     0.014 A 
HETATM    7  C12 UNK     1      23.802  -8.849  37.317  1.00  0.00     0.024 A 
HETATM    8  C14 UNK     1      24.132  -8.243  38.530  1.00  0.00     0.034 A 
HETATM    9  C13 UNK     1      23.145  -8.026  39.492  1.00  0.00     0.024 A 
HETATM   10 Cl1  UNK     1      25.755  -7.764  38.838  1.00  0.00    -0.084 Cl
HETATM   11  C11 UNK     1      21.829  -8.415  39.242  1.00  0.00     0.014 A 
ENDBRANCH   3   5
BRANCH   2  12
HETATM   12  C1  UNK     1      19.489  -7.301  36.585  1.00  0.00    -0.035 A 
HETATM   13  C5  UNK     1      19.882  -7.128  35.258  1.00  0.00     0.014 A 
HETATM   14  C8  UNK     1      20.113  -5.846  34.761  1.00  0.00     0.037 A 
HETATM   15  C7  UNK     1      19.954  -4.736  35.590  1.00  0.00     0.069 A 
HETATM   16  C9  UNK     1      19.561  -4.908  36.918  1.00  0.00     0.037 A 
HETATM   17  C6  UNK     1      19.329  -6.191  37.416  1.00  0.00     0.014 A 
BRANCH  15  18
HETATM   18  O1  UNK     1      20.179  -3.485  35.105  1.00  0.00    -0.342 OA
BRANCH  18  19
HETATM   19  C15 UNK     1      20.214  -2.417  36.050  1.00  0.00     0.278 C 
BRANCH  19  20
HETATM   20  C17 UNK     1      19.204  -1.364  35.661  1.00  0.00     0.239 C 
HETATM   21  O2  UNK     1      19.509  -0.231  35.297  1.00  0.00    -0.271 OA
HETATM   22  N1  UNK     1      17.908  -1.819  35.757  1.00  0.00    -0.368 N 
HETATM   23  H12 UNK     1      17.125  -1.217  35.526  1.00  0.00     0.159 HD
HETATM   24  H13 UNK     1      17.684  -2.762  36.060  1.00  0.00     0.159 HD
ENDBRANCH  19  20
ENDBRANCH  18  19
ENDBRANCH  15  18
ENDBRANCH   2  12
TORSDOF 5
ENDMDL
MODEL 5
REMARK VINA RESULT:      -6.9      7.664      9.981
REMARK  5 active torsions:
REMARK  status: ('A' for Active; 'I' for Inactive)
REMARK    1  A    between atoms: C15_20  and  O1_2 
REMARK    2  A    between atoms: C7_12  and  O1_2 
REMARK       I    between atoms: C17_22  and  N1_4 
REMARK    3  A    between atoms: C1_6  and  C3_8 
REMARK    4  A    between atoms: C2_7  and  C4_9 
REMARK    5  A    between atoms: C15_20  and  C17_22 
ROOT
HETATM    1  N2  UNK     1      19.364 -11.745  38.538  1.00  0.00    -0.191 NA
HETATM    2  C3  UNK     1      19.259  -8.598  37.096  1.00  0.00     0.034 C 
HETATM    3  C4  UNK     1      20.137  -9.404  37.746  1.00  0.00     0.055 C 
HETATM    4  C16 UNK     1      19.709 -10.696  38.182  1.00  0.00     0.100 C 
ENDROOT
BRANCH   3   5
HETATM    5  C2  UNK     1      21.531  -9.003  38.017  1.00  0.00    -0.015 A 
HETATM    6  C10 UNK     1      21.844  -8.424  39.235  1.00  0.00     0.014 A 
HETATM    7  C12 UNK     1      23.161  -8.045  39.491  1.00  0.00     0.024 A 
HETATM    8  C14 UNK     1      24.147  -8.252  38.527  1.00  0.00     0.034 A 
HETATM    9  C13 UNK     1      23.815  -8.838  37.305  1.00  0.00     0.024 A 
HETATM   10 Cl1  UNK     1      25.772  -7.784  38.843  1.00  0.00    -0.084 Cl
HETATM   11  C11 UNK     1      22.497  -9.217  37.049  1.00  0.00     0.014 A 
ENDBRANCH   3   5
BRANCH   2  12
HETATM   12  C1  UNK     1      19.508  -7.253  36.602  1.00  0.00    -0.035 A 
HETATM   13  C5  UNK     1      19.421  -6.163  37.468  1.00  0.00     0.014 A 
HETATM   14  C8  UNK     1      19.661  -4.874  36.993  1.00  0.00     0.037 A 
HETATM   15  C7  UNK     1      19.987  -4.674  35.652  1.00  0.00     0.069 A 
HETATM   16  C9  UNK     1      20.074  -5.763  34.785  1.00  0.00     0.037 A 
HETATM   17  C6  UNK     1      19.834  -7.053  35.260  1.00  0.00     0.014 A 
BRANCH  15  18
HETATM   18  O1  UNK     1      20.222  -3.416  35.189  1.00  0.00    -0.342 OA
BRANCH  18  19
HETATM   19  C15 UNK     1      20.155  -2.351  36.135  1.00  0.00     0.278 C 
BRANCH  19  20
HETATM   20  C17 UNK     1      19.137  -1.332  35.680  1.00  0.00     0.239 C 
HETATM   21  O2  UNK     1      19.432  -0.213  35.272  1.00  0.00    -0.271 OA
HETATM   22  N1  UNK     1      17.846  -1.803  35.774  1.00  0.00    -0.368 N 
HETATM   23  H12 UNK     1      17.059  -1.224  35.501  1.00  0.00     0.159 HD
HETATM   24  H13 UNK     1      17.631  -2.734  36.115  1.00  0.00     0.159 HD
ENDBRANCH  19  20
ENDBRANCH  18  19
ENDBRANCH  15  18
ENDBRANCH   2  12
TORSDOF 5
ENDMDL
MODEL 6
REMARK VINA RESULT:      -6.9     16.552     18.542
REMARK  5 active torsions:
REMARK  status: ('A' for Active; 'I' for Inactive)
REMARK    1  A    between atoms: C15_20  and  O1_2 
REMARK    2  A    between atoms: C7_12  and  O1_2 
REMARK       I    between atoms: C17_22  and  N1_4 
REMARK    3  A    between atoms: C1_6  and  C3_8 
REMARK    4  A    between atoms: C2_7  and  C4_9 
REMARK    5  A    between atoms: C15_20  and  C17_22 
ROOT
HETATM    1  N2  UNK     1      17.921   1.705  27.859  1.00  0.00    -0.191 NA
HETATM    2  C3  UNK     1      18.695   4.352  29.953  1.00  0.00     0.034 C 
HETATM    3  C4  UNK     1      18.447   3.020  30.027  1.00  0.00     0.055 C 
HETATM    4  C16 UNK     1      18.156   2.296  28.829  1.00  0.00     0.100 C 
ENDROOT
BRANCH   3   5
HETATM    5  C2  UNK     1      18.469   2.277  31.302  1.00  0.00    -0.015 A 
HETATM    6  C10 UNK     1      17.991   2.887  32.449  1.00  0.00     0.014 A 
HETATM    7  C12 UNK     1      18.013   2.186  33.654  1.00  0.00     0.024 A 
HETATM    8  C14 UNK     1      18.512   0.884  33.694  1.00  0.00     0.034 A 
HETATM    9  C13 UNK     1      18.990   0.284  32.529  1.00  0.00     0.024 A 
HETATM   10 Cl1  UNK     1      18.540   0.018  35.182  1.00  0.00    -0.084 Cl
HETATM   11  C11 UNK     1      18.968   0.986  31.324  1.00  0.00     0.014 A 
ENDBRANCH   3   5
BRANCH   2  12
HETATM   12  C1  UNK     1      18.985   5.250  31.060  1.00  0.00    -0.035 A 
HETATM   13  C5  UNK     1      17.941   5.851  31.764  1.00  0.00     0.014 A 
HETATM   14  C8  UNK     1      18.220   6.711  32.826  1.00  0.00     0.037 A 
HETATM   15  C7  UNK     1      19.542   6.971  33.184  1.00  0.00     0.069 A 
HETATM   16  C9  UNK     1      20.587   6.370  32.481  1.00  0.00     0.037 A 
HETATM   17  C6  UNK     1      20.308   5.509  31.419  1.00  0.00     0.014 A 
BRANCH  15  18
HETATM   18  O1  UNK     1      19.814   7.810  34.221  1.00  0.00    -0.342 OA
BRANCH  18  19
HETATM   19  C15 UNK     1      18.808   8.756  34.574  1.00  0.00     0.278 C 
BRANCH  19  20
HETATM   20  C17 UNK     1      19.258  10.143  34.182  1.00  0.00     0.239 C 
HETATM   21  O2  UNK     1      18.537  10.955  33.608  1.00  0.00    -0.271 OA
HETATM   22  N1  UNK     1      20.563  10.393  34.543  1.00  0.00    -0.368 N 
HETATM   23  H12 UNK     1      20.999  11.287  34.342  1.00  0.00     0.159 HD
HETATM   24  H13 UNK     1      21.137   9.703  35.017  1.00  0.00     0.159 HD
ENDBRANCH  19  20
ENDBRANCH  18  19
ENDBRANCH  15  18
ENDBRANCH   2  12
TORSDOF 5
ENDMDL
MODEL 7
REMARK VINA RESULT:      -6.9     35.409     36.383
REMARK  5 active torsions:
REMARK  status: ('A' for Active; 'I' for Inactive)
REMARK    1  A    between atoms: C15_20  and  O1_2 
REMARK    2  A    between atoms: C7_12  and  O1_2 
REMARK       I    between atoms: C17_22  and  N1_4 
REMARK    3  A    between atoms: C1_6  and  C3_8 
REMARK    4  A    between atoms: C2_7  and  C4_9 
REMARK    5  A    between atoms: C15_20  and  C17_22 
ROOT
HETATM    1  N2  UNK     1      17.934   7.305  10.561  1.00  0.00    -0.191 NA
HETATM    2  C3  UNK     1      15.034   6.283   8.968  1.00  0.00     0.034 C 
HETATM    3  C4  UNK     1      15.497   7.337   9.688  1.00  0.00     0.055 C 
HETATM    4  C16 UNK     1      16.843   7.317  10.169  1.00  0.00     0.100 C 
ENDROOT
BRANCH   3   5
HETATM    5  C2  UNK     1      14.665   8.517   9.992  1.00  0.00    -0.015 A 
HETATM    6  C10 UNK     1      14.875   9.692   9.292  1.00  0.00     0.014 A 
HETATM    7  C12 UNK     1      14.089  10.808   9.580  1.00  0.00     0.024 A 
HETATM    8  C14 UNK     1      13.103  10.731  10.563  1.00  0.00     0.034 A 
HETATM    9  C13 UNK     1      12.904   9.538  11.258  1.00  0.00     0.024 A 
HETATM   10 Cl1  UNK     1      12.133  12.107  10.918  1.00  0.00    -0.084 Cl
HETATM   11  C11 UNK     1      13.690   8.423  10.970  1.00  0.00     0.014 A 
ENDBRANCH   3   5
BRANCH   2  12
HETATM   12  C1  UNK     1      13.697   6.119   8.420  1.00  0.00    -0.035 A 
HETATM   13  C5  UNK     1      13.361   6.716   7.206  1.00  0.00     0.014 A 
HETATM   14  C8  UNK     1      12.079   6.557   6.680  1.00  0.00     0.037 A 
HETATM   15  C7  UNK     1      11.132   5.800   7.370  1.00  0.00     0.069 A 
HETATM   16  C9  UNK     1      11.467   5.201   8.585  1.00  0.00     0.037 A 
HETATM   17  C6  UNK     1      12.750   5.361   9.110  1.00  0.00     0.014 A 
BRANCH  15  18
HETATM   18  O1  UNK     1       9.881   5.643   6.857  1.00  0.00    -0.342 OA
BRANCH  18  19
HETATM   19  C15 UNK     1       8.857   6.491   7.372  1.00  0.00     0.278 C 
BRANCH  19  20
HETATM   20  C17 UNK     1       7.995   5.713   8.338  1.00  0.00     0.239 C 
HETATM   21  O2  UNK     1       7.503   4.618   8.080  1.00  0.00    -0.271 OA
HETATM   22  N1  UNK     1       7.827   6.369   9.538  1.00  0.00    -0.368 N 
HETATM   23  H12 UNK     1       7.270   5.962  10.282  1.00  0.00     0.159 HD
HETATM   24  H13 UNK     1       8.245   7.275   9.724  1.00  0.00     0.159 HD
ENDBRANCH  19  20
ENDBRANCH  18  19
ENDBRANCH  15  18
ENDBRANCH   2  12
TORSDOF 5
ENDMDL
MODEL 8
REMARK VINA RESULT:      -6.8      4.637      7.088
REMARK  5 active torsions:
REMARK  status: ('A' for Active; 'I' for Inactive)
REMARK    1  A    between atoms: C15_20  and  O1_2 
REMARK    2  A    between atoms: C7_12  and  O1_2 
REMARK       I    between atoms: C17_22  and  N1_4 
REMARK    3  A    between atoms: C1_6  and  C3_8 
REMARK    4  A    between atoms: C2_7  and  C4_9 
REMARK    5  A    between atoms: C15_20  and  C17_22 
ROOT
HETATM    1  N2  UNK     1      26.732  -4.895  38.911  1.00  0.00    -0.191 NA
HETATM    2  C3  UNK     1      30.117  -4.919  38.177  1.00  0.00     0.034 C 
HETATM    3  C4  UNK     1      28.988  -5.598  37.851  1.00  0.00     0.055 C 
HETATM    4  C16 UNK     1      27.744  -5.209  38.437  1.00  0.00     0.100 C 
ENDROOT
BRANCH   3   5
HETATM    5  C2  UNK     1      28.988  -6.730  36.904  1.00  0.00    -0.015 A 
HETATM    6  C10 UNK     1      29.110  -8.020  37.391  1.00  0.00     0.014 A 
HETATM    7  C12 UNK     1      29.111  -9.090  36.495  1.00  0.00     0.024 A 
HETATM    8  C14 UNK     1      28.988  -8.853  35.126  1.00  0.00     0.034 A 
HETATM    9  C13 UNK     1      28.866  -7.546  34.653  1.00  0.00     0.024 A 
HETATM   10 Cl1  UNK     1      28.990 -10.172  34.021  1.00  0.00    -0.084 Cl
HETATM   11  C11 UNK     1      28.865  -6.477  35.548  1.00  0.00     0.014 A 
ENDBRANCH   3   5
BRANCH   2  12
HETATM   12  C1  UNK     1      31.465  -5.184  37.701  1.00  0.00    -0.035 A 
HETATM   13  C5  UNK     1      31.960  -4.505  36.589  1.00  0.00     0.014 A 
HETATM   14  C8  UNK     1      33.254  -4.759  36.135  1.00  0.00     0.037 A 
HETATM   15  C7  UNK     1      34.053  -5.694  36.792  1.00  0.00     0.069 A 
HETATM   16  C9  UNK     1      33.558  -6.375  37.905  1.00  0.00     0.037 A 
HETATM   17  C6  UNK     1      32.264  -6.120  38.359  1.00  0.00     0.014 A 
BRANCH  15  18
HETATM   18  O1  UNK     1      35.316  -5.943  36.349  1.00  0.00    -0.342 OA
BRANCH  18  19
HETATM   19  C15 UNK     1      35.503  -6.043  34.939  1.00  0.00     0.278 C 
BRANCH  19  20
HETATM   20  C17 UNK     1      35.773  -7.481  34.565  1.00  0.00     0.239 C 
HETATM   21  O2  UNK     1      35.000  -8.168  33.904  1.00  0.00    -0.271 OA
HETATM   22  N1  UNK     1      36.983  -7.930  35.047  1.00  0.00    -0.368 N 
HETATM   23  H12 UNK     1      37.295  -8.879  34.871  1.00  0.00     0.159 HD
HETATM   24  H13 UNK     1      37.603  -7.339  35.591  1.00  0.00     0.159 HD
ENDBRANCH  19  20
ENDBRANCH  18  19
ENDBRANCH  15  18
ENDBRANCH   2  12
TORSDOF 5
ENDMDL
MODEL 9
REMARK VINA RESULT:      -6.8      5.350      8.136
REMARK  5 active torsions:
REMARK  status: ('A' for Active; 'I' for Inactive)
REMARK    1  A    between atoms: C15_20  and  O1_2 
REMARK    2  A    between atoms: C7_12  and  O1_2 
REMARK       I    between atoms: C17_22  and  N1_4 
REMARK    3  A    between atoms: C1_6  and  C3_8 
REMARK    4  A    between atoms: C2_7  and  C4_9 
REMARK    5  A    between atoms: C15_20  and  C17_22 
ROOT
HETATM    1  N2  UNK     1      33.545  -7.919  29.150  1.00  0.00    -0.191 NA
HETATM    2  C3  UNK     1      32.690  -7.202  32.428  1.00  0.00     0.034 C 
HETATM    3  C4  UNK     1      32.095  -7.347  31.217  1.00  0.00     0.055 C 
HETATM    4  C16 UNK     1      32.897  -7.663  30.077  1.00  0.00     0.100 C 
ENDROOT
BRANCH   3   5
HETATM    5  C2  UNK     1      30.639  -7.199  31.026  1.00  0.00    -0.015 A 
HETATM    6  C10 UNK     1      30.110  -5.940  30.805  1.00  0.00     0.014 A 
HETATM    7  C12 UNK     1      28.734  -5.800  30.625  1.00  0.00     0.024 A 
HETATM    8  C14 UNK     1      27.908  -6.923  30.667  1.00  0.00     0.034 A 
HETATM    9  C13 UNK     1      28.458  -8.185  30.890  1.00  0.00     0.024 A 
HETATM   10 Cl1  UNK     1      26.210  -6.750  30.445  1.00  0.00    -0.084 Cl
HETATM   11  C11 UNK     1      29.834  -8.325  31.070  1.00  0.00     0.014 A 
ENDBRANCH   3   5
BRANCH   2  12
HETATM   12  C1  UNK     1      32.043  -6.862  33.686  1.00  0.00    -0.035 A 
HETATM   13  C5  UNK     1      32.035  -5.541  34.132  1.00  0.00     0.014 A 
HETATM   14  C8  UNK     1      31.413  -5.216  35.338  1.00  0.00     0.037 A 
HETATM   15  C7  UNK     1      30.801  -6.212  36.097  1.00  0.00     0.069 A 
HETATM   16  C9  UNK     1      30.808  -7.534  35.651  1.00  0.00     0.037 A 
HETATM   17  C6  UNK     1      31.431  -7.859  34.445  1.00  0.00     0.014 A 
BRANCH  15  18
HETATM   18  O1  UNK     1      30.193  -5.895  37.274  1.00  0.00    -0.342 OA
BRANCH  18  19
HETATM   19  C15 UNK     1      30.353  -4.560  37.749  1.00  0.00     0.278 C 
BRANCH  19  20
HETATM   20  C17 UNK     1      29.306  -4.268  38.798  1.00  0.00     0.239 C 
HETATM   21  O2  UNK     1      29.557  -3.750  39.882  1.00  0.00    -0.271 OA
HETATM   22  N1  UNK     1      28.043  -4.646  38.398  1.00  0.00    -0.368 N 
HETATM   23  H12 UNK     1      27.241  -4.509  39.004  1.00  0.00     0.159 HD
HETATM   24  H13 UNK     1      27.864  -5.073  37.495  1.00  0.00     0.159 HD
ENDBRANCH  19  20
ENDBRANCH  18  19
ENDBRANCH  15  18
ENDBRANCH   2  12
TORSDOF 5
ENDMDL
MODEL 10
REMARK VINA RESULT:      -6.8      6.172      7.614
REMARK  5 active torsions:
REMARK  status: ('A' for Active; 'I' for Inactive)
REMARK    1  A    between atoms: C15_20  and  O1_2 
REMARK    2  A    between atoms: C7_12  and  O1_2 
REMARK       I    between atoms: C17_22  and  N1_4 
REMARK    3  A    between atoms: C1_6  and  C3_8 
REMARK    4  A    between atoms: C2_7  and  C4_9 
REMARK    5  A    between atoms: C15_20  and  C17_22 
ROOT
HETATM    1  N2  UNK     1      30.231  -2.259  31.155  1.00  0.00    -0.191 NA
HETATM    2  C3  UNK     1      30.313  -5.542  30.057  1.00  0.00     0.034 C 
HETATM    3  C4  UNK     1      29.983  -4.836  31.169  1.00  0.00     0.055 C 
HETATM    4  C16 UNK     1      30.121  -3.414  31.160  1.00  0.00     0.100 C 
ENDROOT
BRANCH   3   5
HETATM    5  C2  UNK     1      29.477  -5.480  32.397  1.00  0.00    -0.015 A 
HETATM    6  C10 UNK     1      30.353  -5.732  33.439  1.00  0.00     0.014 A 
HETATM    7  C12 UNK     1      29.875  -6.340  34.599  1.00  0.00     0.024 A 
HETATM    8  C14 UNK     1      28.527  -6.687  34.701  1.00  0.00     0.034 A 
HETATM    9  C13 UNK     1      27.659  -6.425  33.641  1.00  0.00     0.024 A 
HETATM   10 Cl1  UNK     1      27.938  -7.438  36.132  1.00  0.00    -0.084 Cl
HETATM   11  C11 UNK     1      28.137  -5.817  32.481  1.00  0.00     0.014 A 
ENDBRANCH   3   5
BRANCH   2  12
HETATM   12  C1  UNK     1      30.260  -6.986  29.891  1.00  0.00    -0.035 A 
HETATM   13  C5  UNK     1      31.332  -7.777  30.303  1.00  0.00     0.014 A 
HETATM   14  C8  UNK     1      31.279  -9.162  30.144  1.00  0.00     0.037 A 
HETATM   15  C7  UNK     1      30.155  -9.756  29.572  1.00  0.00     0.069 A 
HETATM   16  C9  UNK     1      29.081  -8.966  29.160  1.00  0.00     0.037 A 
HETATM   17  C6  UNK     1      29.134  -7.580  29.319  1.00  0.00     0.014 A 
BRANCH  15  18
HETATM   18  O1  UNK     1      30.103 -11.107  29.417  1.00  0.00    -0.342 OA
BRANCH  18  19
HETATM   19  C15 UNK     1      30.974 -11.889  30.231  1.00  0.00     0.278 C 
BRANCH  19  20
HETATM   20  C17 UNK     1      30.281 -13.170  30.629  1.00  0.00     0.239 C 
HETATM   21  O2  UNK     1      30.548 -13.799  31.649  1.00  0.00    -0.271 OA
HETATM   22  N1  UNK     1      29.317 -13.549  29.721  1.00  0.00    -0.368 N 
HETATM   23  H12 UNK     1      28.770 -14.392  29.861  1.00  0.00     0.159 HD
HETATM   24  H13 UNK     1      29.117 -13.009  28.885  1.00  0.00     0.159 HD
ENDBRANCH  19  20
ENDBRANCH  18  19
ENDBRANCH  15  18
ENDBRANCH   2  12
TORSDOF 5
ENDMDL
