MODEL 1
REMARK VINA RESULT:      -9.3      0.000      0.000
REMARK  3 active torsions:
REMARK  status: ('A' for Active; 'I' for Inactive)
REMARK    1  A    between atoms: C17_22  and  O3_3 
REMARK    2  A    between atoms: C21_26  and  O3_3 
REMARK       I    between atoms: C8_13  and  N1_5 
REMARK    3  A    between atoms: C11_16  and  C8_13 
ROOT
HETATM    1  O2  UNK     1      18.604  -1.417  35.601  1.00  0.00    -0.271 OA
HETATM    2  O4  UNK     1      18.630  -2.334  37.694  1.00  0.00    -0.259 OA
HETATM    3  C11 UNK     1      20.030  -3.347  36.074  1.00  0.00     0.108 A 
HETATM    4  C13 UNK     1      20.478  -3.359  34.813  1.00  0.00     0.037 A 
HETATM    5  C14 UNK     1      19.999  -2.375  33.854  1.00  0.00     0.002 A 
HETATM    6  C15 UNK     1      19.043  -2.347  36.539  1.00  0.00     0.304 A 
HETATM    7  C16 UNK     1      19.072  -1.426  34.272  1.00  0.00     0.123 A 
HETATM    8  C17 UNK     1      18.574  -0.455  33.404  1.00  0.00     0.103 A 
HETATM    9  C18 UNK     1      20.439  -2.350  32.529  1.00  0.00     0.014 A 
HETATM   10  C19 UNK     1      19.017  -0.438  32.085  1.00  0.00     0.040 A 
HETATM   11  C20 UNK     1      19.948  -1.383  31.647  1.00  0.00     0.004 A 
ENDROOT
BRANCH   3  12
HETATM   12  C8  UNK     1      20.577  -4.389  36.973  1.00  0.00     0.264 C 
HETATM   13  O1  UNK     1      21.601  -4.107  37.594  1.00  0.00    -0.267 OA
HETATM   14  N1  UNK     1      19.873  -5.604  37.022  1.00  0.00    -0.313 N 
HETATM   15  C3  UNK     1      18.649  -5.814  36.222  1.00  0.00     0.133 C 
HETATM   16  C5  UNK     1      20.305  -6.716  37.844  1.00  0.00     0.044 A 
HETATM   17  C1  UNK     1      18.581  -7.208  35.622  1.00  0.00     0.025 C 
HETATM   18  C2  UNK     1      18.576  -8.237  36.733  1.00  0.00     0.043 C 
HETATM   19  C4  UNK     1      19.695  -7.985  37.709  1.00  0.00    -0.025 A 
HETATM   20  C6  UNK     1      20.095  -9.058  38.527  1.00  0.00    -0.053 A 
HETATM   21  C12 UNK     1      19.454 -10.407  38.427  1.00  0.00     0.049 C 
HETATM   22  C9  UNK     1      21.099  -8.896  39.474  1.00  0.00     0.007 A 
HETATM   23  C10 UNK     1      21.700  -7.654  39.625  1.00  0.00     0.003 A 
HETATM   24  C7  UNK     1      21.302  -6.577  38.826  1.00  0.00     0.030 A 
ENDBRANCH   3  12
BRANCH   8  25
HETATM   25  O3  UNK     1      17.667   0.467  33.826  1.00  0.00    -0.349 OA
BRANCH  25  26
HETATM   26  C21 UNK     1      18.093   1.829  33.860  1.00  0.00     0.171 C 
HETATM   27  C22 UNK     1      18.565   2.163  35.259  1.00  0.00     0.034 C 
ENDBRANCH  25  26
ENDBRANCH   8  25
TORSDOF 3
ENDMDL
MODEL 2
REMARK VINA RESULT:      -9.1      1.374      2.462
REMARK  3 active torsions:
REMARK  status: ('A' for Active; 'I' for Inactive)
REMARK    1  A    between atoms: C17_22  and  O3_3 
REMARK    2  A    between atoms: C21_26  and  O3_3 
REMARK       I    between atoms: C8_13  and  N1_5 
REMARK    3  A    between atoms: C11_16  and  C8_13 
ROOT
HETATM    1  O2  UNK     1      19.281  -1.805  34.685  1.00  0.00    -0.271 OA
HETATM    2  O4  UNK     1      20.592  -3.664  34.469  1.00  0.00    -0.259 OA
HETATM    3  C11 UNK     1      19.774  -3.188  36.641  1.00  0.00     0.108 A 
HETATM    4  C13 UNK     1      19.049  -2.383  37.426  1.00  0.00     0.037 A 
HETATM    5  C14 UNK     1      18.386  -1.215  36.867  1.00  0.00     0.002 A 
HETATM    6  C15 UNK     1      19.928  -2.929  35.192  1.00  0.00     0.304 A 
HETATM    7  C16 UNK     1      18.518  -0.953  35.508  1.00  0.00     0.123 A 
HETATM    8  C17 UNK     1      17.908   0.148  34.909  1.00  0.00     0.103 A 
HETATM    9  C18 UNK     1      17.620  -0.347  37.649  1.00  0.00     0.014 A 
HETATM   10  C19 UNK     1      17.147   1.008  35.696  1.00  0.00     0.040 A 
HETATM   11  C20 UNK     1      17.002   0.762  37.063  1.00  0.00     0.004 A 
ENDROOT
BRANCH   3  12
HETATM   12  C8  UNK     1      20.410  -4.350  37.304  1.00  0.00     0.264 C 
HETATM   13  O1  UNK     1      21.478  -4.147  37.880  1.00  0.00    -0.267 OA
HETATM   14  N1  UNK     1      19.731  -5.576  37.201  1.00  0.00    -0.313 N 
HETATM   15  C3  UNK     1      18.449  -5.684  36.477  1.00  0.00     0.133 C 
HETATM   16  C5  UNK     1      20.248  -6.797  37.785  1.00  0.00     0.044 A 
HETATM   17  C1  UNK     1      18.352  -6.958  35.656  1.00  0.00     0.025 C 
HETATM   18  C2  UNK     1      18.455  -8.160  36.572  1.00  0.00     0.043 C 
HETATM   19  C4  UNK     1      19.648  -8.043  37.485  1.00  0.00    -0.025 A 
HETATM   20  C6  UNK     1      20.132  -9.226  38.074  1.00  0.00    -0.053 A 
HETATM   21  C12 UNK     1      19.506 -10.557  37.797  1.00  0.00     0.049 C 
HETATM   22  C9  UNK     1      21.209  -9.196  38.952  1.00  0.00     0.007 A 
HETATM   23  C10 UNK     1      21.800  -7.980  39.264  1.00  0.00     0.003 A 
HETATM   24  C7  UNK     1      21.321  -6.796  38.694  1.00  0.00     0.030 A 
ENDBRANCH   3  12
BRANCH   8  25
HETATM   25  O3  UNK     1      18.045   0.392  33.578  1.00  0.00    -0.349 OA
BRANCH  25  26
HETATM   26  C21 UNK     1      18.294   1.742  33.187  1.00  0.00     0.171 C 
HETATM   27  C22 UNK     1      18.648   1.772  31.716  1.00  0.00     0.034 C 
ENDBRANCH  25  26
ENDBRANCH   8  25
TORSDOF 3
ENDMDL
MODEL 3
REMARK VINA RESULT:      -8.7      7.878     13.416
REMARK  3 active torsions:
REMARK  status: ('A' for Active; 'I' for Inactive)
REMARK    1  A    between atoms: C17_22  and  O3_3 
REMARK    2  A    between atoms: C21_26  and  O3_3 
REMARK       I    between atoms: C8_13  and  N1_5 
REMARK    3  A    between atoms: C11_16  and  C8_13 
ROOT
HETATM    1  O2  UNK     1      18.368   4.356  31.194  1.00  0.00    -0.271 OA
HETATM    2  O4  UNK     1      18.370   6.551  30.557  1.00  0.00    -0.259 OA
HETATM    3  C11 UNK     1      18.316   6.122  32.886  1.00  0.00     0.108 A 
HETATM    4  C13 UNK     1      18.297   5.215  33.870  1.00  0.00     0.037 A 
HETATM    5  C14 UNK     1      18.312   3.794  33.559  1.00  0.00     0.002 A 
HETATM    6  C15 UNK     1      18.353   5.723  31.461  1.00  0.00     0.304 A 
HETATM    7  C16 UNK     1      18.347   3.398  32.226  1.00  0.00     0.123 A 
HETATM    8  C17 UNK     1      18.364   2.053  31.860  1.00  0.00     0.103 A 
HETATM    9  C18 UNK     1      18.293   2.813  34.554  1.00  0.00     0.014 A 
HETATM   10  C19 UNK     1      18.344   1.082  32.858  1.00  0.00     0.040 A 
HETATM   11  C20 UNK     1      18.309   1.460  34.202  1.00  0.00     0.004 A 
ENDROOT
BRANCH   3  12
HETATM   12  C8  UNK     1      18.299   7.542  33.304  1.00  0.00     0.264 C 
HETATM   13  O1  UNK     1      19.385   8.061  33.561  1.00  0.00    -0.267 OA
HETATM   14  N1  UNK     1      17.038   8.157  33.373  1.00  0.00    -0.313 N 
HETATM   15  C3  UNK     1      15.805   7.418  33.035  1.00  0.00     0.133 C 
HETATM   16  C5  UNK     1      16.871   9.536  33.786  1.00  0.00     0.044 A 
HETATM   17  C1  UNK     1      14.657   7.743  33.977  1.00  0.00     0.025 C 
HETATM   18  C2  UNK     1      14.335   9.221  33.891  1.00  0.00     0.043 C 
HETATM   19  C4  UNK     1      15.580  10.055  34.043  1.00  0.00    -0.025 A 
HETATM   20  C6  UNK     1      15.416  11.403  34.416  1.00  0.00    -0.053 A 
HETATM   21  C12 UNK     1      14.063  11.990  34.672  1.00  0.00     0.049 C 
HETATM   22  C9  UNK     1      16.514  12.245  34.546  1.00  0.00     0.007 A 
HETATM   23  C10 UNK     1      17.785  11.752  34.287  1.00  0.00     0.003 A 
HETATM   24  C7  UNK     1      17.960  10.418  33.904  1.00  0.00     0.030 A 
ENDBRANCH   3  12
BRANCH   8  25
HETATM   25  O3  UNK     1      18.398   1.679  30.553  1.00  0.00    -0.349 OA
BRANCH  25  26
HETATM   26  C21 UNK     1      19.494   0.865  30.138  1.00  0.00     0.171 C 
HETATM   27  C22 UNK     1      19.230   0.359  28.736  1.00  0.00     0.034 C 
ENDBRANCH  25  26
ENDBRANCH   8  25
TORSDOF 3
ENDMDL
MODEL 4
REMARK VINA RESULT:      -8.6      5.566     11.887
REMARK  3 active torsions:
REMARK  status: ('A' for Active; 'I' for Inactive)
REMARK    1  A    between atoms: C17_22  and  O3_3 
REMARK    2  A    between atoms: C21_26  and  O3_3 
REMARK       I    between atoms: C8_13  and  N1_5 
REMARK    3  A    between atoms: C11_16  and  C8_13 
ROOT
HETATM    1  O2  UNK     1      18.745   1.587  32.917  1.00  0.00    -0.271 OA
HETATM    2  O4  UNK     1      18.029   3.113  34.461  1.00  0.00    -0.259 OA
HETATM    3  C11 UNK     1      17.977   3.793  32.192  1.00  0.00     0.108 A 
HETATM    4  C13 UNK     1      18.210   3.483  30.911  1.00  0.00     0.037 A 
HETATM    5  C14 UNK     1      18.738   2.174  30.558  1.00  0.00     0.002 A 
HETATM    6  C15 UNK     1      18.241   2.831  33.286  1.00  0.00     0.304 A 
HETATM    7  C16 UNK     1      18.993   1.256  31.571  1.00  0.00     0.123 A 
HETATM    8  C17 UNK     1      19.499  -0.015  31.300  1.00  0.00     0.103 A 
HETATM    9  C18 UNK     1      18.998   1.807  29.235  1.00  0.00     0.014 A 
HETATM   10  C19 UNK     1      19.755  -0.372  29.979  1.00  0.00     0.040 A 
HETATM   11  C20 UNK     1      19.505   0.537  28.948  1.00  0.00     0.004 A 
ENDROOT
BRANCH   3  12
HETATM   12  C8  UNK     1      17.440   5.149  32.450  1.00  0.00     0.264 C 
HETATM   13  O1  UNK     1      16.269   5.354  32.131  1.00  0.00    -0.267 OA
HETATM   14  N1  UNK     1      18.326   6.072  33.028  1.00  0.00    -0.313 N 
HETATM   15  C3  UNK     1      19.714   5.695  33.365  1.00  0.00     0.133 C 
HETATM   16  C5  UNK     1      17.941   7.439  33.317  1.00  0.00     0.044 A 
HETATM   17  C1  UNK     1      20.709   6.796  33.040  1.00  0.00     0.025 C 
HETATM   18  C2  UNK     1      20.371   8.035  33.843  1.00  0.00     0.043 C 
HETATM   19  C4  UNK     1      18.914   8.390  33.703  1.00  0.00    -0.025 A 
HETATM   20  C6  UNK     1      18.535   9.710  34.011  1.00  0.00    -0.053 A 
HETATM   21  C12 UNK     1      19.536  10.736  34.445  1.00  0.00     0.049 C 
HETATM   22  C9  UNK     1      17.205  10.106  33.936  1.00  0.00     0.007 A 
HETATM   23  C10 UNK     1      16.238   9.181  33.569  1.00  0.00     0.003 A 
HETATM   24  C7  UNK     1      16.600   7.862  33.272  1.00  0.00     0.030 A 
ENDBRANCH   3  12
BRANCH   8  25
HETATM   25  O3  UNK     1      19.743  -0.903  32.300  1.00  0.00    -0.349 OA
BRANCH  25  26
HETATM   26  C21 UNK     1      20.584  -2.015  31.992  1.00  0.00     0.171 C 
HETATM   27  C22 UNK     1      20.899  -2.765  33.268  1.00  0.00     0.034 C 
ENDBRANCH  25  26
ENDBRANCH   8  25
TORSDOF 3
ENDMDL
MODEL 5
REMARK VINA RESULT:      -8.5      7.463     11.507
REMARK  3 active torsions:
REMARK  status: ('A' for Active; 'I' for Inactive)
REMARK    1  A    between atoms: C17_22  and  O3_3 
REMARK    2  A    between atoms: C21_26  and  O3_3 
REMARK       I    between atoms: C8_13  and  N1_5 
REMARK    3  A    between atoms: C11_16  and  C8_13 
ROOT
HETATM    1  O2  UNK     1      18.728   8.583  33.576  1.00  0.00    -0.271 OA
HETATM    2  O4  UNK     1      20.239   6.901  33.241  1.00  0.00    -0.259 OA
HETATM    3  C11 UNK     1      17.990   6.252  33.605  1.00  0.00     0.108 A 
HETATM    4  C13 UNK     1      16.727   6.627  33.842  1.00  0.00     0.037 A 
HETATM    5  C14 UNK     1      16.391   8.037  33.962  1.00  0.00     0.002 A 
HETATM    6  C15 UNK     1      19.080   7.242  33.457  1.00  0.00     0.304 A 
HETATM    7  C16 UNK     1      17.401   8.983  33.826  1.00  0.00     0.123 A 
HETATM    8  C17 UNK     1      17.146  10.350  33.930  1.00  0.00     0.103 A 
HETATM    9  C18 UNK     1      15.087   8.474  34.210  1.00  0.00     0.014 A 
HETATM   10  C19 UNK     1      15.844  10.776  34.177  1.00  0.00     0.040 A 
HETATM   11  C20 UNK     1      14.816   9.841  34.316  1.00  0.00     0.004 A 
ENDROOT
BRANCH   3  12
HETATM   12  C8  UNK     1      18.231   4.794  33.499  1.00  0.00     0.264 C 
HETATM   13  O1  UNK     1      18.360   4.174  34.554  1.00  0.00    -0.267 OA
HETATM   14  N1  UNK     1      18.297   4.265  32.200  1.00  0.00    -0.313 N 
HETATM   15  C3  UNK     1      18.124   5.125  31.012  1.00  0.00     0.133 C 
HETATM   16  C5  UNK     1      18.547   2.860  31.949  1.00  0.00     0.044 A 
HETATM   17  C1  UNK     1      19.083   4.765  29.890  1.00  0.00     0.025 C 
HETATM   18  C2  UNK     1      18.836   3.336  29.453  1.00  0.00     0.043 C 
HETATM   19  C4  UNK     1      18.813   2.404  30.636  1.00  0.00    -0.025 A 
HETATM   20  C6  UNK     1      19.027   1.035  30.388  1.00  0.00    -0.053 A 
HETATM   21  C12 UNK     1      19.288   0.516  29.008  1.00  0.00     0.049 C 
HETATM   22  C9  UNK     1      18.990   0.109  31.423  1.00  0.00     0.007 A 
HETATM   23  C10 UNK     1      18.720   0.540  32.714  1.00  0.00     0.003 A 
HETATM   24  C7  UNK     1      18.493   1.896  32.972  1.00  0.00     0.030 A 
ENDBRANCH   3  12
BRANCH   8  25
HETATM   25  O3  UNK     1      18.143  11.264  33.794  1.00  0.00    -0.349 OA
BRANCH  25  26
HETATM   26  C21 UNK     1      17.919  12.559  34.353  1.00  0.00     0.171 C 
HETATM   27  C22 UNK     1      18.397  13.608  33.373  1.00  0.00     0.034 C 
ENDBRANCH  25  26
ENDBRANCH   8  25
TORSDOF 3
ENDMDL
MODEL 6
REMARK VINA RESULT:      -8.4      6.859     12.146
REMARK  3 active torsions:
REMARK  status: ('A' for Active; 'I' for Inactive)
REMARK    1  A    between atoms: C17_22  and  O3_3 
REMARK    2  A    between atoms: C21_26  and  O3_3 
REMARK       I    between atoms: C8_13  and  N1_5 
REMARK    3  A    between atoms: C11_16  and  C8_13 
ROOT
HETATM    1  O2  UNK     1      19.374   2.465  30.362  1.00  0.00    -0.271 OA
HETATM    2  O4  UNK     1      19.039   4.647  29.772  1.00  0.00    -0.259 OA
HETATM    3  C11 UNK     1      18.089   3.944  31.826  1.00  0.00     0.108 A 
HETATM    4  C13 UNK     1      17.896   2.952  32.702  1.00  0.00     0.037 A 
HETATM    5  C14 UNK     1      18.445   1.629  32.448  1.00  0.00     0.002 A 
HETATM    6  C15 UNK     1      18.860   3.740  30.578  1.00  0.00     0.304 A 
HETATM    7  C16 UNK     1      19.173   1.417  31.282  1.00  0.00     0.123 A 
HETATM    8  C17 UNK     1      19.727   0.174  30.978  1.00  0.00     0.103 A 
HETATM    9  C18 UNK     1      18.267   0.564  33.335  1.00  0.00     0.014 A 
HETATM   10  C19 UNK     1      19.544  -0.881  31.867  1.00  0.00     0.040 A 
HETATM   11  C20 UNK     1      18.817  -0.688  33.044  1.00  0.00     0.004 A 
ENDROOT
BRANCH   3  12
HETATM   12  C8  UNK     1      17.491   5.253  32.174  1.00  0.00     0.264 C 
HETATM   13  O1  UNK     1      16.318   5.434  31.847  1.00  0.00    -0.267 OA
HETATM   14  N1  UNK     1      18.326   6.164  32.841  1.00  0.00    -0.313 N 
HETATM   15  C3  UNK     1      19.722   5.819  33.178  1.00  0.00     0.133 C 
HETATM   16  C5  UNK     1      17.878   7.487  33.225  1.00  0.00     0.044 A 
HETATM   17  C1  UNK     1      20.676   6.982  32.961  1.00  0.00     0.025 C 
HETATM   18  C2  UNK     1      20.271   8.141  33.848  1.00  0.00     0.043 C 
HETATM   19  C4  UNK     1      18.802   8.445  33.703  1.00  0.00    -0.025 A 
HETATM   20  C6  UNK     1      18.362   9.721  34.103  1.00  0.00    -0.053 A 
HETATM   21  C12 UNK     1      19.310  10.750  34.635  1.00  0.00     0.049 C 
HETATM   22  C9  UNK     1      17.018  10.067  34.029  1.00  0.00     0.007 A 
HETATM   23  C10 UNK     1      16.099   9.134  33.572  1.00  0.00     0.003 A 
HETATM   24  C7  UNK     1      16.522   7.858  33.183  1.00  0.00     0.030 A 
ENDBRANCH   3  12
BRANCH   8  25
HETATM   25  O3  UNK     1      20.436  -0.020  29.834  1.00  0.00    -0.349 OA
BRANCH  25  26
HETATM   26  C21 UNK     1      20.029  -1.098  28.992  1.00  0.00     0.171 C 
HETATM   27  C22 UNK     1      19.089  -0.568  27.931  1.00  0.00     0.034 C 
ENDBRANCH  25  26
ENDBRANCH   8  25
TORSDOF 3
ENDMDL
MODEL 7
REMARK VINA RESULT:      -8.4      8.116     14.495
REMARK  3 active torsions:
REMARK  status: ('A' for Active; 'I' for Inactive)
REMARK    1  A    between atoms: C17_22  and  O3_3 
REMARK    2  A    between atoms: C21_26  and  O3_3 
REMARK       I    between atoms: C8_13  and  N1_5 
REMARK    3  A    between atoms: C11_16  and  C8_13 
ROOT
HETATM    1  O2  UNK     1      17.424   5.162  33.395  1.00  0.00    -0.271 OA
HETATM    2  O4  UNK     1      16.794   6.604  35.053  1.00  0.00    -0.259 OA
HETATM    3  C11 UNK     1      17.891   7.553  33.180  1.00  0.00     0.108 A 
HETATM    4  C13 UNK     1      18.471   7.360  31.989  1.00  0.00     0.037 A 
HETATM    5  C14 UNK     1      18.560   6.022  31.425  1.00  0.00     0.002 A 
HETATM    6  C15 UNK     1      17.325   6.431  33.961  1.00  0.00     0.304 A 
HETATM    7  C16 UNK     1      18.034   4.953  32.143  1.00  0.00     0.123 A 
HETATM    8  C17 UNK     1      18.086   3.647  31.659  1.00  0.00     0.103 A 
HETATM    9  C18 UNK     1      19.156   5.774  30.186  1.00  0.00     0.014 A 
HETATM   10  C19 UNK     1      18.682   3.409  30.424  1.00  0.00     0.040 A 
HETATM   11  C20 UNK     1      19.216   4.469  29.688  1.00  0.00     0.004 A 
ENDROOT
BRANCH   3  12
HETATM   12  C8  UNK     1      17.849   8.951  33.668  1.00  0.00     0.264 C 
HETATM   13  O1  UNK     1      18.875   9.390  34.187  1.00  0.00    -0.267 OA
HETATM   14  N1  UNK     1      16.635   9.636  33.497  1.00  0.00    -0.313 N 
HETATM   15  C3  UNK     1      15.474   8.989  32.854  1.00  0.00     0.133 C 
HETATM   16  C5  UNK     1      16.447  11.001  33.946  1.00  0.00     0.044 A 
HETATM   17  C1  UNK     1      14.163   9.336  33.540  1.00  0.00     0.025 C 
HETATM   18  C2  UNK     1      13.939  10.833  33.475  1.00  0.00     0.043 C 
HETATM   19  C4  UNK     1      15.158  11.583  33.945  1.00  0.00    -0.025 A 
HETATM   20  C6  UNK     1      14.980  12.918  34.353  1.00  0.00    -0.053 A 
HETATM   21  C12 UNK     1      13.633  13.572  34.343  1.00  0.00     0.049 C 
HETATM   22  C9  UNK     1      16.060  13.686  34.771  1.00  0.00     0.007 A 
HETATM   23  C10 UNK     1      17.332  13.132  34.766  1.00  0.00     0.003 A 
HETATM   24  C7  UNK     1      17.524  11.810  34.351  1.00  0.00     0.030 A 
ENDBRANCH   3  12
BRANCH   8  25
HETATM   25  O3  UNK     1      17.567   2.611  32.371  1.00  0.00    -0.349 OA
BRANCH  25  26
HETATM   26  C21 UNK     1      18.492   1.760  33.047  1.00  0.00     0.171 C 
HETATM   27  C22 UNK     1      18.252   1.856  34.539  1.00  0.00     0.034 C 
ENDBRANCH  25  26
ENDBRANCH   8  25
TORSDOF 3
ENDMDL
MODEL 8
REMARK VINA RESULT:      -8.2      6.594     13.047
REMARK  3 active torsions:
REMARK  status: ('A' for Active; 'I' for Inactive)
REMARK    1  A    between atoms: C17_22  and  O3_3 
REMARK    2  A    between atoms: C21_26  and  O3_3 
REMARK       I    between atoms: C8_13  and  N1_5 
REMARK    3  A    between atoms: C11_16  and  C8_13 
ROOT
HETATM    1  O2  UNK     1      18.410   3.409  33.006  1.00  0.00    -0.271 OA
HETATM    2  O4  UNK     1      18.343   4.853  34.776  1.00  0.00    -0.259 OA
HETATM    3  C11 UNK     1      18.464   5.823  32.618  1.00  0.00     0.108 A 
HETATM    4  C13 UNK     1      18.527   5.636  31.295  1.00  0.00     0.037 A 
HETATM    5  C14 UNK     1      18.537   4.290  30.743  1.00  0.00     0.002 A 
HETATM    6  C15 UNK     1      18.400   4.685  33.563  1.00  0.00     0.304 A 
HETATM    7  C16 UNK     1      18.478   3.207  31.614  1.00  0.00     0.123 A 
HETATM    8  C17 UNK     1      18.482   1.892  31.151  1.00  0.00     0.103 A 
HETATM    9  C18 UNK     1      18.602   4.048  29.369  1.00  0.00     0.014 A 
HETATM   10  C19 UNK     1      18.548   1.660  29.780  1.00  0.00     0.040 A 
HETATM   11  C20 UNK     1      18.608   2.734  28.890  1.00  0.00     0.004 A 
ENDROOT
BRANCH   3  12
HETATM   12  C8  UNK     1      18.460   7.230  33.081  1.00  0.00     0.264 C 
HETATM   13  O1  UNK     1      19.555   7.748  33.298  1.00  0.00    -0.267 OA
HETATM   14  N1  UNK     1      17.200   7.833  33.235  1.00  0.00    -0.313 N 
HETATM   15  C3  UNK     1      15.956   7.096  32.938  1.00  0.00     0.133 C 
HETATM   16  C5  UNK     1      17.047   9.197  33.699  1.00  0.00     0.044 A 
HETATM   17  C1  UNK     1      14.857   7.383  33.947  1.00  0.00     0.025 C 
HETATM   18  C2  UNK     1      14.522   8.860  33.925  1.00  0.00     0.043 C 
HETATM   19  C4  UNK     1      15.769   9.699  34.039  1.00  0.00    -0.025 A 
HETATM   20  C6  UNK     1      15.617  11.032  34.462  1.00  0.00    -0.053 A 
HETATM   21  C12 UNK     1      14.275  11.601  34.806  1.00  0.00     0.049 C 
HETATM   22  C9  UNK     1      16.715  11.878  34.562  1.00  0.00     0.007 A 
HETATM   23  C10 UNK     1      17.974  11.403  34.222  1.00  0.00     0.003 A 
HETATM   24  C7  UNK     1      18.137  10.083  33.788  1.00  0.00     0.030 A 
ENDBRANCH   3  12
BRANCH   8  25
HETATM   25  O3  UNK     1      18.424   0.842  32.013  1.00  0.00    -0.349 OA
BRANCH  25  26
HETATM   26  C21 UNK     1      19.249  -0.286  31.721  1.00  0.00     0.171 C 
HETATM   27  C22 UNK     1      18.975  -1.374  32.737  1.00  0.00     0.034 C 
ENDBRANCH  25  26
ENDBRANCH   8  25
TORSDOF 3
ENDMDL
MODEL 9
REMARK VINA RESULT:      -8.2      6.490      9.931
REMARK  3 active torsions:
REMARK  status: ('A' for Active; 'I' for Inactive)
REMARK    1  A    between atoms: C17_22  and  O3_3 
REMARK    2  A    between atoms: C21_26  and  O3_3 
REMARK       I    between atoms: C8_13  and  N1_5 
REMARK    3  A    between atoms: C11_16  and  C8_13 
ROOT
HETATM    1  O2  UNK     1      23.498  -9.338  36.845  1.00  0.00    -0.271 OA
HETATM    2  O4  UNK     1      25.418 -10.333  36.105  1.00  0.00    -0.259 OA
HETATM    3  C11 UNK     1      25.622  -8.889  37.972  1.00  0.00     0.108 A 
HETATM    4  C13 UNK     1      25.018  -8.069  38.840  1.00  0.00     0.037 A 
HETATM    5  C14 UNK     1      23.585  -7.834  38.753  1.00  0.00     0.002 A 
HETATM    6  C15 UNK     1      24.868  -9.582  36.903  1.00  0.00     0.304 A 
HETATM    7  C16 UNK     1      22.858  -8.475  37.756  1.00  0.00     0.123 A 
HETATM    8  C17 UNK     1      21.483  -8.294  37.618  1.00  0.00     0.103 A 
HETATM    9  C18 UNK     1      22.913  -6.986  39.637  1.00  0.00     0.014 A 
HETATM   10  C19 UNK     1      20.822  -7.447  38.503  1.00  0.00     0.040 A 
HETATM   11  C20 UNK     1      21.534  -6.794  39.511  1.00  0.00     0.004 A 
ENDROOT
BRANCH   3  12
HETATM   12  C8  UNK     1      27.082  -9.063  38.143  1.00  0.00     0.264 C 
HETATM   13  O1  UNK     1      27.482 -10.200  38.396  1.00  0.00    -0.267 OA
HETATM   14  N1  UNK     1      27.869  -7.908  38.008  1.00  0.00    -0.313 N 
HETATM   15  C3  UNK     1      27.261  -6.597  37.701  1.00  0.00     0.133 C 
HETATM   16  C5  UNK     1      29.309  -7.928  38.168  1.00  0.00     0.044 A 
HETATM   17  C1  UNK     1      27.904  -5.463  38.480  1.00  0.00     0.025 C 
HETATM   18  C2  UNK     1      29.373  -5.372  38.122  1.00  0.00     0.043 C 
HETATM   19  C4  UNK     1      30.040  -6.719  38.231  1.00  0.00    -0.025 A 
HETATM   20  C6  UNK     1      31.441  -6.740  38.358  1.00  0.00    -0.053 A 
HETATM   21  C12 UNK     1      32.247  -5.479  38.404  1.00  0.00     0.049 C 
HETATM   22  C9  UNK     1      32.132  -7.943  38.433  1.00  0.00     0.007 A 
HETATM   23  C10 UNK     1      31.430  -9.138  38.362  1.00  0.00     0.003 A 
HETATM   24  C7  UNK     1      30.038  -9.131  38.223  1.00  0.00     0.030 A 
ENDBRANCH   3  12
BRANCH   8  25
HETATM   25  O3  UNK     1      20.784  -8.927  36.638  1.00  0.00    -0.349 OA
BRANCH  25  26
HETATM   26  C21 UNK     1      19.565  -9.565  37.017  1.00  0.00     0.171 C 
HETATM   27  C22 UNK     1      19.879 -10.934  37.581  1.00  0.00     0.034 C 
ENDBRANCH  25  26
ENDBRANCH   8  25
TORSDOF 3
ENDMDL
MODEL 10
REMARK VINA RESULT:      -8.0      7.681     10.832
REMARK  3 active torsions:
REMARK  status: ('A' for Active; 'I' for Inactive)
REMARK    1  A    between atoms: C17_22  and  O3_3 
REMARK    2  A    between atoms: C21_26  and  O3_3 
REMARK       I    between atoms: C8_13  and  N1_5 
REMARK    3  A    between atoms: C11_16  and  C8_13 
ROOT
HETATM    1  O2  UNK     1      24.515  -8.449  37.422  1.00  0.00    -0.271 OA
HETATM    2  O4  UNK     1      26.031  -6.990  38.314  1.00  0.00    -0.259 OA
HETATM    3  C11 UNK     1      26.889  -9.033  37.475  1.00  0.00     0.108 A 
HETATM    4  C13 UNK     1      26.639 -10.210  36.890  1.00  0.00     0.037 A 
HETATM    5  C14 UNK     1      25.278 -10.578  36.531  1.00  0.00     0.002 A 
HETATM    6  C15 UNK     1      25.806  -8.070  37.777  1.00  0.00     0.304 A 
HETATM    7  C16 UNK     1      24.247  -9.687  36.806  1.00  0.00     0.123 A 
HETATM    8  C17 UNK     1      22.921  -9.978  36.488  1.00  0.00     0.103 A 
HETATM    9  C18 UNK     1      24.972 -11.797  35.920  1.00  0.00     0.014 A 
HETATM   10  C19 UNK     1      22.624 -11.194  35.879  1.00  0.00     0.040 A 
HETATM   11  C20 UNK     1      23.647 -12.102  35.595  1.00  0.00     0.004 A 
ENDROOT
BRANCH   3  12
HETATM   12  C8  UNK     1      28.306  -8.751  37.801  1.00  0.00     0.264 C 
HETATM   13  O1  UNK     1      28.691  -9.064  38.927  1.00  0.00    -0.267 OA
HETATM   14  N1  UNK     1      29.070  -8.144  36.791  1.00  0.00    -0.313 N 
HETATM   15  C3  UNK     1      28.483  -7.820  35.475  1.00  0.00     0.133 C 
HETATM   16  C5  UNK     1      30.464  -7.795  36.979  1.00  0.00     0.044 A 
HETATM   17  C1  UNK     1      28.955  -6.477  34.944  1.00  0.00     0.025 C 
HETATM   18  C2  UNK     1      30.459  -6.502  34.773  1.00  0.00     0.043 C 
HETATM   19  C4  UNK     1      31.138  -7.002  36.021  1.00  0.00    -0.025 A 
HETATM   20  C6  UNK     1      32.500  -6.687  36.190  1.00  0.00    -0.053 A 
HETATM   21  C12 UNK     1      33.250  -5.870  35.184  1.00  0.00     0.049 C 
HETATM   22  C9  UNK     1      33.203  -7.138  37.300  1.00  0.00     0.007 A 
HETATM   23  C10 UNK     1      32.557  -7.926  38.242  1.00  0.00     0.003 A 
HETATM   24  C7  UNK     1      31.208  -8.257  38.080  1.00  0.00     0.030 A 
ENDBRANCH   3  12
BRANCH   8  25
HETATM   25  O3  UNK     1      21.922  -9.097  36.762  1.00  0.00    -0.349 OA
BRANCH  25  26
HETATM   26  C21 UNK     1      20.949  -9.498  37.727  1.00  0.00     0.171 C 
HETATM   27  C22 UNK     1      21.310  -8.901  39.070  1.00  0.00     0.034 C 
ENDBRANCH  25  26
ENDBRANCH   8  25
TORSDOF 3
ENDMDL
