MODEL 1
REMARK VINA RESULT:      -9.4      0.000      0.000
REMARK  5 active torsions:
REMARK  status: ('A' for Active; 'I' for Inactive)
REMARK    1  A    between atoms: C13_20  and  O1_2 
REMARK    2  A    between atoms: C12_19  and  N1_7 
REMARK       I    between atoms: C14_21  and  N1_7 
REMARK    3  A    between atoms: C1_8  and  C2_9 
REMARK    4  A    between atoms: C11_18  and  C13_20 
REMARK    5  A    between atoms: C14_21  and  C15_22 
ROOT
HETATM    1  S1  UNK     1      16.413   6.534  31.663  1.00  0.00    -0.075 SA
HETATM    2  C1  UNK     1      15.893   9.812  34.089  1.00  0.00    -0.002 C 
HETATM    3  C3  UNK     1      17.397  10.145  34.212  1.00  0.00     0.010 C 
HETATM    4  C4  UNK     1      15.617   8.952  32.835  1.00  0.00     0.052 C 
HETATM    5  C5  UNK     1      18.249   8.874  34.353  1.00  0.00     0.041 C 
HETATM    6  C6  UNK     1      16.634   7.861  32.707  1.00  0.00    -0.008 A 
HETATM    7  C7  UNK     1      17.845   7.820  33.371  1.00  0.00    -0.026 A 
HETATM    8  C11 UNK     1      18.597   6.661  33.011  1.00  0.00     0.080 A 
HETATM    9  C12 UNK     1      17.935   5.878  32.091  1.00  0.00     0.094 A 
ENDROOT
BRANCH   9  10
HETATM   10  N1  UNK     1      18.286   4.700  31.488  1.00  0.00    -0.316 N 
HETATM   11  C14 UNK     1      18.146   3.412  32.022  1.00  0.00     0.262 C 
HETATM   12  O3  UNK     1      17.693   3.083  33.111  1.00  0.00    -0.267 OA
HETATM   13  H17 UNK     1      18.671   4.800  30.552  1.00  0.00     0.169 HD
BRANCH  11  14
HETATM   14  C15 UNK     1      18.628   2.363  31.098  1.00  0.00     0.108 A 
HETATM   15  C17 UNK     1      19.022   1.215  31.661  1.00  0.00     0.037 A 
HETATM   16  C19 UNK     1      19.512   0.123  30.835  1.00  0.00    -0.001 A 
HETATM   17  C20 UNK     1      19.564   0.293  29.455  1.00  0.00     0.089 A 
HETATM   18  C21 UNK     1      19.933  -1.094  31.379  1.00  0.00     0.014 A 
HETATM   19  O4  UNK     1      19.148   1.504  28.868  1.00  0.00    -0.274 OA
HETATM   20  C22 UNK     1      20.024  -0.712  28.608  1.00  0.00     0.038 A 
HETATM   21  C18 UNK     1      18.674   2.568  29.632  1.00  0.00     0.304 A 
HETATM   22  O5  UNK     1      18.315   3.618  29.113  1.00  0.00    -0.259 OA
HETATM   23  C24 UNK     1      20.441  -1.922  29.159  1.00  0.00     0.003 A 
HETATM   24  C23 UNK     1      20.397  -2.112  30.542  1.00  0.00     0.001 A 
ENDBRANCH  11  14
ENDBRANCH   9  10
BRANCH   8  25
HETATM   25  C13 UNK     1      19.896   6.313  33.531  1.00  0.00     0.296 C 
HETATM   26  O2  UNK     1      20.097   5.556  34.499  1.00  0.00    -0.259 OA
BRANCH  25  27
HETATM   27  O1  UNK     1      20.910   6.916  32.829  1.00  0.00    -0.322 OA
HETATM   28  C16 UNK     1      21.825   6.063  32.132  1.00  0.00     0.213 C 
ENDBRANCH  25  27
ENDBRANCH   8  25
BRANCH   2  29
HETATM   29  C2  UNK     1      15.056  11.089  34.055  1.00  0.00    -0.047 C 
HETATM   30  C10 UNK     1      15.980  12.314  33.959  1.00  0.00     0.015 C 
HETATM   31  C8  UNK     1      14.121  11.064  32.833  1.00  0.00     0.015 C 
HETATM   32  C9  UNK     1      14.211  11.192  35.336  1.00  0.00     0.015 C 
ENDBRANCH   2  29
TORSDOF 5
ENDMDL
MODEL 2
REMARK VINA RESULT:      -9.3      1.372      2.352
REMARK  5 active torsions:
REMARK  status: ('A' for Active; 'I' for Inactive)
REMARK    1  A    between atoms: C13_20  and  O1_2 
REMARK    2  A    between atoms: C12_19  and  N1_7 
REMARK       I    between atoms: C14_21  and  N1_7 
REMARK    3  A    between atoms: C1_8  and  C2_9 
REMARK    4  A    between atoms: C11_18  and  C13_20 
REMARK    5  A    between atoms: C14_21  and  C15_22 
ROOT
HETATM    1  S1  UNK     1      15.261   6.828  32.491  1.00  0.00    -0.075 SA
HETATM    2  C1  UNK     1      14.445  10.574  33.974  1.00  0.00    -0.002 C 
HETATM    3  C3  UNK     1      15.898  11.092  33.876  1.00  0.00     0.010 C 
HETATM    4  C4  UNK     1      14.219   9.374  33.028  1.00  0.00     0.052 C 
HETATM    5  C5  UNK     1      16.913  10.013  34.284  1.00  0.00     0.041 C 
HETATM    6  C6  UNK     1      15.361   8.409  33.115  1.00  0.00    -0.008 A 
HETATM    7  C7  UNK     1      16.599   8.689  33.661  1.00  0.00    -0.026 A 
HETATM    8  C11 UNK     1      17.475   7.566  33.566  1.00  0.00     0.080 A 
HETATM    9  C12 UNK     1      16.875   6.489  32.952  1.00  0.00     0.094 A 
ENDROOT
BRANCH   9  10
HETATM   10  N1  UNK     1      17.344   5.236  32.663  1.00  0.00    -0.316 N 
HETATM   11  C14 UNK     1      18.064   4.853  31.524  1.00  0.00     0.262 C 
HETATM   12  O3  UNK     1      18.415   5.544  30.576  1.00  0.00    -0.267 OA
HETATM   13  H17 UNK     1      17.146   4.535  33.372  1.00  0.00     0.169 HD
BRANCH  11  14
HETATM   14  C15 UNK     1      18.414   3.416  31.533  1.00  0.00     0.108 A 
HETATM   15  C17 UNK     1      18.806   2.895  30.365  1.00  0.00     0.037 A 
HETATM   16  C19 UNK     1      19.171   1.490  30.274  1.00  0.00    -0.001 A 
HETATM   17  C20 UNK     1      19.104   0.701  31.418  1.00  0.00     0.089 A 
HETATM   18  C21 UNK     1      19.587   0.904  29.076  1.00  0.00     0.014 A 
HETATM   19  O4  UNK     1      18.690   1.255  32.646  1.00  0.00    -0.274 OA
HETATM   20  C22 UNK     1      19.438  -0.650  31.398  1.00  0.00     0.038 A 
HETATM   21  C18 UNK     1      18.335   2.597  32.764  1.00  0.00     0.304 A 
HETATM   22  O5  UNK     1      17.975   3.070  33.836  1.00  0.00    -0.259 OA
HETATM   23  C24 UNK     1      19.852  -1.227  30.199  1.00  0.00     0.003 A 
HETATM   24  C23 UNK     1      19.925  -0.451  29.040  1.00  0.00     0.001 A 
ENDBRANCH  11  14
ENDBRANCH   9  10
BRANCH   8  25
HETATM   25  C13 UNK     1      18.833   7.522  34.050  1.00  0.00     0.296 C 
HETATM   26  O2  UNK     1      19.164   7.544  35.250  1.00  0.00    -0.259 OA
BRANCH  25  27
HETATM   27  O1  UNK     1      19.742   7.450  33.024  1.00  0.00    -0.322 OA
HETATM   28  C16 UNK     1      20.755   6.441  33.113  1.00  0.00     0.213 C 
ENDBRANCH  25  27
ENDBRANCH   8  25
BRANCH   2  29
HETATM   29  C2  UNK     1      13.450  11.690  33.667  1.00  0.00    -0.047 C 
HETATM   30  C10 UNK     1      12.376  11.176  32.694  1.00  0.00     0.015 C 
HETATM   31  C8  UNK     1      12.772  12.154  34.969  1.00  0.00     0.015 C 
HETATM   32  C9  UNK     1      14.183  12.881  33.027  1.00  0.00     0.015 C 
ENDBRANCH   2  29
TORSDOF 5
ENDMDL
MODEL 3
REMARK VINA RESULT:      -8.9     15.333     21.046
REMARK  5 active torsions:
REMARK  status: ('A' for Active; 'I' for Inactive)
REMARK    1  A    between atoms: C13_20  and  O1_2 
REMARK    2  A    between atoms: C12_19  and  N1_7 
REMARK       I    between atoms: C14_21  and  N1_7 
REMARK    3  A    between atoms: C1_8  and  C2_9 
REMARK    4  A    between atoms: C11_18  and  C13_20 
REMARK    5  A    between atoms: C14_21  and  C15_22 
ROOT
HETATM    1  S1  UNK     1      19.201  -2.164  12.371  1.00  0.00    -0.075 SA
HETATM    2  C1  UNK     1      20.001  -5.292   9.826  1.00  0.00    -0.002 C 
HETATM    3  C3  UNK     1      19.872  -6.394  10.901  1.00  0.00     0.010 C 
HETATM    4  C4  UNK     1      19.262  -4.005  10.259  1.00  0.00     0.052 C 
HETATM    5  C5  UNK     1      20.493  -5.958  12.238  1.00  0.00     0.041 C 
HETATM    6  C6  UNK     1      19.553  -3.685  11.693  1.00  0.00    -0.008 A 
HETATM    7  C7  UNK     1      20.091  -4.567  12.612  1.00  0.00    -0.026 A 
HETATM    8  C11 UNK     1      20.219  -3.962  13.898  1.00  0.00     0.080 A 
HETATM    9  C12 UNK     1      19.773  -2.658  13.907  1.00  0.00     0.094 A 
ENDROOT
BRANCH   9  10
HETATM   10  N1  UNK     1      19.717  -1.729  14.910  1.00  0.00    -0.316 N 
HETATM   11  C14 UNK     1      18.726  -1.616  15.894  1.00  0.00     0.262 C 
HETATM   12  O3  UNK     1      17.730  -2.310  16.055  1.00  0.00    -0.267 OA
HETATM   13  H17 UNK     1      20.495  -1.075  14.926  1.00  0.00     0.169 HD
BRANCH  11  14
HETATM   14  C15 UNK     1      18.977  -0.494  16.823  1.00  0.00     0.108 A 
HETATM   15  C17 UNK     1      18.980  -0.795  18.127  1.00  0.00     0.037 A 
HETATM   16  C19 UNK     1      19.218   0.242  19.118  1.00  0.00    -0.001 A 
HETATM   17  C20 UNK     1      19.441   1.546  18.689  1.00  0.00     0.089 A 
HETATM   18  C21 UNK     1      19.231  -0.027  20.490  1.00  0.00     0.014 A 
HETATM   19  O4  UNK     1      19.437   1.857  17.315  1.00  0.00    -0.274 OA
HETATM   20  C22 UNK     1      19.675   2.585  19.587  1.00  0.00     0.038 A 
HETATM   21  C18 UNK     1      19.212   0.887  16.342  1.00  0.00     0.304 A 
HETATM   22  O5  UNK     1      19.209   1.166  15.149  1.00  0.00    -0.259 OA
HETATM   23  C24 UNK     1      19.686   2.308  20.952  1.00  0.00     0.003 A 
HETATM   24  C23 UNK     1      19.464   1.005  21.403  1.00  0.00     0.001 A 
ENDBRANCH  11  14
ENDBRANCH   9  10
BRANCH   8  25
HETATM   25  C13 UNK     1      20.754  -4.604  15.074  1.00  0.00     0.296 C 
HETATM   26  O2  UNK     1      20.186  -5.510  15.712  1.00  0.00    -0.259 OA
BRANCH  25  27
HETATM   27  O1  UNK     1      21.982  -4.100  15.422  1.00  0.00    -0.322 OA
HETATM   28  C16 UNK     1      22.164  -3.691  16.782  1.00  0.00     0.213 C 
ENDBRANCH  25  27
ENDBRANCH   8  25
BRANCH   2  29
HETATM   29  C2  UNK     1      19.473  -5.782   8.480  1.00  0.00    -0.047 C 
HETATM   30  C10 UNK     1      20.511  -5.503   7.381  1.00  0.00     0.015 C 
HETATM   31  C8  UNK     1      19.205  -7.296   8.548  1.00  0.00     0.015 C 
HETATM   32  C9  UNK     1      18.164  -5.052   8.136  1.00  0.00     0.015 C 
ENDBRANCH   2  29
TORSDOF 5
ENDMDL
MODEL 4
REMARK VINA RESULT:      -8.8     15.853     22.060
REMARK  5 active torsions:
REMARK  status: ('A' for Active; 'I' for Inactive)
REMARK    1  A    between atoms: C13_20  and  O1_2 
REMARK    2  A    between atoms: C12_19  and  N1_7 
REMARK       I    between atoms: C14_21  and  N1_7 
REMARK    3  A    between atoms: C1_8  and  C2_9 
REMARK    4  A    between atoms: C11_18  and  C13_20 
REMARK    5  A    between atoms: C14_21  and  C15_22 
ROOT
HETATM    1  S1  UNK     1      20.933  -5.417  14.812  1.00  0.00    -0.075 SA
HETATM    2  C1  UNK     1      20.956  -8.656  12.281  1.00  0.00    -0.002 C 
HETATM    3  C3  UNK     1      21.062  -7.827  10.981  1.00  0.00     0.010 C 
HETATM    4  C4  UNK     1      21.443  -7.840  13.500  1.00  0.00     0.052 C 
HETATM    5  C5  UNK     1      20.189  -6.563  11.042  1.00  0.00     0.041 C 
HETATM    6  C6  UNK     1      20.894  -6.447  13.457  1.00  0.00    -0.008 A 
HETATM    7  C7  UNK     1      20.342  -5.843  12.344  1.00  0.00    -0.026 A 
HETATM    8  C11 UNK     1      19.937  -4.504  12.626  1.00  0.00     0.080 A 
HETATM    9  C12 UNK     1      20.201  -4.144  13.930  1.00  0.00     0.094 A 
ENDROOT
BRANCH   9  10
HETATM   10  N1  UNK     1      19.978  -2.977  14.609  1.00  0.00    -0.316 N 
HETATM   11  C14 UNK     1      18.860  -2.665  15.393  1.00  0.00     0.262 C 
HETATM   12  O3  UNK     1      17.877  -3.356  15.627  1.00  0.00    -0.267 OA
HETATM   13  H17 UNK     1      20.724  -2.291  14.529  1.00  0.00     0.169 HD
BRANCH  11  14
HETATM   14  C15 UNK     1      18.944  -1.313  15.985  1.00  0.00     0.108 A 
HETATM   15  C17 UNK     1      18.744  -1.230  17.305  1.00  0.00     0.037 A 
HETATM   16  C19 UNK     1      18.807   0.057  17.977  1.00  0.00    -0.001 A 
HETATM   17  C20 UNK     1      19.077   1.197  17.227  1.00  0.00     0.089 A 
HETATM   18  C21 UNK     1      18.605   0.190  19.354  1.00  0.00     0.014 A 
HETATM   19  O4  UNK     1      19.287   1.105  15.837  1.00  0.00    -0.274 OA
HETATM   20  C22 UNK     1      19.149   2.460  17.810  1.00  0.00     0.038 A 
HETATM   21  C18 UNK     1      19.234  -0.114  15.165  1.00  0.00     0.304 A 
HETATM   22  O5  UNK     1      19.417  -0.185  13.955  1.00  0.00    -0.259 OA
HETATM   23  C24 UNK     1      18.947   2.583  19.182  1.00  0.00     0.003 A 
HETATM   24  C23 UNK     1      18.674   1.451  19.953  1.00  0.00     0.001 A 
ENDBRANCH  11  14
ENDBRANCH   9  10
BRANCH   8  25
HETATM   25  C13 UNK     1      19.316  -3.602  11.687  1.00  0.00     0.296 C 
HETATM   26  O2  UNK     1      18.345  -3.887  10.961  1.00  0.00    -0.259 OA
BRANCH  25  27
HETATM   27  O1  UNK     1      19.921  -2.371  11.679  1.00  0.00    -0.322 OA
HETATM   28  C16 UNK     1      20.998  -2.173  10.755  1.00  0.00     0.213 C 
ENDBRANCH  25  27
ENDBRANCH   8  25
BRANCH   2  29
HETATM   29  C2  UNK     1      21.746  -9.957  12.160  1.00  0.00    -0.047 C 
HETATM   30  C10 UNK     1      23.099  -9.812  12.876  1.00  0.00     0.015 C 
HETATM   31  C8  UNK     1      20.954 -11.107  12.807  1.00  0.00     0.015 C 
HETATM   32  C9  UNK     1      21.991 -10.282  10.678  1.00  0.00     0.015 C 
ENDBRANCH   2  29
TORSDOF 5
ENDMDL
MODEL 5
REMARK VINA RESULT:      -8.4     23.213     25.190
REMARK  5 active torsions:
REMARK  status: ('A' for Active; 'I' for Inactive)
REMARK    1  A    between atoms: C13_20  and  O1_2 
REMARK    2  A    between atoms: C12_19  and  N1_7 
REMARK       I    between atoms: C14_21  and  N1_7 
REMARK    3  A    between atoms: C1_8  and  C2_9 
REMARK    4  A    between atoms: C11_18  and  C13_20 
REMARK    5  A    between atoms: C14_21  and  C15_22 
ROOT
HETATM    1  S1  UNK     1      15.616  11.846   7.221  1.00  0.00    -0.075 SA
HETATM    2  C1  UNK     1      19.465  13.264   7.497  1.00  0.00    -0.002 C 
HETATM    3  C3  UNK     1      20.082  11.927   7.967  1.00  0.00     0.010 C 
HETATM    4  C4  UNK     1      18.117  13.030   6.778  1.00  0.00     0.052 C 
HETATM    5  C5  UNK     1      19.169  11.202   8.968  1.00  0.00     0.041 C 
HETATM    6  C6  UNK     1      17.278  12.047   7.534  1.00  0.00    -0.008 A 
HETATM    7  C7  UNK     1      17.743  11.193   8.516  1.00  0.00    -0.026 A 
HETATM    8  C11 UNK     1      16.697  10.364   9.022  1.00  0.00     0.080 A 
HETATM    9  C12 UNK     1      15.490  10.614   8.405  1.00  0.00     0.094 A 
ENDROOT
BRANCH   9  10
HETATM   10  N1  UNK     1      14.252  10.060   8.582  1.00  0.00    -0.316 N 
HETATM   11  C14 UNK     1      13.918   8.704   8.474  1.00  0.00     0.262 C 
HETATM   12  O3  UNK     1      14.648   7.758   8.205  1.00  0.00    -0.267 OA
HETATM   13  H17 UNK     1      13.522  10.723   8.831  1.00  0.00     0.169 HD
BRANCH  11  14
HETATM   14  C15 UNK     1      12.484   8.452   8.729  1.00  0.00     0.108 A 
HETATM   15  C17 UNK     1      11.858   7.654   7.857  1.00  0.00     0.037 A 
HETATM   16  C19 UNK     1      10.447   7.348   8.024  1.00  0.00    -0.001 A 
HETATM   17  C20 UNK     1       9.761   7.899   9.102  1.00  0.00     0.089 A 
HETATM   18  C21 UNK     1       9.753   6.519   7.137  1.00  0.00     0.014 A 
HETATM   19  O4  UNK     1      10.425   8.738  10.018  1.00  0.00    -0.274 OA
HETATM   20  C22 UNK     1       8.409   7.646   9.318  1.00  0.00     0.038 A 
HETATM   21  C18 UNK     1      11.775   9.050   9.884  1.00  0.00     0.304 A 
HETATM   22  O5  UNK     1      12.345   9.782  10.685  1.00  0.00    -0.259 OA
HETATM   23  C24 UNK     1       7.725   6.818   8.430  1.00  0.00     0.003 A 
HETATM   24  C23 UNK     1       8.396   6.257   7.342  1.00  0.00     0.001 A 
ENDBRANCH  11  14
ENDBRANCH   9  10
BRANCH   8  25
HETATM   25  C13 UNK     1      16.843   9.373  10.059  1.00  0.00     0.296 C 
HETATM   26  O2  UNK     1      17.623   8.402  10.013  1.00  0.00    -0.259 OA
BRANCH  25  27
HETATM   27  O1  UNK     1      16.016   9.619  11.126  1.00  0.00    -0.322 OA
HETATM   28  C16 UNK     1      15.475   8.485  11.814  1.00  0.00     0.213 C 
ENDBRANCH  25  27
ENDBRANCH   8  25
BRANCH   2  29
HETATM   29  C2  UNK     1      20.432  14.017   6.586  1.00  0.00    -0.047 C 
HETATM   30  C10 UNK     1      20.093  13.727   5.114  1.00  0.00     0.015 C 
HETATM   31  C8  UNK     1      20.315  15.530   6.843  1.00  0.00     0.015 C 
HETATM   32  C9  UNK     1      21.874  13.566   6.870  1.00  0.00     0.015 C 
ENDBRANCH   2  29
TORSDOF 5
ENDMDL
MODEL 6
REMARK VINA RESULT:      -8.3      5.650     11.543
REMARK  5 active torsions:
REMARK  status: ('A' for Active; 'I' for Inactive)
REMARK    1  A    between atoms: C13_20  and  O1_2 
REMARK    2  A    between atoms: C12_19  and  N1_7 
REMARK       I    between atoms: C14_21  and  N1_7 
REMARK    3  A    between atoms: C1_8  and  C2_9 
REMARK    4  A    between atoms: C11_18  and  C13_20 
REMARK    5  A    between atoms: C14_21  and  C15_22 
ROOT
HETATM    1  S1  UNK     1      19.198  -2.398  37.025  1.00  0.00    -0.075 SA
HETATM    2  C1  UNK     1      19.628  -6.486  37.084  1.00  0.00    -0.002 C 
HETATM    3  C3  UNK     1      20.723  -6.536  35.995  1.00  0.00     0.010 C 
HETATM    4  C4  UNK     1      19.556  -5.085  37.734  1.00  0.00     0.052 C 
HETATM    5  C5  UNK     1      20.440  -5.538  34.861  1.00  0.00     0.041 C 
HETATM    6  C6  UNK     1      19.616  -4.014  36.689  1.00  0.00    -0.008 A 
HETATM    7  C7  UNK     1      20.037  -4.197  35.386  1.00  0.00    -0.026 A 
HETATM    8  C11 UNK     1      20.003  -2.973  34.652  1.00  0.00     0.080 A 
HETATM    9  C12 UNK     1      19.566  -1.917  35.423  1.00  0.00     0.094 A 
ENDROOT
BRANCH   9  10
HETATM   10  N1  UNK     1      19.384  -0.594  35.124  1.00  0.00    -0.316 N 
HETATM   11  C14 UNK     1      18.219  -0.002  34.617  1.00  0.00     0.262 C 
HETATM   12  O3  UNK     1      17.151  -0.534  34.345  1.00  0.00    -0.267 OA
HETATM   13  H17 UNK     1      20.189  -0.001  35.312  1.00  0.00     0.169 HD
BRANCH  11  14
HETATM   14  C15 UNK     1      18.370   1.454  34.408  1.00  0.00     0.108 A 
HETATM   15  C17 UNK     1      18.170   1.897  33.162  1.00  0.00     0.037 A 
HETATM   16  C19 UNK     1      18.295   3.313  32.858  1.00  0.00    -0.001 A 
HETATM   17  C20 UNK     1      18.626   4.195  33.881  1.00  0.00     0.089 A 
HETATM   18  C21 UNK     1      18.095   3.820  31.571  1.00  0.00     0.014 A 
HETATM   19  O4  UNK     1      18.835   3.723  35.192  1.00  0.00    -0.274 OA
HETATM   20  C22 UNK     1      18.763   5.563  33.656  1.00  0.00     0.038 A 
HETATM   21  C18 UNK     1      18.723   2.373  35.514  1.00  0.00     0.304 A 
HETATM   22  O5  UNK     1      18.908   1.971  36.657  1.00  0.00    -0.259 OA
HETATM   23  C24 UNK     1      18.561   6.059  32.370  1.00  0.00     0.003 A 
HETATM   24  C23 UNK     1      18.228   5.190  31.330  1.00  0.00     0.001 A 
ENDBRANCH  11  14
ENDBRANCH   9  10
BRANCH   8  25
HETATM   25  C13 UNK     1      20.368  -2.819  33.266  1.00  0.00     0.296 C 
HETATM   26  O2  UNK     1      21.380  -3.314  32.736  1.00  0.00    -0.259 OA
BRANCH  25  27
HETATM   27  O1  UNK     1      19.461  -2.053  32.577  1.00  0.00    -0.322 OA
HETATM   28  C16 UNK     1      19.951  -1.292  31.467  1.00  0.00     0.213 C 
ENDBRANCH  25  27
ENDBRANCH   8  25
BRANCH   2  29
HETATM   29  C2  UNK     1      19.871  -7.555  38.147  1.00  0.00    -0.047 C 
HETATM   30  C10 UNK     1      19.891  -6.907  39.542  1.00  0.00     0.015 C 
HETATM   31  C8  UNK     1      18.747  -8.605  38.094  1.00  0.00     0.015 C 
HETATM   32  C9  UNK     1      21.221  -8.246  37.892  1.00  0.00     0.015 C 
ENDBRANCH   2  29
TORSDOF 5
ENDMDL
MODEL 7
REMARK VINA RESULT:      -8.2      5.198      7.716
REMARK  5 active torsions:
REMARK  status: ('A' for Active; 'I' for Inactive)
REMARK    1  A    between atoms: C13_20  and  O1_2 
REMARK    2  A    between atoms: C12_19  and  N1_7 
REMARK       I    between atoms: C14_21  and  N1_7 
REMARK    3  A    between atoms: C1_8  and  C2_9 
REMARK    4  A    between atoms: C11_18  and  C13_20 
REMARK    5  A    between atoms: C14_21  and  C15_22 
ROOT
HETATM    1  S1  UNK     1      18.547   1.211  35.548  1.00  0.00    -0.075 SA
HETATM    2  C1  UNK     1      18.466   4.480  33.057  1.00  0.00    -0.002 C 
HETATM    3  C3  UNK     1      17.903   3.720  31.834  1.00  0.00     0.010 C 
HETATM    4  C4  UNK     1      18.159   3.723  34.369  1.00  0.00     0.052 C 
HETATM    5  C5  UNK     1      18.532   2.325  31.695  1.00  0.00     0.041 C 
HETATM    6  C6  UNK     1      18.431   2.259  34.212  1.00  0.00    -0.008 A 
HETATM    7  C7  UNK     1      18.580   1.603  33.005  1.00  0.00    -0.026 A 
HETATM    8  C11 UNK     1      18.804   0.206  33.197  1.00  0.00     0.080 A 
HETATM    9  C12 UNK     1      18.809  -0.141  34.530  1.00  0.00     0.094 A 
ENDROOT
BRANCH   9  10
HETATM   10  N1  UNK     1      18.986  -1.349  35.150  1.00  0.00    -0.316 N 
HETATM   11  C14 UNK     1      20.125  -2.162  35.090  1.00  0.00     0.262 C 
HETATM   12  O3  UNK     1      21.172  -1.963  34.487  1.00  0.00    -0.267 OA
HETATM   13  H17 UNK     1      18.198  -1.655  35.715  1.00  0.00     0.169 HD
BRANCH  11  14
HETATM   14  C15 UNK     1      19.976  -3.402  35.880  1.00  0.00     0.108 A 
HETATM   15  C17 UNK     1      20.035  -4.550  35.196  1.00  0.00     0.037 A 
HETATM   16  C19 UNK     1      19.899  -5.823  35.886  1.00  0.00    -0.001 A 
HETATM   17  C20 UNK     1      19.707  -5.826  37.264  1.00  0.00     0.089 A 
HETATM   18  C21 UNK     1      19.955  -7.046  35.212  1.00  0.00     0.014 A 
HETATM   19  O4  UNK     1      19.646  -4.614  37.979  1.00  0.00    -0.274 OA
HETATM   20  C22 UNK     1      19.568  -7.010  37.984  1.00  0.00     0.038 A 
HETATM   21  C18 UNK     1      19.773  -3.379  37.347  1.00  0.00     0.304 A 
HETATM   22  O5  UNK     1      19.717  -2.330  37.977  1.00  0.00    -0.259 OA
HETATM   23  C24 UNK     1      19.626  -8.225  37.304  1.00  0.00     0.003 A 
HETATM   24  C23 UNK     1      19.818  -8.243  35.921  1.00  0.00     0.001 A 
ENDBRANCH  11  14
ENDBRANCH   9  10
BRANCH   8  25
HETATM   25  C13 UNK     1      19.009  -0.760  32.146  1.00  0.00     0.296 C 
HETATM   26  O2  UNK     1      18.189  -1.635  31.811  1.00  0.00    -0.259 OA
BRANCH  25  27
HETATM   27  O1  UNK     1      20.232  -0.609  31.540  1.00  0.00    -0.322 OA
HETATM   28  C16 UNK     1      20.253  -0.539  30.110  1.00  0.00     0.213 C 
ENDBRANCH  25  27
ENDBRANCH   8  25
BRANCH   2  29
HETATM   29  C2  UNK     1      17.908   5.900  33.117  1.00  0.00    -0.047 C 
HETATM   30  C10 UNK     1      17.376   6.190  34.530  1.00  0.00     0.015 C 
HETATM   31  C8  UNK     1      19.020   6.909  32.779  1.00  0.00     0.015 C 
HETATM   32  C9  UNK     1      16.762   6.053  32.103  1.00  0.00     0.015 C 
ENDBRANCH   2  29
TORSDOF 5
ENDMDL
MODEL 8
REMARK VINA RESULT:      -8.2     15.110     18.453
REMARK  5 active torsions:
REMARK  status: ('A' for Active; 'I' for Inactive)
REMARK    1  A    between atoms: C13_20  and  O1_2 
REMARK    2  A    between atoms: C12_19  and  N1_7 
REMARK       I    between atoms: C14_21  and  N1_7 
REMARK    3  A    between atoms: C1_8  and  C2_9 
REMARK    4  A    between atoms: C11_18  and  C13_20 
REMARK    5  A    between atoms: C14_21  and  C15_22 
ROOT
HETATM    1  S1  UNK     1      29.905  -7.582  35.614  1.00  0.00    -0.075 SA
HETATM    2  C1  UNK     1      33.679  -6.770  34.202  1.00  0.00    -0.002 C 
HETATM    3  C3  UNK     1      34.150  -6.013  35.463  1.00  0.00     0.010 C 
HETATM    4  C4  UNK     1      32.484  -7.695  34.524  1.00  0.00     0.052 C 
HETATM    5  C5  UNK     1      33.039  -5.116  36.034  1.00  0.00     0.041 C 
HETATM    6  C6  UNK     1      31.483  -6.987  35.384  1.00  0.00    -0.008 A 
HETATM    7  C7  UNK     1      31.725  -5.828  36.095  1.00  0.00    -0.026 A 
HETATM    8  C11 UNK     1      30.574  -5.423  36.837  1.00  0.00     0.080 A 
HETATM    9  C12 UNK     1      29.515  -6.288  36.666  1.00  0.00     0.094 A 
ENDROOT
BRANCH   9  10
HETATM   10  N1  UNK     1      28.247  -6.278  37.180  1.00  0.00    -0.316 N 
HETATM   11  C14 UNK     1      27.760  -7.075  38.225  1.00  0.00     0.262 C 
HETATM   12  O3  UNK     1      28.355  -7.924  38.876  1.00  0.00    -0.267 OA
HETATM   13  H17 UNK     1      27.620  -5.603  36.750  1.00  0.00     0.169 HD
BRANCH  11  14
HETATM   14  C15 UNK     1      26.339  -6.805  38.527  1.00  0.00     0.108 A 
HETATM   15  C17 UNK     1      25.526  -7.867  38.551  1.00  0.00     0.037 A 
HETATM   16  C19 UNK     1      24.110  -7.701  38.839  1.00  0.00    -0.001 A 
HETATM   17  C20 UNK     1      23.618  -6.424  39.087  1.00  0.00     0.089 A 
HETATM   18  C21 UNK     1      23.225  -8.783  38.875  1.00  0.00     0.014 A 
HETATM   19  O4  UNK     1      24.479  -5.309  39.061  1.00  0.00    -0.274 OA
HETATM   20  C22 UNK     1      22.273  -6.197  39.368  1.00  0.00     0.038 A 
HETATM   21  C18 UNK     1      25.838  -5.435  38.788  1.00  0.00     0.304 A 
HETATM   22  O5  UNK     1      26.579  -4.459  38.766  1.00  0.00    -0.259 OA
HETATM   23  C24 UNK     1      21.398  -7.281  39.402  1.00  0.00     0.003 A 
HETATM   24  C23 UNK     1      21.873  -8.570  39.155  1.00  0.00     0.001 A 
ENDBRANCH  11  14
ENDBRANCH   9  10
BRANCH   8  25
HETATM   25  C13 UNK     1      30.488  -4.252  37.674  1.00  0.00     0.296 C 
HETATM   26  O2  UNK     1      30.674  -3.084  37.286  1.00  0.00    -0.259 OA
BRANCH  25  27
HETATM   27  O1  UNK     1      30.170  -4.569  38.971  1.00  0.00    -0.322 OA
HETATM   28  C16 UNK     1      29.531  -3.556  39.757  1.00  0.00     0.213 C 
ENDBRANCH  25  27
ENDBRANCH   8  25
BRANCH   2  29
HETATM   29  C2  UNK     1      34.825  -7.572  33.591  1.00  0.00    -0.047 C 
HETATM   30  C10 UNK     1      34.432  -9.056  33.502  1.00  0.00     0.015 C 
HETATM   31  C8  UNK     1      35.134  -7.046  32.179  1.00  0.00     0.015 C 
HETATM   32  C9  UNK     1      36.082  -7.435  34.467  1.00  0.00     0.015 C 
ENDBRANCH   2  29
TORSDOF 5
ENDMDL
MODEL 9
REMARK VINA RESULT:      -8.1     16.126     18.022
REMARK  5 active torsions:
REMARK  status: ('A' for Active; 'I' for Inactive)
REMARK    1  A    between atoms: C13_20  and  O1_2 
REMARK    2  A    between atoms: C12_19  and  N1_7 
REMARK       I    between atoms: C14_21  and  N1_7 
REMARK    3  A    between atoms: C1_8  and  C2_9 
REMARK    4  A    between atoms: C11_18  and  C13_20 
REMARK    5  A    between atoms: C14_21  and  C15_22 
ROOT
HETATM    1  S1  UNK     1      29.424  -7.500  35.480  1.00  0.00    -0.075 SA
HETATM    2  C1  UNK     1      33.024  -5.535  35.754  1.00  0.00    -0.002 C 
HETATM    3  C3  UNK     1      33.042  -5.472  37.298  1.00  0.00     0.010 C 
HETATM    4  C4  UNK     1      32.087  -6.658  35.255  1.00  0.00     0.052 C 
HETATM    5  C5  UNK     1      31.648  -5.169  37.869  1.00  0.00     0.041 C 
HETATM    6  C6  UNK     1      30.797  -6.647  36.015  1.00  0.00    -0.008 A 
HETATM    7  C7  UNK     1      30.586  -5.996  37.215  1.00  0.00    -0.026 A 
HETATM    8  C11 UNK     1      29.257  -6.203  37.693  1.00  0.00     0.080 A 
HETATM    9  C12 UNK     1      28.519  -7.003  36.847  1.00  0.00     0.094 A 
ENDROOT
BRANCH   9  10
HETATM   10  N1  UNK     1      27.226  -7.444  36.919  1.00  0.00    -0.316 N 
HETATM   11  C14 UNK     1      26.783  -8.655  37.467  1.00  0.00     0.262 C 
HETATM   12  O3  UNK     1      27.447  -9.545  37.983  1.00  0.00    -0.267 OA
HETATM   13  H17 UNK     1      26.536  -6.800  36.540  1.00  0.00     0.169 HD
BRANCH  11  14
HETATM   14  C15 UNK     1      25.316  -8.813  37.378  1.00  0.00     0.108 A 
HETATM   15  C17 UNK     1      24.874  -9.805  36.598  1.00  0.00     0.037 A 
HETATM   16  C19 UNK     1      23.446 -10.039  36.447  1.00  0.00    -0.001 A 
HETATM   17  C20 UNK     1      22.553  -9.216  37.126  1.00  0.00     0.089 A 
HETATM   18  C21 UNK     1      22.940 -11.064  35.643  1.00  0.00     0.014 A 
HETATM   19  O4  UNK     1      23.025  -8.172  37.947  1.00  0.00    -0.274 OA
HETATM   20  C22 UNK     1      21.175  -9.386  37.023  1.00  0.00     0.038 A 
HETATM   21  C18 UNK     1      24.385  -7.923  38.111  1.00  0.00     0.304 A 
HETATM   22  O5  UNK     1      24.786  -7.012  38.826  1.00  0.00    -0.259 OA
HETATM   23  C24 UNK     1      20.678 -10.410  36.220  1.00  0.00     0.003 A 
HETATM   24  C23 UNK     1      21.559 -11.247  35.531  1.00  0.00     0.001 A 
ENDBRANCH  11  14
ENDBRANCH   9  10
BRANCH   8  25
HETATM   25  C13 UNK     1      28.710  -5.655  38.909  1.00  0.00     0.296 C 
HETATM   26  O2  UNK     1      28.359  -6.324  39.899  1.00  0.00    -0.259 OA
BRANCH  25  27
HETATM   27  O1  UNK     1      28.618  -4.286  38.860  1.00  0.00    -0.322 OA
HETATM   28  C16 UNK     1      29.393  -3.540  39.806  1.00  0.00     0.213 C 
ENDBRANCH  25  27
ENDBRANCH   8  25
BRANCH   2  29
HETATM   29  C2  UNK     1      34.434  -5.732  35.203  1.00  0.00    -0.047 C 
HETATM   30  C10 UNK     1      34.810  -4.546  34.299  1.00  0.00     0.015 C 
HETATM   31  C8  UNK     1      35.439  -5.819  36.365  1.00  0.00     0.015 C 
HETATM   32  C9  UNK     1      34.496  -7.031  34.382  1.00  0.00     0.015 C 
ENDBRANCH   2  29
TORSDOF 5
ENDMDL
MODEL 10
REMARK VINA RESULT:      -8.1     18.141     22.499
REMARK  5 active torsions:
REMARK  status: ('A' for Active; 'I' for Inactive)
REMARK    1  A    between atoms: C13_20  and  O1_2 
REMARK    2  A    between atoms: C12_19  and  N1_7 
REMARK       I    between atoms: C14_21  and  N1_7 
REMARK    3  A    between atoms: C1_8  and  C2_9 
REMARK    4  A    between atoms: C11_18  and  C13_20 
REMARK    5  A    between atoms: C14_21  and  C15_22 
ROOT
HETATM    1  S1  UNK     1      20.831  -6.488  14.458  1.00  0.00    -0.075 SA
HETATM    2  C1  UNK     1      23.007  -4.012  16.915  1.00  0.00    -0.002 C 
HETATM    3  C3  UNK     1      21.785  -3.257  17.484  1.00  0.00     0.010 C 
HETATM    4  C4  UNK     1      22.592  -5.384  16.339  1.00  0.00     0.052 C 
HETATM    5  C5  UNK     1      20.733  -2.979  16.398  1.00  0.00     0.041 C 
HETATM    6  C6  UNK     1      21.345  -5.259  15.518  1.00  0.00    -0.008 A 
HETATM    7  C7  UNK     1      20.477  -4.184  15.550  1.00  0.00    -0.026 A 
HETATM    8  C11 UNK     1      19.371  -4.383  14.670  1.00  0.00     0.080 A 
HETATM    9  C12 UNK     1      19.438  -5.594  14.016  1.00  0.00     0.094 A 
ENDROOT
BRANCH   9  10
HETATM   10  N1  UNK     1      18.603  -6.175  13.100  1.00  0.00    -0.316 N 
HETATM   11  C14 UNK     1      18.896  -6.457  11.760  1.00  0.00     0.262 C 
HETATM   12  O3  UNK     1      19.935  -6.247  11.146  1.00  0.00    -0.267 OA
HETATM   13  H17 UNK     1      17.688  -6.431  13.463  1.00  0.00     0.169 HD
BRANCH  11  14
HETATM   14  C15 UNK     1      17.761  -7.089  11.054  1.00  0.00     0.108 A 
HETATM   15  C17 UNK     1      17.515  -6.648   9.815  1.00  0.00     0.037 A 
HETATM   16  C19 UNK     1      16.419  -7.209   9.041  1.00  0.00    -0.001 A 
HETATM   17  C20 UNK     1      15.635  -8.207   9.609  1.00  0.00     0.089 A 
HETATM   18  C21 UNK     1      16.126  -6.779   7.744  1.00  0.00     0.014 A 
HETATM   19  O4  UNK     1      15.899  -8.668  10.914  1.00  0.00    -0.274 OA
HETATM   20  C22 UNK     1      14.570  -8.784   8.922  1.00  0.00     0.038 A 
HETATM   21  C18 UNK     1      16.940  -8.151  11.680  1.00  0.00     0.304 A 
HETATM   22  O5  UNK     1      17.162  -8.557  12.815  1.00  0.00    -0.259 OA
HETATM   23  C24 UNK     1      14.285  -8.350   7.629  1.00  0.00     0.003 A 
HETATM   24  C23 UNK     1      15.061  -7.349   7.042  1.00  0.00     0.001 A 
ENDBRANCH  11  14
ENDBRANCH   9  10
BRANCH   8  25
HETATM   25  C13 UNK     1      18.292  -3.450  14.458  1.00  0.00     0.296 C 
HETATM   26  O2  UNK     1      17.474  -3.097  15.328  1.00  0.00    -0.259 OA
BRANCH  25  27
HETATM   27  O1  UNK     1      18.263  -2.981  13.169  1.00  0.00    -0.322 OA
HETATM   28  C16 UNK     1      18.990  -1.779  12.890  1.00  0.00     0.213 C 
ENDBRANCH  25  27
ENDBRANCH   8  25
BRANCH   2  29
HETATM   29  C2  UNK     1      24.083  -4.185  17.983  1.00  0.00    -0.047 C 
HETATM   30  C10 UNK     1      23.642  -5.253  18.998  1.00  0.00     0.015 C 
HETATM   31  C8  UNK     1      25.402  -4.629  17.325  1.00  0.00     0.015 C 
HETATM   32  C9  UNK     1      24.308  -2.853  18.718  1.00  0.00     0.015 C 
ENDBRANCH   2  29
TORSDOF 5
ENDMDL
