MODEL 1
REMARK VINA RESULT:      -8.8      0.000      0.000
REMARK  6 active torsions:
REMARK  status: ('A' for Active; 'I' for Inactive)
REMARK    1  A    between atoms: C3_11  and  S1_1 
REMARK    2  A    between atoms: O1_2  and  S1_1 
REMARK    3  A    between atoms: C2_10  and  O1_2 
REMARK    4  A    between atoms: C15_23  and  N1_7 
REMARK    5  A    between atoms: C1_9  and  C7_15 
REMARK    6  A    between atoms: C10_18  and  C4_12 
ROOT
HETATM    1  N2  UNK     1      35.751  -5.530  36.358  1.00  0.00    -0.191 NA
HETATM    2  C7  UNK     1      33.104  -6.374  34.362  1.00  0.00     0.034 C 
HETATM    3  C10 UNK     1      33.301  -5.846  35.572  1.00  0.00     0.055 C 
HETATM    4  C21 UNK     1      34.655  -5.672  36.005  1.00  0.00     0.100 C 
ENDROOT
BRANCH   3   5
HETATM    5  C4  UNK     1      32.226  -5.443  36.502  1.00  0.00    -0.015 A 
HETATM    6  C13 UNK     1      31.772  -4.137  36.481  1.00  0.00     0.015 A 
HETATM    7  C16 UNK     1      30.756  -3.756  37.358  1.00  0.00     0.037 A 
HETATM    8  C15 UNK     1      30.212  -4.689  38.242  1.00  0.00     0.102 A 
HETATM    9  C17 UNK     1      30.684  -6.000  38.249  1.00  0.00     0.037 A 
HETATM   10  C14 UNK     1      31.700  -6.381  37.371  1.00  0.00     0.015 A 
BRANCH   8  11
HETATM   11  N1  UNK     1      29.177  -4.301  39.135  1.00  0.00    -0.116 N 
HETATM   12  O4  UNK     1      28.009  -4.705  38.923  1.00  0.00    -0.532 OA
HETATM   13  O5  UNK     1      29.461  -3.564  40.110  1.00  0.00    -0.532 OA
ENDBRANCH   8  11
ENDBRANCH   3   5
BRANCH   2  14
HETATM   14  C1  UNK     1      31.787  -6.596  33.786  1.00  0.00    -0.035 A 
HETATM   15  C5  UNK     1      31.068  -5.525  33.254  1.00  0.00     0.014 A 
HETATM   16  C8  UNK     1      29.806  -5.739  32.702  1.00  0.00     0.039 A 
HETATM   17  C2  UNK     1      29.261  -7.024  32.683  1.00  0.00     0.089 A 
HETATM   18  C9  UNK     1      29.980  -8.094  33.217  1.00  0.00     0.039 A 
HETATM   19  C6  UNK     1      31.243  -7.880  33.768  1.00  0.00     0.014 A 
BRANCH  17  20
HETATM   20  O1  UNK     1      28.029  -7.231  32.145  1.00  0.00    -0.229 OA
BRANCH  20  21
HETATM   21  S1  UNK     1      27.641  -6.841  30.601  1.00  0.00     0.303 S 
HETATM   22  O2  UNK     1      28.227  -5.556  30.271  1.00  0.00    -0.193 OA
HETATM   23  O3  UNK     1      26.227  -7.108  30.410  1.00  0.00    -0.193 OA
BRANCH  21  24
HETATM   24  C3  UNK     1      28.513  -8.025  29.620  1.00  0.00     0.086 A 
HETATM   25  C11 UNK     1      29.819  -7.761  29.242  1.00  0.00     0.026 A 
HETATM   26  C18 UNK     1      30.506  -8.695  28.466  1.00  0.00     0.002 A 
HETATM   27  C20 UNK     1      29.878  -9.878  28.081  1.00  0.00     0.000 A 
HETATM   28  C19 UNK     1      28.561 -10.129  28.471  1.00  0.00     0.002 A 
HETATM   29  C12 UNK     1      27.874  -9.194  29.245  1.00  0.00     0.026 A 
ENDBRANCH  21  24
ENDBRANCH  20  21
ENDBRANCH  17  20
ENDBRANCH   2  14
TORSDOF 6
ENDMDL
MODEL 2
REMARK VINA RESULT:      -8.6      4.025      8.347
REMARK  6 active torsions:
REMARK  status: ('A' for Active; 'I' for Inactive)
REMARK    1  A    between atoms: C3_11  and  S1_1 
REMARK    2  A    between atoms: O1_2  and  S1_1 
REMARK    3  A    between atoms: C2_10  and  O1_2 
REMARK    4  A    between atoms: C15_23  and  N1_7 
REMARK    5  A    between atoms: C1_9  and  C7_15 
REMARK    6  A    between atoms: C10_18  and  C4_12 
ROOT
HETATM    1  N2  UNK     1      30.039  -2.686  29.708  1.00  0.00    -0.191 NA
HETATM    2  C7  UNK     1      30.103  -4.766  32.424  1.00  0.00     0.034 C 
HETATM    3  C10 UNK     1      30.052  -4.876  31.094  1.00  0.00     0.055 C 
HETATM    4  C21 UNK     1      30.045  -3.666  30.330  1.00  0.00     0.100 C 
ENDROOT
BRANCH   3   5
HETATM    5  C4  UNK     1      29.986  -6.154  30.355  1.00  0.00    -0.015 A 
HETATM    6  C13 UNK     1      28.779  -6.823  30.272  1.00  0.00     0.015 A 
HETATM    7  C16 UNK     1      28.715  -8.029  29.574  1.00  0.00     0.037 A 
HETATM    8  C15 UNK     1      29.862  -8.545  28.970  1.00  0.00     0.102 A 
HETATM    9  C17 UNK     1      31.071  -7.856  29.064  1.00  0.00     0.037 A 
HETATM   10  C14 UNK     1      31.133  -6.650  29.763  1.00  0.00     0.015 A 
BRANCH   8  11
HETATM   11  N1  UNK     1      29.798  -9.773  28.258  1.00  0.00    -0.116 N 
HETATM   12  O4  UNK     1      28.870 -10.577  28.515  1.00  0.00    -0.532 OA
HETATM   13  O5  UNK     1      30.672 -10.020  27.392  1.00  0.00    -0.532 OA
ENDBRANCH   8  11
ENDBRANCH   3   5
BRANCH   2  14
HETATM   14  C1  UNK     1      30.129  -5.907  33.325  1.00  0.00    -0.035 A 
HETATM   15  C5  UNK     1      28.945  -6.372  33.897  1.00  0.00     0.014 A 
HETATM   16  C8  UNK     1      28.972  -7.467  34.761  1.00  0.00     0.039 A 
HETATM   17  C2  UNK     1      30.182  -8.096  35.053  1.00  0.00     0.089 A 
HETATM   18  C9  UNK     1      31.367  -7.630  34.481  1.00  0.00     0.039 A 
HETATM   19  C6  UNK     1      31.340  -6.535  33.617  1.00  0.00     0.014 A 
BRANCH  17  20
HETATM   20  O1  UNK     1      30.207  -9.164  35.896  1.00  0.00    -0.229 OA
BRANCH  20  21
HETATM   21  S1  UNK     1      30.794  -9.093  37.425  1.00  0.00     0.303 S 
HETATM   22  O2  UNK     1      32.237  -8.959  37.378  1.00  0.00    -0.193 OA
HETATM   23  O3  UNK     1      30.147 -10.133  38.203  1.00  0.00    -0.193 OA
BRANCH  21  24
HETATM   24  C3  UNK     1      30.196  -7.552  38.051  1.00  0.00     0.086 A 
HETATM   25  C11 UNK     1      31.032  -6.448  38.044  1.00  0.00     0.026 A 
HETATM   26  C18 UNK     1      30.560  -5.232  38.539  1.00  0.00     0.002 A 
HETATM   27  C20 UNK     1      29.259  -5.138  39.033  1.00  0.00     0.000 A 
HETATM   28  C19 UNK     1      28.429  -6.261  39.032  1.00  0.00     0.002 A 
HETATM   29  C12 UNK     1      28.902  -7.476  38.538  1.00  0.00     0.026 A 
ENDBRANCH  21  24
ENDBRANCH  20  21
ENDBRANCH  17  20
ENDBRANCH   2  14
TORSDOF 6
ENDMDL
MODEL 3
REMARK VINA RESULT:      -8.5     10.186     12.165
REMARK  6 active torsions:
REMARK  status: ('A' for Active; 'I' for Inactive)
REMARK    1  A    between atoms: C3_11  and  S1_1 
REMARK    2  A    between atoms: O1_2  and  S1_1 
REMARK    3  A    between atoms: C2_10  and  O1_2 
REMARK    4  A    between atoms: C15_23  and  N1_7 
REMARK    5  A    between atoms: C1_9  and  C7_15 
REMARK    6  A    between atoms: C10_18  and  C4_12 
ROOT
HETATM    1  N2  UNK     1      19.341 -11.940  38.681  1.00  0.00    -0.191 NA
HETATM    2  C7  UNK     1      19.078  -8.883  37.171  1.00  0.00     0.034 C 
HETATM    3  C10 UNK     1      20.009  -9.590  37.815  1.00  0.00     0.055 C 
HETATM    4  C21 UNK     1      19.639 -10.888  38.293  1.00  0.00     0.100 C 
ENDROOT
BRANCH   3   5
HETATM    5  C4  UNK     1      21.386  -9.127  38.085  1.00  0.00    -0.015 A 
HETATM    6  C13 UNK     1      22.368  -9.346  37.137  1.00  0.00     0.015 A 
HETATM    7  C16 UNK     1      23.668  -8.907  37.390  1.00  0.00     0.037 A 
HETATM    8  C15 UNK     1      23.962  -8.257  38.588  1.00  0.00     0.102 A 
HETATM    9  C17 UNK     1      22.959  -8.045  39.533  1.00  0.00     0.037 A 
HETATM   10  C14 UNK     1      21.659  -8.484  39.278  1.00  0.00     0.015 A 
BRANCH   8  11
HETATM   11  N1  UNK     1      25.286  -7.810  38.846  1.00  0.00    -0.116 N 
HETATM   12  O4  UNK     1      26.140  -8.637  39.248  1.00  0.00    -0.532 OA
HETATM   13  O5  UNK     1      25.565  -6.600  38.666  1.00  0.00    -0.532 OA
ENDBRANCH   8  11
ENDBRANCH   3   5
BRANCH   2  14
HETATM   14  C1  UNK     1      19.315  -7.557  36.620  1.00  0.00    -0.035 A 
HETATM   15  C5  UNK     1      19.892  -7.419  35.357  1.00  0.00     0.014 A 
HETATM   16  C8  UNK     1      20.118  -6.149  34.829  1.00  0.00     0.039 A 
HETATM   17  C2  UNK     1      19.767  -5.015  35.564  1.00  0.00     0.089 A 
HETATM   18  C9  UNK     1      19.191  -5.154  36.827  1.00  0.00     0.039 A 
HETATM   19  C6  UNK     1      18.964  -6.425  37.355  1.00  0.00     0.014 A 
BRANCH  17  20
HETATM   20  O1  UNK     1      19.989  -3.776  35.048  1.00  0.00    -0.229 OA
BRANCH  20  21
HETATM   21  S1  UNK     1      20.441  -2.488  35.956  1.00  0.00     0.303 S 
HETATM   22  O2  UNK     1      21.469  -1.745  35.255  1.00  0.00    -0.193 OA
HETATM   23  O3  UNK     1      20.624  -2.944  37.322  1.00  0.00    -0.193 OA
BRANCH  21  24
HETATM   24  C3  UNK     1      19.019  -1.439  35.963  1.00  0.00     0.086 A 
HETATM   25  C11 UNK     1      18.357  -1.204  37.157  1.00  0.00     0.026 A 
HETATM   26  C18 UNK     1      17.234  -0.376  37.162  1.00  0.00     0.002 A 
HETATM   27  C20 UNK     1      16.790   0.204  35.974  1.00  0.00     0.000 A 
HETATM   28  C19 UNK     1      17.469  -0.043  34.780  1.00  0.00     0.002 A 
HETATM   29  C12 UNK     1      18.591  -0.871  34.776  1.00  0.00     0.026 A 
ENDBRANCH  21  24
ENDBRANCH  20  21
ENDBRANCH  17  20
ENDBRANCH   2  14
TORSDOF 6
ENDMDL
MODEL 4
REMARK VINA RESULT:      -8.5      3.202      4.488
REMARK  6 active torsions:
REMARK  status: ('A' for Active; 'I' for Inactive)
REMARK    1  A    between atoms: C3_11  and  S1_1 
REMARK    2  A    between atoms: O1_2  and  S1_1 
REMARK    3  A    between atoms: C2_10  and  O1_2 
REMARK    4  A    between atoms: C15_23  and  N1_7 
REMARK    5  A    between atoms: C1_9  and  C7_15 
REMARK    6  A    between atoms: C10_18  and  C4_12 
ROOT
HETATM    1  N2  UNK     1      29.425  -3.572  40.101  1.00  0.00    -0.191 NA
HETATM    2  C7  UNK     1      28.786  -6.080  37.864  1.00  0.00     0.034 C 
HETATM    3  C10 UNK     1      29.804  -5.277  38.186  1.00  0.00     0.055 C 
HETATM    4  C21 UNK     1      29.593  -4.336  39.244  1.00  0.00     0.100 C 
ENDROOT
BRANCH   3   5
HETATM    5  C4  UNK     1      31.123  -5.277  37.520  1.00  0.00    -0.015 A 
HETATM    6  C13 UNK     1      31.278  -4.586  36.333  1.00  0.00     0.015 A 
HETATM    7  C16 UNK     1      32.523  -4.584  35.704  1.00  0.00     0.037 A 
HETATM    8  C15 UNK     1      33.593  -5.276  36.275  1.00  0.00     0.102 A 
HETATM    9  C17 UNK     1      33.417  -5.967  37.473  1.00  0.00     0.037 A 
HETATM   10  C14 UNK     1      32.170  -5.968  38.101  1.00  0.00     0.015 A 
BRANCH   8  11
HETATM   11  N1  UNK     1      34.861  -5.274  35.635  1.00  0.00    -0.116 N 
HETATM   12  O4  UNK     1      34.974  -4.730  34.511  1.00  0.00    -0.532 OA
HETATM   13  O5  UNK     1      35.833  -5.818  36.213  1.00  0.00    -0.532 OA
ENDBRANCH   8  11
ENDBRANCH   3   5
BRANCH   2  14
HETATM   14  C1  UNK     1      28.859  -7.091  36.821  1.00  0.00    -0.035 A 
HETATM   15  C5  UNK     1      28.297  -6.844  35.569  1.00  0.00     0.014 A 
HETATM   16  C8  UNK     1      28.368  -7.814  34.570  1.00  0.00     0.039 A 
HETATM   17  C2  UNK     1      29.000  -9.032  34.823  1.00  0.00     0.089 A 
HETATM   18  C9  UNK     1      29.562  -9.279  36.076  1.00  0.00     0.039 A 
HETATM   19  C6  UNK     1      29.492  -8.308  37.075  1.00  0.00     0.014 A 
BRANCH  17  20
HETATM   20  O1  UNK     1      29.068  -9.978  33.847  1.00  0.00    -0.229 OA
BRANCH  20  21
HETATM   21  S1  UNK     1      30.047  -9.855  32.538  1.00  0.00     0.303 S 
HETATM   22  O2  UNK     1      29.940 -11.064  31.745  1.00  0.00    -0.193 OA
HETATM   23  O3  UNK     1      31.331  -9.343  32.983  1.00  0.00    -0.193 OA
BRANCH  21  24
HETATM   24  C3  UNK     1      29.310  -8.581  31.560  1.00  0.00     0.086 A 
HETATM   25  C11 UNK     1      30.008  -7.404  31.343  1.00  0.00     0.026 A 
HETATM   26  C18 UNK     1      29.425  -6.398  30.573  1.00  0.00     0.002 A 
HETATM   27  C20 UNK     1      28.153  -6.583  30.030  1.00  0.00     0.000 A 
HETATM   28  C19 UNK     1      27.464  -7.775  30.259  1.00  0.00     0.002 A 
HETATM   29  C12 UNK     1      28.046  -8.780  31.030  1.00  0.00     0.026 A 
ENDBRANCH  21  24
ENDBRANCH  20  21
ENDBRANCH  17  20
ENDBRANCH   2  14
TORSDOF 6
ENDMDL
MODEL 5
REMARK VINA RESULT:      -8.4      4.120      8.799
REMARK  6 active torsions:
REMARK  status: ('A' for Active; 'I' for Inactive)
REMARK    1  A    between atoms: C3_11  and  S1_1 
REMARK    2  A    between atoms: O1_2  and  S1_1 
REMARK    3  A    between atoms: C2_10  and  O1_2 
REMARK    4  A    between atoms: C15_23  and  N1_7 
REMARK    5  A    between atoms: C1_9  and  C7_15 
REMARK    6  A    between atoms: C10_18  and  C4_12 
ROOT
HETATM    1  N2  UNK     1      25.054  -6.273  30.257  1.00  0.00    -0.191 NA
HETATM    2  C7  UNK     1      27.617  -6.271  32.523  1.00  0.00     0.034 C 
HETATM    3  C10 UNK     1      27.363  -6.786  31.317  1.00  0.00     0.055 C 
HETATM    4  C21 UNK     1      26.087  -6.502  30.733  1.00  0.00     0.100 C 
ENDROOT
BRANCH   3   5
HETATM    5  C4  UNK     1      28.294  -7.639  30.550  1.00  0.00    -0.015 A 
HETATM    6  C13 UNK     1      29.201  -7.044  29.693  1.00  0.00     0.015 A 
HETATM    7  C16 UNK     1      30.082  -7.848  28.970  1.00  0.00     0.037 A 
HETATM    8  C15 UNK     1      30.040  -9.235  29.117  1.00  0.00     0.102 A 
HETATM    9  C17 UNK     1      29.118  -9.817  29.986  1.00  0.00     0.037 A 
HETATM   10  C14 UNK     1      28.237  -9.011  30.709  1.00  0.00     0.015 A 
BRANCH   8  11
HETATM   11  N1  UNK     1      30.937 -10.054  28.380  1.00  0.00    -0.116 N 
HETATM   12  O4  UNK     1      30.838 -10.093  27.130  1.00  0.00    -0.532 OA
HETATM   13  O5  UNK     1      31.803 -10.717  29.000  1.00  0.00    -0.532 OA
ENDBRANCH   8  11
ENDBRANCH   3   5
BRANCH   2  14
HETATM   14  C1  UNK     1      28.872  -6.465  33.231  1.00  0.00    -0.035 A 
HETATM   15  C5  UNK     1      29.013  -7.526  34.125  1.00  0.00     0.014 A 
HETATM   16  C8  UNK     1      30.217  -7.711  34.803  1.00  0.00     0.039 A 
HETATM   17  C2  UNK     1      31.281  -6.834  34.589  1.00  0.00     0.089 A 
HETATM   18  C9  UNK     1      31.139  -5.771  33.696  1.00  0.00     0.039 A 
HETATM   19  C6  UNK     1      29.935  -5.587  33.017  1.00  0.00     0.014 A 
BRANCH  17  20
HETATM   20  O1  UNK     1      32.455  -7.015  35.252  1.00  0.00    -0.229 OA
BRANCH  20  21
HETATM   21  S1  UNK     1      32.965  -6.040  36.467  1.00  0.00     0.303 S 
HETATM   22  O2  UNK     1      33.447  -4.792  35.908  1.00  0.00    -0.193 OA
HETATM   23  O3  UNK     1      33.775  -6.835  37.372  1.00  0.00    -0.193 OA
BRANCH  21  24
HETATM   24  C3  UNK     1      31.488  -5.627  37.344  1.00  0.00     0.086 A 
HETATM   25  C11 UNK     1      30.870  -6.593  38.122  1.00  0.00     0.026 A 
HETATM   26  C18 UNK     1      29.704  -6.267  38.813  1.00  0.00     0.002 A 
HETATM   27  C20 UNK     1      29.172  -4.981  38.718  1.00  0.00     0.000 A 
HETATM   28  C19 UNK     1      29.807  -4.020  37.929  1.00  0.00     0.002 A 
HETATM   29  C12 UNK     1      30.973  -4.347  37.237  1.00  0.00     0.026 A 
ENDBRANCH  21  24
ENDBRANCH  20  21
ENDBRANCH  17  20
ENDBRANCH   2  14
TORSDOF 6
ENDMDL
MODEL 6
REMARK VINA RESULT:      -8.4      4.179      8.806
REMARK  6 active torsions:
REMARK  status: ('A' for Active; 'I' for Inactive)
REMARK    1  A    between atoms: C3_11  and  S1_1 
REMARK    2  A    between atoms: O1_2  and  S1_1 
REMARK    3  A    between atoms: C2_10  and  O1_2 
REMARK    4  A    between atoms: C15_23  and  N1_7 
REMARK    5  A    between atoms: C1_9  and  C7_15 
REMARK    6  A    between atoms: C10_18  and  C4_12 
ROOT
HETATM    1  N2  UNK     1      25.500  -6.216  29.796  1.00  0.00    -0.191 NA
HETATM    2  C7  UNK     1      27.430  -6.723  32.575  1.00  0.00     0.034 C 
HETATM    3  C10 UNK     1      27.522  -6.919  31.257  1.00  0.00     0.055 C 
HETATM    4  C21 UNK     1      26.405  -6.530  30.452  1.00  0.00     0.100 C 
ENDROOT
BRANCH   3   5
HETATM    5  C4  UNK     1      28.685  -7.521  30.573  1.00  0.00    -0.015 A 
HETATM    6  C13 UNK     1      28.737  -8.894  30.416  1.00  0.00     0.015 A 
HETATM    7  C16 UNK     1      29.834  -9.464  29.768  1.00  0.00     0.037 A 
HETATM    8  C15 UNK     1      30.860  -8.649  29.289  1.00  0.00     0.102 A 
HETATM    9  C17 UNK     1      30.789  -7.267  29.456  1.00  0.00     0.037 A 
HETATM   10  C14 UNK     1      29.692  -6.698  30.104  1.00  0.00     0.015 A 
BRANCH   8  11
HETATM   11  N1  UNK     1      31.977  -9.228  28.629  1.00  0.00    -0.116 N 
HETATM   12  O4  UNK     1      32.704 -10.033  29.259  1.00  0.00    -0.532 OA
HETATM   13  O5  UNK     1      32.205  -8.919  27.435  1.00  0.00    -0.532 OA
ENDBRANCH   8  11
ENDBRANCH   3   5
BRANCH   2  14
HETATM   14  C1  UNK     1      28.490  -7.057  33.513  1.00  0.00    -0.035 A 
HETATM   15  C5  UNK     1      29.487  -6.124  33.800  1.00  0.00     0.014 A 
HETATM   16  C8  UNK     1      30.502  -6.444  34.700  1.00  0.00     0.039 A 
HETATM   17  C2  UNK     1      30.522  -7.697  35.313  1.00  0.00     0.089 A 
HETATM   18  C9  UNK     1      29.525  -8.631  35.025  1.00  0.00     0.039 A 
HETATM   19  C6  UNK     1      28.509  -8.310  34.125  1.00  0.00     0.014 A 
BRANCH  17  20
HETATM   20  O1  UNK     1      31.514  -8.009  36.191  1.00  0.00    -0.229 OA
BRANCH  20  21
HETATM   21  S1  UNK     1      31.284  -8.118  37.811  1.00  0.00     0.303 S 
HETATM   22  O2  UNK     1      32.554  -7.942  38.487  1.00  0.00    -0.193 OA
HETATM   23  O3  UNK     1      30.434  -9.266  38.068  1.00  0.00    -0.193 OA
BRANCH  21  24
HETATM   24  C3  UNK     1      30.330  -6.686  38.213  1.00  0.00     0.086 A 
HETATM   25  C11 UNK     1      28.975  -6.823  38.463  1.00  0.00     0.026 A 
HETATM   26  C18 UNK     1      28.222  -5.693  38.779  1.00  0.00     0.002 A 
HETATM   27  C20 UNK     1      28.835  -4.442  38.841  1.00  0.00     0.000 A 
HETATM   28  C19 UNK     1      30.202  -4.321  38.587  1.00  0.00     0.002 A 
HETATM   29  C12 UNK     1      30.954  -5.451  38.269  1.00  0.00     0.026 A 
ENDBRANCH  21  24
ENDBRANCH  20  21
ENDBRANCH  17  20
ENDBRANCH   2  14
TORSDOF 6
ENDMDL
MODEL 7
REMARK VINA RESULT:      -8.4      2.678      4.024
REMARK  6 active torsions:
REMARK  status: ('A' for Active; 'I' for Inactive)
REMARK    1  A    between atoms: C3_11  and  S1_1 
REMARK    2  A    between atoms: O1_2  and  S1_1 
REMARK    3  A    between atoms: C2_10  and  O1_2 
REMARK    4  A    between atoms: C15_23  and  N1_7 
REMARK    5  A    between atoms: C1_9  and  C7_15 
REMARK    6  A    between atoms: C10_18  and  C4_12 
ROOT
HETATM    1  N2  UNK     1      27.578 -10.240  40.104  1.00  0.00    -0.191 NA
HETATM    2  C7  UNK     1      27.720  -9.224  36.840  1.00  0.00     0.034 C 
HETATM    3  C10 UNK     1      28.427  -9.054  37.960  1.00  0.00     0.055 C 
HETATM    4  C21 UNK     1      27.957  -9.710  39.143  1.00  0.00     0.100 C 
ENDROOT
BRANCH   3   5
HETATM    5  C4  UNK     1      29.647  -8.229  38.072  1.00  0.00    -0.015 A 
HETATM    6  C13 UNK     1      30.881  -8.819  37.870  1.00  0.00     0.015 A 
HETATM    7  C16 UNK     1      32.033  -8.041  37.974  1.00  0.00     0.037 A 
HETATM    8  C15 UNK     1      31.931  -6.683  38.278  1.00  0.00     0.102 A 
HETATM    9  C17 UNK     1      30.679  -6.105  38.479  1.00  0.00     0.037 A 
HETATM   10  C14 UNK     1      29.526  -6.885  38.375  1.00  0.00     0.015 A 
BRANCH   8  11
HETATM   11  N1  UNK     1      33.105  -5.889  38.384  1.00  0.00    -0.116 N 
HETATM   12  O4  UNK     1      33.054  -4.810  39.021  1.00  0.00    -0.532 OA
HETATM   13  O5  UNK     1      34.161  -6.290  37.837  1.00  0.00    -0.532 OA
ENDBRANCH   8  11
ENDBRANCH   3   5
BRANCH   2  14
HETATM   14  C1  UNK     1      28.085  -8.631  35.563  1.00  0.00    -0.035 A 
HETATM   15  C5  UNK     1      27.892  -7.267  35.346  1.00  0.00     0.014 A 
HETATM   16  C8  UNK     1      28.241  -6.699  34.122  1.00  0.00     0.039 A 
HETATM   17  C2  UNK     1      28.784  -7.496  33.113  1.00  0.00     0.089 A 
HETATM   18  C9  UNK     1      28.975  -8.861  33.329  1.00  0.00     0.039 A 
HETATM   19  C6  UNK     1      28.626  -9.428  34.555  1.00  0.00     0.014 A 
BRANCH  17  20
HETATM   20  O1  UNK     1      29.124  -6.941  31.918  1.00  0.00    -0.229 OA
BRANCH  20  21
HETATM   21  S1  UNK     1      28.127  -6.918  30.617  1.00  0.00     0.303 S 
HETATM   22  O2  UNK     1      28.276  -5.654  29.922  1.00  0.00    -0.193 OA
HETATM   23  O3  UNK     1      26.828  -7.410  31.038  1.00  0.00    -0.193 OA
BRANCH  21  24
HETATM   24  C3  UNK     1      28.799  -8.139  29.531  1.00  0.00     0.086 A 
HETATM   25  C11 UNK     1      30.080  -7.969  29.031  1.00  0.00     0.026 A 
HETATM   26  C18 UNK     1      30.610  -8.932  28.172  1.00  0.00     0.002 A 
HETATM   27  C20 UNK     1      29.852 -10.051  27.827  1.00  0.00     0.000 A 
HETATM   28  C19 UNK     1      28.563 -10.207  28.340  1.00  0.00     0.002 A 
HETATM   29  C12 UNK     1      28.034  -9.243  29.197  1.00  0.00     0.026 A 
ENDBRANCH  21  24
ENDBRANCH  20  21
ENDBRANCH  17  20
ENDBRANCH   2  14
TORSDOF 6
ENDMDL
MODEL 8
REMARK VINA RESULT:      -8.3      9.647     11.322
REMARK  6 active torsions:
REMARK  status: ('A' for Active; 'I' for Inactive)
REMARK    1  A    between atoms: C3_11  and  S1_1 
REMARK    2  A    between atoms: O1_2  and  S1_1 
REMARK    3  A    between atoms: C2_10  and  O1_2 
REMARK    4  A    between atoms: C15_23  and  N1_7 
REMARK    5  A    between atoms: C1_9  and  C7_15 
REMARK    6  A    between atoms: C10_18  and  C4_12 
ROOT
HETATM    1  N2  UNK     1      19.172 -11.368  38.662  1.00  0.00    -0.191 NA
HETATM    2  C7  UNK     1      19.220  -8.127  37.571  1.00  0.00     0.034 C 
HETATM    3  C10 UNK     1      20.092  -9.030  38.027  1.00  0.00     0.055 C 
HETATM    4  C21 UNK     1      19.582 -10.321  38.377  1.00  0.00     0.100 C 
ENDROOT
BRANCH   3   5
HETATM    5  C4  UNK     1      21.538  -8.790  38.210  1.00  0.00    -0.015 A 
HETATM    6  C13 UNK     1      22.401  -9.038  37.159  1.00  0.00     0.015 A 
HETATM    7  C16 UNK     1      23.766  -8.810  37.330  1.00  0.00     0.037 A 
HETATM    8  C15 UNK     1      24.245  -8.339  38.553  1.00  0.00     0.102 A 
HETATM    9  C17 UNK     1      23.360  -8.095  39.602  1.00  0.00     0.037 A 
HETATM   10  C14 UNK     1      21.994  -8.323  39.429  1.00  0.00     0.015 A 
BRANCH   8  11
HETATM   11  N1  UNK     1      25.636  -8.107  38.728  1.00  0.00    -0.116 N 
HETATM   12  O4  UNK     1      26.160  -7.110  38.176  1.00  0.00    -0.532 OA
HETATM   13  O5  UNK     1      26.301  -8.906  39.430  1.00  0.00    -0.532 OA
ENDBRANCH   8  11
ENDBRANCH   3   5
BRANCH   2  14
HETATM   14  C1  UNK     1      19.596  -6.781  37.165  1.00  0.00    -0.035 A 
HETATM   15  C5  UNK     1      19.942  -5.833  38.128  1.00  0.00     0.014 A 
HETATM   16  C8  UNK     1      20.303  -4.544  37.738  1.00  0.00     0.039 A 
HETATM   17  C2  UNK     1      20.315  -4.202  36.385  1.00  0.00     0.089 A 
HETATM   18  C9  UNK     1      19.968  -5.150  35.422  1.00  0.00     0.039 A 
HETATM   19  C6  UNK     1      19.608  -6.440  35.813  1.00  0.00     0.014 A 
BRANCH  17  20
HETATM   20  O1  UNK     1      20.667  -2.943  36.005  1.00  0.00    -0.229 OA
BRANCH  20  21
HETATM   21  S1  UNK     1      19.583  -1.809  35.530  1.00  0.00     0.303 S 
HETATM   22  O2  UNK     1      20.032  -0.503  35.973  1.00  0.00    -0.193 OA
HETATM   23  O3  UNK     1      18.252  -2.303  35.834  1.00  0.00    -0.193 OA
BRANCH  21  24
HETATM   24  C3  UNK     1      19.721  -1.785  33.769  1.00  0.00     0.086 A 
HETATM   25  C11 UNK     1      20.701  -2.548  33.156  1.00  0.00     0.026 A 
HETATM   26  C18 UNK     1      20.810  -2.528  31.765  1.00  0.00     0.002 A 
HETATM   27  C20 UNK     1      19.938  -1.747  31.008  1.00  0.00     0.000 A 
HETATM   28  C19 UNK     1      18.956  -0.984  31.642  1.00  0.00     0.002 A 
HETATM   29  C12 UNK     1      18.848  -1.003  33.032  1.00  0.00     0.026 A 
ENDBRANCH  21  24
ENDBRANCH  20  21
ENDBRANCH  17  20
ENDBRANCH   2  14
TORSDOF 6
ENDMDL
MODEL 9
REMARK VINA RESULT:      -8.2      3.711      6.897
REMARK  6 active torsions:
REMARK  status: ('A' for Active; 'I' for Inactive)
REMARK    1  A    between atoms: C3_11  and  S1_1 
REMARK    2  A    between atoms: O1_2  and  S1_1 
REMARK    3  A    between atoms: C2_10  and  O1_2 
REMARK    4  A    between atoms: C15_23  and  N1_7 
REMARK    5  A    between atoms: C1_9  and  C7_15 
REMARK    6  A    between atoms: C10_18  and  C4_12 
ROOT
HETATM    1  N2  UNK     1      32.229  -7.293  29.867  1.00  0.00    -0.191 NA
HETATM    2  C7  UNK     1      29.960  -7.934  32.345  1.00  0.00     0.034 C 
HETATM    3  C10 UNK     1      31.231  -7.537  32.247  1.00  0.00     0.055 C 
HETATM    4  C21 UNK     1      31.780  -7.403  30.932  1.00  0.00     0.100 C 
ENDROOT
BRANCH   3   5
HETATM    5  C4  UNK     1      32.115  -7.242  33.393  1.00  0.00    -0.015 A 
HETATM    6  C13 UNK     1      32.175  -5.950  33.882  1.00  0.00     0.015 A 
HETATM    7  C16 UNK     1      33.008  -5.672  34.966  1.00  0.00     0.037 A 
HETATM    8  C15 UNK     1      33.767  -6.691  35.542  1.00  0.00     0.102 A 
HETATM    9  C17 UNK     1      33.693  -7.987  35.035  1.00  0.00     0.037 A 
HETATM   10  C14 UNK     1      32.859  -8.266  33.951  1.00  0.00     0.015 A 
BRANCH   8  11
HETATM   11  N1  UNK     1      34.615  -6.407  36.646  1.00  0.00    -0.116 N 
HETATM   12  O4  UNK     1      34.444  -7.031  37.721  1.00  0.00    -0.532 OA
HETATM   13  O5  UNK     1      35.513  -5.540  36.515  1.00  0.00    -0.532 OA
ENDBRANCH   8  11
ENDBRANCH   3   5
BRANCH   2  14
HETATM   14  C1  UNK     1      29.266  -8.101  33.613  1.00  0.00    -0.035 A 
HETATM   15  C5  UNK     1      29.220  -9.354  34.224  1.00  0.00     0.014 A 
HETATM   16  C8  UNK     1      28.555  -9.513  35.439  1.00  0.00     0.039 A 
HETATM   17  C2  UNK     1      27.935  -8.419  36.044  1.00  0.00     0.089 A 
HETATM   18  C9  UNK     1      27.980  -7.166  35.432  1.00  0.00     0.039 A 
HETATM   19  C6  UNK     1      28.646  -7.007  34.217  1.00  0.00     0.014 A 
BRANCH  17  20
HETATM   20  O1  UNK     1      27.286  -8.576  37.229  1.00  0.00    -0.229 OA
BRANCH  20  21
HETATM   21  S1  UNK     1      28.046  -8.564  38.682  1.00  0.00     0.303 S 
HETATM   22  O2  UNK     1      28.977  -9.673  38.745  1.00  0.00    -0.193 OA
HETATM   23  O3  UNK     1      27.045  -8.346  39.711  1.00  0.00    -0.193 OA
BRANCH  21  24
HETATM   24  C3  UNK     1      29.046  -7.107  38.639  1.00  0.00     0.086 A 
HETATM   25  C11 UNK     1      30.367  -7.205  38.236  1.00  0.00     0.026 A 
HETATM   26  C18 UNK     1      31.157  -6.056  38.203  1.00  0.00     0.002 A 
HETATM   27  C20 UNK     1      30.614  -4.826  38.572  1.00  0.00     0.000 A 
HETATM   28  C19 UNK     1      29.280  -4.745  38.976  1.00  0.00     0.002 A 
HETATM   29  C12 UNK     1      28.491  -5.895  39.009  1.00  0.00     0.026 A 
ENDBRANCH  21  24
ENDBRANCH  20  21
ENDBRANCH  17  20
ENDBRANCH   2  14
TORSDOF 6
ENDMDL
MODEL 10
REMARK VINA RESULT:      -8.2      4.014      7.232
REMARK  6 active torsions:
REMARK  status: ('A' for Active; 'I' for Inactive)
REMARK    1  A    between atoms: C3_11  and  S1_1 
REMARK    2  A    between atoms: O1_2  and  S1_1 
REMARK    3  A    between atoms: C2_10  and  O1_2 
REMARK    4  A    between atoms: C15_23  and  N1_7 
REMARK    5  A    between atoms: C1_9  and  C7_15 
REMARK    6  A    between atoms: C10_18  and  C4_12 
ROOT
HETATM    1  N2  UNK     1      25.174  -7.715  38.695  1.00  0.00    -0.191 NA
HETATM    2  C7  UNK     1      28.493  -6.895  38.794  1.00  0.00     0.034 C 
HETATM    3  C10 UNK     1      27.631  -7.428  37.924  1.00  0.00     0.055 C 
HETATM    4  C21 UNK     1      26.274  -7.586  38.351  1.00  0.00     0.100 C 
ENDROOT
BRANCH   3   5
HETATM    5  C4  UNK     1      27.979  -7.881  36.561  1.00  0.00    -0.015 A 
HETATM    6  C13 UNK     1      28.185  -9.229  36.332  1.00  0.00     0.015 A 
HETATM    7  C16 UNK     1      28.511  -9.658  35.045  1.00  0.00     0.037 A 
HETATM    8  C15 UNK     1      28.626  -8.730  34.010  1.00  0.00     0.102 A 
HETATM    9  C17 UNK     1      28.415  -7.375  34.260  1.00  0.00     0.037 A 
HETATM   10  C14 UNK     1      28.088  -6.947  35.548  1.00  0.00     0.015 A 
BRANCH   8  11
HETATM   11  N1  UNK     1      28.959  -9.167  32.699  1.00  0.00    -0.116 N 
HETATM   12  O4  UNK     1      29.274 -10.368  32.520  1.00  0.00    -0.532 OA
HETATM   13  O5  UNK     1      28.928  -8.339  31.757  1.00  0.00    -0.532 OA
ENDBRANCH   8  11
ENDBRANCH   3   5
BRANCH   2  14
HETATM   14  C1  UNK     1      29.897  -6.663  38.494  1.00  0.00    -0.035 A 
HETATM   15  C5  UNK     1      30.786  -7.736  38.442  1.00  0.00     0.014 A 
HETATM   16  C8  UNK     1      32.132  -7.513  38.154  1.00  0.00     0.039 A 
HETATM   17  C2  UNK     1      32.590  -6.216  37.919  1.00  0.00     0.089 A 
HETATM   18  C9  UNK     1      31.701  -5.142  37.973  1.00  0.00     0.039 A 
HETATM   19  C6  UNK     1      30.354  -5.366  38.260  1.00  0.00     0.014 A 
BRANCH  17  20
HETATM   20  O1  UNK     1      33.904  -5.999  37.639  1.00  0.00    -0.229 OA
BRANCH  20  21
HETATM   21  S1  UNK     1      34.454  -5.599  36.148  1.00  0.00     0.303 S 
HETATM   22  O2  UNK     1      35.860  -5.940  36.050  1.00  0.00    -0.193 OA
HETATM   23  O3  UNK     1      33.966  -4.269  35.831  1.00  0.00    -0.193 OA
BRANCH  21  24
HETATM   24  C3  UNK     1      33.619  -6.714  35.061  1.00  0.00     0.086 A 
HETATM   25  C11 UNK     1      33.997  -8.046  35.036  1.00  0.00     0.026 A 
HETATM   26  C18 UNK     1      33.338  -8.925  34.177  1.00  0.00     0.002 A 
HETATM   27  C20 UNK     1      32.311  -8.460  33.356  1.00  0.00     0.000 A 
HETATM   28  C19 UNK     1      31.943  -7.114  33.394  1.00  0.00     0.002 A 
HETATM   29  C12 UNK     1      32.602  -6.235  34.252  1.00  0.00     0.026 A 
ENDBRANCH  21  24
ENDBRANCH  20  21
ENDBRANCH  17  20
ENDBRANCH   2  14
TORSDOF 6
ENDMDL
