MODEL 1
REMARK VINA RESULT:      -9.2      0.000      0.000
REMARK  8 active torsions:
REMARK  status: ('A' for Active; 'I' for Inactive)
REMARK    1  A    between atoms: C7_15  and  O2_2 
REMARK    2  A    between atoms: C10_18  and  O3_3 
REMARK    3  A    between atoms: C11_19  and  O5_5 
REMARK    4  A    between atoms: C1_9  and  N1_8 
REMARK       I    between atoms: C6_14  and  N1_8 
REMARK    5  A    between atoms: C1_9  and  C2_10 
REMARK    6  A    between atoms: C1_9  and  C3_11 
REMARK    7  A    between atoms: C11_19  and  C3_11 
REMARK    8  A    between atoms: C6_14  and  C8_16 
ROOT
HETATM    1  C1  UNK     1      19.040  -6.701  37.222  1.00  0.00     0.128 C 
ENDROOT
BRANCH   1   2
HETATM    2  N1  UNK     1      19.000  -5.279  36.969  1.00  0.00    -0.348 N 
HETATM    3  C6  UNK     1      19.688  -4.678  35.930  1.00  0.00     0.258 C 
HETATM    4  O4  UNK     1      20.403  -5.248  35.108  1.00  0.00    -0.267 OA
HETATM    5  H4  UNK     1      18.397  -4.708  37.556  1.00  0.00     0.163 HD
BRANCH   3   6
HETATM    6  C8  UNK     1      19.489  -3.225  35.877  1.00  0.00     0.108 A 
HETATM    7  C12 UNK     1      18.763  -2.692  36.868  1.00  0.00     0.037 A 
HETATM    8  C13 UNK     1      18.511  -1.260  36.903  1.00  0.00    -0.001 A 
HETATM    9  C14 UNK     1      19.034  -0.459  35.892  1.00  0.00     0.089 A 
HETATM   10  C16 UNK     1      17.760  -0.660  37.917  1.00  0.00     0.014 A 
HETATM   11  O1  UNK     1      19.796  -1.027  34.852  1.00  0.00    -0.274 OA
HETATM   12  C17 UNK     1      18.827   0.918  35.867  1.00  0.00     0.038 A 
HETATM   13  C15 UNK     1      20.055  -2.393  34.793  1.00  0.00     0.304 A 
HETATM   14  O7  UNK     1      20.719  -2.878  33.884  1.00  0.00    -0.259 OA
HETATM   15  C19 UNK     1      18.077   1.508  36.882  1.00  0.00     0.003 A 
HETATM   16  C18 UNK     1      17.545   0.721  37.904  1.00  0.00     0.001 A 
ENDBRANCH   3   6
ENDBRANCH   1   2
BRANCH   1  17
HETATM   17  C2  UNK     1      20.402  -7.100  37.755  1.00  0.00    -0.032 A 
HETATM   18  C4  UNK     1      21.188  -7.961  37.012  1.00  0.00     0.049 A 
HETATM   19  C7  UNK     1      22.441  -8.329  37.501  1.00  0.00     0.102 A 
HETATM   20  C10 UNK     1      22.886  -7.830  38.725  1.00  0.00     0.101 A 
HETATM   21  C9  UNK     1      22.078  -6.964  39.460  1.00  0.00     0.040 A 
HETATM   22  C5  UNK     1      20.824  -6.595  38.971  1.00  0.00     0.012 A 
BRANCH  19  23
HETATM   23  O2  UNK     1      23.221  -9.178  36.776  1.00  0.00    -0.353 OA
HETATM   24  C20 UNK     1      22.557 -10.218  36.061  1.00  0.00     0.210 C 
ENDBRANCH  19  23
BRANCH  20  25
HETATM   25  O3  UNK     1      24.108  -8.183  39.214  1.00  0.00    -0.353 OA
HETATM   26  C21 UNK     1      25.231  -7.436  38.749  1.00  0.00     0.210 C 
ENDBRANCH  20  25
ENDBRANCH   1  17
BRANCH   1  27
HETATM   27  C3  UNK     1      18.622  -7.467  35.957  1.00  0.00     0.140 C 
BRANCH  27  28
HETATM   28  C11 UNK     1      17.162  -7.283  35.597  1.00  0.00     0.141 C 
HETATM   29  O6  UNK     1      16.640  -7.631  34.547  1.00  0.00    -0.650 OA
BRANCH  28  30
HETATM   30  O5  UNK     1      16.482  -6.647  36.586  1.00  0.00    -0.776 OA
HETATM   31  H13 UNK     1      16.124  -7.278  37.247  1.00  0.00     0.167 HD
ENDBRANCH  28  30
ENDBRANCH  27  28
ENDBRANCH   1  27
TORSDOF 8
ENDMDL
MODEL 2
REMARK VINA RESULT:      -9.2      5.042      8.327
REMARK  8 active torsions:
REMARK  status: ('A' for Active; 'I' for Inactive)
REMARK    1  A    between atoms: C7_15  and  O2_2 
REMARK    2  A    between atoms: C10_18  and  O3_3 
REMARK    3  A    between atoms: C11_19  and  O5_5 
REMARK    4  A    between atoms: C1_9  and  N1_8 
REMARK       I    between atoms: C6_14  and  N1_8 
REMARK    5  A    between atoms: C1_9  and  C2_10 
REMARK    6  A    between atoms: C1_9  and  C3_11 
REMARK    7  A    between atoms: C11_19  and  C3_11 
REMARK    8  A    between atoms: C6_14  and  C8_16 
ROOT
HETATM    1  C1  UNK     1      19.315  -0.395  31.656  1.00  0.00     0.128 C 
ENDROOT
BRANCH   1   2
HETATM    2  N1  UNK     1      19.144   1.040  31.697  1.00  0.00    -0.348 N 
HETATM    3  C6  UNK     1      18.450   1.745  30.731  1.00  0.00     0.258 C 
HETATM    4  O4  UNK     1      17.901   1.269  29.739  1.00  0.00    -0.267 OA
HETATM    5  H4  UNK     1      19.513   1.539  32.502  1.00  0.00     0.163 HD
BRANCH   3   6
HETATM    6  C8  UNK     1      18.413   3.188  30.993  1.00  0.00     0.108 A 
HETATM    7  C12 UNK     1      18.189   3.553  32.262  1.00  0.00     0.037 A 
HETATM    8  C13 UNK     1      18.134   4.961  32.621  1.00  0.00    -0.001 A 
HETATM    9  C14 UNK     1      18.318   5.917  31.627  1.00  0.00     0.089 A 
HETATM   10  C16 UNK     1      17.903   5.388  33.931  1.00  0.00     0.014 A 
HETATM   11  O1  UNK     1      18.554   5.527  30.294  1.00  0.00    -0.274 OA
HETATM   12  C17 UNK     1      18.276   7.282  31.905  1.00  0.00     0.038 A 
HETATM   13  C15 UNK     1      18.612   4.187  29.920  1.00  0.00     0.304 A 
HETATM   14  O7  UNK     1      18.817   3.857  28.757  1.00  0.00    -0.259 OA
HETATM   15  C19 UNK     1      18.045   7.698  33.214  1.00  0.00     0.003 A 
HETATM   16  C18 UNK     1      17.859   6.753  34.225  1.00  0.00     0.001 A 
ENDBRANCH   3   6
ENDBRANCH   1   2
BRANCH   1  17
HETATM   17  C2  UNK     1      19.288  -0.966  33.060  1.00  0.00    -0.032 A 
HETATM   18  C4  UNK     1      18.438  -0.409  33.997  1.00  0.00     0.049 A 
HETATM   19  C7  UNK     1      18.413  -0.933  35.289  1.00  0.00     0.102 A 
HETATM   20  C10 UNK     1      19.241  -2.005  35.622  1.00  0.00     0.101 A 
HETATM   21  C9  UNK     1      20.093  -2.553  34.663  1.00  0.00     0.040 A 
HETATM   22  C5  UNK     1      20.117  -2.029  33.371  1.00  0.00     0.012 A 
BRANCH  19  23
HETATM   23  O2  UNK     1      17.579  -0.389  36.218  1.00  0.00    -0.353 OA
HETATM   24  C20 UNK     1      17.905   0.913  36.699  1.00  0.00     0.210 C 
ENDBRANCH  19  23
BRANCH  20  25
HETATM   25  O3  UNK     1      19.227  -2.526  36.881  1.00  0.00    -0.353 OA
HETATM   26  C21 UNK     1      20.302  -3.395  37.234  1.00  0.00     0.210 C 
ENDBRANCH  20  25
ENDBRANCH   1  17
BRANCH   1  27
HETATM   27  C3  UNK     1      20.588  -0.745  30.870  1.00  0.00     0.140 C 
BRANCH  27  28
HETATM   28  C11 UNK     1      20.309  -1.304  29.491  1.00  0.00     0.141 C 
HETATM   29  O6  UNK     1      20.432  -0.694  28.437  1.00  0.00    -0.650 OA
BRANCH  28  30
HETATM   30  O5  UNK     1      19.870  -2.589  29.553  1.00  0.00    -0.776 OA
HETATM   31  H13 UNK     1      19.389  -2.770  30.388  1.00  0.00     0.167 HD
ENDBRANCH  28  30
ENDBRANCH  27  28
ENDBRANCH   1  27
TORSDOF 8
ENDMDL
MODEL 3
REMARK VINA RESULT:      -9.1      3.112      5.015
REMARK  8 active torsions:
REMARK  status: ('A' for Active; 'I' for Inactive)
REMARK    1  A    between atoms: C7_15  and  O2_2 
REMARK    2  A    between atoms: C10_18  and  O3_3 
REMARK    3  A    between atoms: C11_19  and  O5_5 
REMARK    4  A    between atoms: C1_9  and  N1_8 
REMARK       I    between atoms: C6_14  and  N1_8 
REMARK    5  A    between atoms: C1_9  and  C2_10 
REMARK    6  A    between atoms: C1_9  and  C3_11 
REMARK    7  A    between atoms: C11_19  and  C3_11 
REMARK    8  A    between atoms: C6_14  and  C8_16 
ROOT
HETATM    1  C1  UNK     1      19.392  -2.882  36.467  1.00  0.00     0.128 C 
ENDROOT
BRANCH   1   2
HETATM    2  N1  UNK     1      19.502  -2.639  35.047  1.00  0.00    -0.348 N 
HETATM    3  C6  UNK     1      20.688  -2.276  34.434  1.00  0.00     0.258 C 
HETATM    4  O4  UNK     1      21.773  -2.115  34.989  1.00  0.00    -0.267 OA
HETATM    5  H4  UNK     1      18.677  -2.792  34.473  1.00  0.00     0.163 HD
BRANCH   3   6
HETATM    6  C8  UNK     1      20.547  -2.088  32.985  1.00  0.00     0.108 A 
HETATM    7  C12 UNK     1      20.016  -0.924  32.589  1.00  0.00     0.037 A 
HETATM    8  C13 UNK     1      19.836  -0.645  31.173  1.00  0.00    -0.001 A 
HETATM    9  C14 UNK     1      20.223  -1.605  30.243  1.00  0.00     0.089 A 
HETATM   10  C16 UNK     1      19.287   0.555  30.714  1.00  0.00     0.014 A 
HETATM   11  O1  UNK     1      20.781  -2.827  30.666  1.00  0.00    -0.274 OA
HETATM   12  C17 UNK     1      20.077  -1.399  28.872  1.00  0.00     0.038 A 
HETATM   13  C15 UNK     1      20.966  -3.123  32.014  1.00  0.00     0.304 A 
HETATM   14  O7  UNK     1      21.452  -4.190  32.373  1.00  0.00    -0.259 OA
HETATM   15  C19 UNK     1      19.528  -0.200  28.424  1.00  0.00     0.003 A 
HETATM   16  C18 UNK     1      19.134   0.775  29.342  1.00  0.00     0.001 A 
ENDBRANCH   3   6
ENDBRANCH   1   2
BRANCH   1  17
HETATM   17  C2  UNK     1      19.858  -4.287  36.796  1.00  0.00    -0.032 A 
HETATM   18  C4  UNK     1      19.153  -5.364  36.292  1.00  0.00     0.049 A 
HETATM   19  C7  UNK     1      19.581  -6.656  36.594  1.00  0.00     0.102 A 
HETATM   20  C10 UNK     1      20.706  -6.849  37.396  1.00  0.00     0.101 A 
HETATM   21  C9  UNK     1      21.403  -5.749  37.896  1.00  0.00     0.040 A 
HETATM   22  C5  UNK     1      20.975  -4.456  37.593  1.00  0.00     0.012 A 
BRANCH  19  23
HETATM   23  O2  UNK     1      18.891  -7.723  36.102  1.00  0.00    -0.353 OA
HETATM   24  C20 UNK     1      17.648  -7.452  35.460  1.00  0.00     0.210 C 
ENDBRANCH  19  23
BRANCH  20  25
HETATM   25  O3  UNK     1      21.133  -8.107  37.699  1.00  0.00    -0.353 OA
HETATM   26  C21 UNK     1      22.270  -8.593  36.987  1.00  0.00     0.210 C 
ENDBRANCH  20  25
ENDBRANCH   1  17
BRANCH   1  27
HETATM   27  C3  UNK     1      17.960  -2.580  36.937  1.00  0.00     0.140 C 
BRANCH  27  28
HETATM   28  C11 UNK     1      17.389  -1.306  36.350  1.00  0.00     0.141 C 
HETATM   29  O6  UNK     1      17.381  -0.212  36.897  1.00  0.00    -0.650 OA
BRANCH  28  30
HETATM   30  O5  UNK     1      16.849  -1.522  35.121  1.00  0.00    -0.776 OA
HETATM   31  H13 UNK     1      17.101  -0.822  34.483  1.00  0.00     0.167 HD
ENDBRANCH  28  30
ENDBRANCH  27  28
ENDBRANCH   1  27
TORSDOF 8
ENDMDL
MODEL 4
REMARK VINA RESULT:      -8.9      2.372      8.468
REMARK  8 active torsions:
REMARK  status: ('A' for Active; 'I' for Inactive)
REMARK    1  A    between atoms: C7_15  and  O2_2 
REMARK    2  A    between atoms: C10_18  and  O3_3 
REMARK    3  A    between atoms: C11_19  and  O5_5 
REMARK    4  A    between atoms: C1_9  and  N1_8 
REMARK       I    between atoms: C6_14  and  N1_8 
REMARK    5  A    between atoms: C1_9  and  C2_10 
REMARK    6  A    between atoms: C1_9  and  C3_11 
REMARK    7  A    between atoms: C11_19  and  C3_11 
REMARK    8  A    between atoms: C6_14  and  C8_16 
ROOT
HETATM    1  C1  UNK     1      20.128  -2.697  34.942  1.00  0.00     0.128 C 
ENDROOT
BRANCH   1   2
HETATM    2  N1  UNK     1      19.843  -4.054  35.352  1.00  0.00    -0.348 N 
HETATM    3  C6  UNK     1      20.476  -4.669  36.417  1.00  0.00     0.258 C 
HETATM    4  O4  UNK     1      21.338  -4.168  37.137  1.00  0.00    -0.267 OA
HETATM    5  H4  UNK     1      19.107  -4.554  34.860  1.00  0.00     0.163 HD
BRANCH   3   6
HETATM    6  C8  UNK     1      20.015  -6.044  36.638  1.00  0.00     0.108 A 
HETATM    7  C12 UNK     1      20.967  -6.984  36.698  1.00  0.00     0.037 A 
HETATM    8  C13 UNK     1      20.608  -8.377  36.914  1.00  0.00    -0.001 A 
HETATM    9  C14 UNK     1      19.265  -8.713  37.056  1.00  0.00     0.089 A 
HETATM   10  C16 UNK     1      21.567  -9.391  36.984  1.00  0.00     0.014 A 
HETATM   11  O1  UNK     1      18.269  -7.719  36.992  1.00  0.00    -0.274 OA
HETATM   12  C17 UNK     1      18.856 -10.028  37.264  1.00  0.00     0.038 A 
HETATM   13  C15 UNK     1      18.581  -6.378  36.787  1.00  0.00     0.304 A 
HETATM   14  O7  UNK     1      17.707  -5.520  36.732  1.00  0.00    -0.259 OA
HETATM   15  C19 UNK     1      19.818 -11.033  37.332  1.00  0.00     0.003 A 
HETATM   16  C18 UNK     1      21.171 -10.715  37.192  1.00  0.00     0.001 A 
ENDBRANCH   3   6
ENDBRANCH   1   2
BRANCH   1  17
HETATM   17  C2  UNK     1      19.030  -1.765  35.415  1.00  0.00    -0.032 A 
HETATM   18  C4  UNK     1      18.555  -0.794  34.553  1.00  0.00     0.049 A 
HETATM   19  C7  UNK     1      17.545   0.063  34.987  1.00  0.00     0.102 A 
HETATM   20  C10 UNK     1      17.028  -0.064  36.277  1.00  0.00     0.101 A 
HETATM   21  C9  UNK     1      17.521  -1.049  37.132  1.00  0.00     0.040 A 
HETATM   22  C5  UNK     1      18.531  -1.908  36.697  1.00  0.00     0.012 A 
BRANCH  19  23
HETATM   23  O2  UNK     1      17.072   1.024  34.145  1.00  0.00    -0.353 OA
HETATM   24  C20 UNK     1      17.991   2.035  33.734  1.00  0.00     0.210 C 
ENDBRANCH  19  23
BRANCH  20  25
HETATM   25  O3  UNK     1      16.042   0.769  36.713  1.00  0.00    -0.353 OA
HETATM   26  C21 UNK     1      16.444   1.904  37.477  1.00  0.00     0.210 C 
ENDBRANCH  20  25
ENDBRANCH   1  17
BRANCH   1  27
HETATM   27  C3  UNK     1      20.367  -2.652  33.424  1.00  0.00     0.140 C 
BRANCH  27  28
HETATM   28  C11 UNK     1      21.625  -1.904  33.035  1.00  0.00     0.141 C 
HETATM   29  O6  UNK     1      22.678  -1.912  33.656  1.00  0.00    -0.650 OA
BRANCH  28  30
HETATM   30  O5  UNK     1      21.442  -1.180  31.899  1.00  0.00    -0.776 OA
HETATM   31  H13 UNK     1      21.598  -0.224  32.047  1.00  0.00     0.167 HD
ENDBRANCH  28  30
ENDBRANCH  27  28
ENDBRANCH   1  27
TORSDOF 8
ENDMDL
MODEL 5
REMARK VINA RESULT:      -8.8     29.582     31.818
REMARK  8 active torsions:
REMARK  status: ('A' for Active; 'I' for Inactive)
REMARK    1  A    between atoms: C7_15  and  O2_2 
REMARK    2  A    between atoms: C10_18  and  O3_3 
REMARK    3  A    between atoms: C11_19  and  O5_5 
REMARK    4  A    between atoms: C1_9  and  N1_8 
REMARK       I    between atoms: C6_14  and  N1_8 
REMARK    5  A    between atoms: C1_9  and  C2_10 
REMARK    6  A    between atoms: C1_9  and  C3_11 
REMARK    7  A    between atoms: C11_19  and  C3_11 
REMARK    8  A    between atoms: C6_14  and  C8_16 
ROOT
HETATM    1  C1  UNK     1       9.137   7.053   8.238  1.00  0.00     0.128 C 
ENDROOT
BRANCH   1   2
HETATM    2  N1  UNK     1      10.524   7.019   8.641  1.00  0.00    -0.348 N 
HETATM    3  C6  UNK     1      11.191   8.123   9.140  1.00  0.00     0.258 C 
HETATM    4  O4  UNK     1      10.716   9.246   9.305  1.00  0.00    -0.267 OA
HETATM    5  H4  UNK     1      11.010   6.127   8.599  1.00  0.00     0.163 HD
BRANCH   3   6
HETATM    6  C8  UNK     1      12.590   7.840   9.481  1.00  0.00     0.108 A 
HETATM    7  C12 UNK     1      13.471   8.813   9.220  1.00  0.00     0.037 A 
HETATM    8  C13 UNK     1      14.881   8.625   9.522  1.00  0.00    -0.001 A 
HETATM    9  C14 UNK     1      15.295   7.422  10.085  1.00  0.00     0.089 A 
HETATM   10  C16 UNK     1      15.836   9.613   9.267  1.00  0.00     0.014 A 
HETATM   11  O1  UNK     1      14.363   6.402  10.358  1.00  0.00    -0.274 OA
HETATM   12  C17 UNK     1      16.631   7.179  10.398  1.00  0.00     0.038 A 
HETATM   13  C15 UNK     1      13.007   6.552  10.080  1.00  0.00     0.304 A 
HETATM   14  O7  UNK     1      12.203   5.659  10.320  1.00  0.00    -0.259 OA
HETATM   15  C19 UNK     1      17.576   8.169  10.139  1.00  0.00     0.003 A 
HETATM   16  C18 UNK     1      17.180   9.383   9.575  1.00  0.00     0.001 A 
ENDBRANCH   3   6
ENDBRANCH   1   2
BRANCH   1  17
HETATM   17  C2  UNK     1       8.241   6.715   9.414  1.00  0.00    -0.032 A 
HETATM   18  C4  UNK     1       7.571   7.734  10.064  1.00  0.00     0.049 A 
HETATM   19  C7  UNK     1       6.747   7.424  11.145  1.00  0.00     0.102 A 
HETATM   20  C10 UNK     1       6.609   6.099  11.559  1.00  0.00     0.101 A 
HETATM   21  C9  UNK     1       7.295   5.085  10.892  1.00  0.00     0.040 A 
HETATM   22  C5  UNK     1       8.118   5.395   9.809  1.00  0.00     0.012 A 
BRANCH  19  23
HETATM   23  O2  UNK     1       6.084   8.423  11.791  1.00  0.00    -0.353 OA
HETATM   24  C20 UNK     1       4.917   8.943  11.157  1.00  0.00     0.210 C 
ENDBRANCH  19  23
BRANCH  20  25
HETATM   25  O3  UNK     1       5.808   5.784  12.615  1.00  0.00    -0.353 OA
HETATM   26  C21 UNK     1       4.797   4.803  12.390  1.00  0.00     0.210 C 
ENDBRANCH  20  25
ENDBRANCH   1  17
BRANCH   1  27
HETATM   27  C3  UNK     1       8.927   6.140   7.019  1.00  0.00     0.140 C 
BRANCH  27  28
HETATM   28  C11 UNK     1      10.094   6.148   6.053  1.00  0.00     0.141 C 
HETATM   29  O6  UNK     1      11.206   5.690   6.277  1.00  0.00    -0.650 OA
BRANCH  28  30
HETATM   30  O5  UNK     1       9.768   6.762   4.885  1.00  0.00    -0.776 OA
HETATM   31  H13 UNK     1       8.818   6.654   4.668  1.00  0.00     0.167 HD
ENDBRANCH  28  30
ENDBRANCH  27  28
ENDBRANCH   1  27
TORSDOF 8
ENDMDL
MODEL 6
REMARK VINA RESULT:      -8.6     29.351     32.182
REMARK  8 active torsions:
REMARK  status: ('A' for Active; 'I' for Inactive)
REMARK    1  A    between atoms: C7_15  and  O2_2 
REMARK    2  A    between atoms: C10_18  and  O3_3 
REMARK    3  A    between atoms: C11_19  and  O5_5 
REMARK    4  A    between atoms: C1_9  and  N1_8 
REMARK       I    between atoms: C6_14  and  N1_8 
REMARK    5  A    between atoms: C1_9  and  C2_10 
REMARK    6  A    between atoms: C1_9  and  C3_11 
REMARK    7  A    between atoms: C11_19  and  C3_11 
REMARK    8  A    between atoms: C6_14  and  C8_16 
ROOT
HETATM    1  C1  UNK     1      15.760   9.129  10.397  1.00  0.00     0.128 C 
ENDROOT
BRANCH   1   2
HETATM    2  N1  UNK     1      14.708   8.506   9.627  1.00  0.00    -0.348 N 
HETATM    3  C6  UNK     1      13.528   8.056  10.190  1.00  0.00     0.258 C 
HETATM    4  O4  UNK     1      13.220   8.119  11.379  1.00  0.00    -0.267 OA
HETATM    5  H4  UNK     1      14.828   8.445   8.620  1.00  0.00     0.163 HD
BRANCH   3   6
HETATM    6  C8  UNK     1      12.615   7.463   9.206  1.00  0.00     0.108 A 
HETATM    7  C12 UNK     1      11.320   7.773   9.338  1.00  0.00     0.037 A 
HETATM    8  C13 UNK     1      10.338   7.234   8.411  1.00  0.00    -0.001 A 
HETATM    9  C14 UNK     1      10.768   6.394   7.388  1.00  0.00     0.089 A 
HETATM   10  C16 UNK     1       8.976   7.531   8.511  1.00  0.00     0.014 A 
HETATM   11  O1  UNK     1      12.133   6.071   7.254  1.00  0.00    -0.274 OA
HETATM   12  C17 UNK     1       9.879   5.844   6.468  1.00  0.00     0.038 A 
HETATM   13  C15 UNK     1      13.095   6.572   8.126  1.00  0.00     0.304 A 
HETATM   14  O7  UNK     1      14.281   6.285   8.002  1.00  0.00    -0.259 OA
HETATM   15  C19 UNK     1       8.523   6.145   6.575  1.00  0.00     0.003 A 
HETATM   16  C18 UNK     1       8.073   6.986   7.594  1.00  0.00     0.001 A 
ENDBRANCH   3   6
ENDBRANCH   1   2
BRANCH   1  17
HETATM   17  C2  UNK     1      16.509  10.134   9.543  1.00  0.00    -0.032 A 
HETATM   18  C4  UNK     1      17.844  10.379   9.807  1.00  0.00     0.049 A 
HETATM   19  C7  UNK     1      18.533  11.303   9.022  1.00  0.00     0.102 A 
HETATM   20  C10 UNK     1      17.874  11.967   7.987  1.00  0.00     0.101 A 
HETATM   21  C9  UNK     1      16.527  11.707   7.737  1.00  0.00     0.040 A 
HETATM   22  C5  UNK     1      15.838  10.782   8.521  1.00  0.00     0.012 A 
BRANCH  19  23
HETATM   23  O2  UNK     1      19.847  11.552   9.277  1.00  0.00    -0.353 OA
HETATM   24  C20 UNK     1      20.181  11.994  10.591  1.00  0.00     0.210 C 
ENDBRANCH  19  23
BRANCH  20  25
HETATM   25  O3  UNK     1      18.537  12.873   7.214  1.00  0.00    -0.353 OA
HETATM   26  C21 UNK     1      18.904  12.456   5.900  1.00  0.00     0.210 C 
ENDBRANCH  20  25
ENDBRANCH   1  17
BRANCH   1  27
HETATM   27  C3  UNK     1      16.663   8.049  11.014  1.00  0.00     0.140 C 
BRANCH  27  28
HETATM   28  C11 UNK     1      17.053   6.960  10.037  1.00  0.00     0.141 C 
HETATM   29  O6  UNK     1      17.995   7.007   9.257  1.00  0.00    -0.650 OA
BRANCH  28  30
HETATM   30  O5  UNK     1      16.202   5.902  10.104  1.00  0.00    -0.776 OA
HETATM   31  H13 UNK     1      15.970   5.563   9.214  1.00  0.00     0.167 HD
ENDBRANCH  28  30
ENDBRANCH  27  28
ENDBRANCH   1  27
TORSDOF 8
ENDMDL
MODEL 7
REMARK VINA RESULT:      -8.6      4.787      8.054
REMARK  8 active torsions:
REMARK  status: ('A' for Active; 'I' for Inactive)
REMARK    1  A    between atoms: C7_15  and  O2_2 
REMARK    2  A    between atoms: C10_18  and  O3_3 
REMARK    3  A    between atoms: C11_19  and  O5_5 
REMARK    4  A    between atoms: C1_9  and  N1_8 
REMARK       I    between atoms: C6_14  and  N1_8 
REMARK    5  A    between atoms: C1_9  and  C2_10 
REMARK    6  A    between atoms: C1_9  and  C3_11 
REMARK    7  A    between atoms: C11_19  and  C3_11 
REMARK    8  A    between atoms: C6_14  and  C8_16 
ROOT
HETATM    1  C1  UNK     1      19.291  -0.339  31.669  1.00  0.00     0.128 C 
ENDROOT
BRANCH   1   2
HETATM    2  N1  UNK     1      19.019   0.988  32.173  1.00  0.00    -0.348 N 
HETATM    3  C6  UNK     1      18.339   1.947  31.444  1.00  0.00     0.258 C 
HETATM    4  O4  UNK     1      17.886   1.810  30.309  1.00  0.00    -0.267 OA
HETATM    5  H4  UNK     1      19.302   1.202  33.126  1.00  0.00     0.163 HD
BRANCH   3   6
HETATM    6  C8  UNK     1      18.185   3.213  32.170  1.00  0.00     0.108 A 
HETATM    7  C12 UNK     1      18.007   4.307  31.418  1.00  0.00     0.037 A 
HETATM    8  C13 UNK     1      17.846   5.609  32.046  1.00  0.00    -0.001 A 
HETATM    9  C14 UNK     1      17.880   5.696  33.435  1.00  0.00     0.089 A 
HETATM   10  C16 UNK     1      17.657   6.776  31.303  1.00  0.00     0.014 A 
HETATM   11  O1  UNK     1      18.068   4.541  34.220  1.00  0.00    -0.274 OA
HETATM   12  C17 UNK     1      17.733   6.913  34.097  1.00  0.00     0.038 A 
HETATM   13  C15 UNK     1      18.224   3.282  33.647  1.00  0.00     0.304 A 
HETATM   14  O7  UNK     1      18.388   2.282  34.338  1.00  0.00    -0.259 OA
HETATM   15  C19 UNK     1      17.546   8.072  33.348  1.00  0.00     0.003 A 
HETATM   16  C18 UNK     1      17.508   8.004  31.954  1.00  0.00     0.001 A 
ENDBRANCH   3   6
ENDBRANCH   1   2
BRANCH   1  17
HETATM   17  C2  UNK     1      19.597  -1.282  32.816  1.00  0.00    -0.032 A 
HETATM   18  C4  UNK     1      18.930  -1.121  34.015  1.00  0.00     0.049 A 
HETATM   19  C7  UNK     1      19.211  -1.988  35.070  1.00  0.00     0.102 A 
HETATM   20  C10 UNK     1      20.157  -3.001  34.908  1.00  0.00     0.101 A 
HETATM   21  C9  UNK     1      20.820  -3.146  33.691  1.00  0.00     0.040 A 
HETATM   22  C5  UNK     1      20.538  -2.279  32.634  1.00  0.00     0.012 A 
BRANCH  19  23
HETATM   23  O2  UNK     1      18.558  -1.835  36.257  1.00  0.00    -0.353 OA
HETATM   24  C20 UNK     1      17.451  -0.937  36.277  1.00  0.00     0.210 C 
ENDBRANCH  19  23
BRANCH  20  25
HETATM   25  O3  UNK     1      20.441  -3.853  35.932  1.00  0.00    -0.353 OA
HETATM   26  C21 UNK     1      19.829  -5.141  35.890  1.00  0.00     0.210 C 
ENDBRANCH  20  25
ENDBRANCH   1  17
BRANCH   1  27
HETATM   27  C3  UNK     1      20.401  -0.275  30.607  1.00  0.00     0.140 C 
BRANCH  27  28
HETATM   28  C11 UNK     1      20.004  -0.893  29.283  1.00  0.00     0.141 C 
HETATM   29  O6  UNK     1      19.779  -0.278  28.250  1.00  0.00    -0.650 OA
BRANCH  28  30
HETATM   30  O5  UNK     1      19.895  -2.245  29.377  1.00  0.00    -0.776 OA
HETATM   31  H13 UNK     1      19.007  -2.519  29.689  1.00  0.00     0.167 HD
ENDBRANCH  28  30
ENDBRANCH  27  28
ENDBRANCH   1  27
TORSDOF 8
ENDMDL
MODEL 8
REMARK VINA RESULT:      -8.5     29.264     32.407
REMARK  8 active torsions:
REMARK  status: ('A' for Active; 'I' for Inactive)
REMARK    1  A    between atoms: C7_15  and  O2_2 
REMARK    2  A    between atoms: C10_18  and  O3_3 
REMARK    3  A    between atoms: C11_19  and  O5_5 
REMARK    4  A    between atoms: C1_9  and  N1_8 
REMARK       I    between atoms: C6_14  and  N1_8 
REMARK    5  A    between atoms: C1_9  and  C2_10 
REMARK    6  A    between atoms: C1_9  and  C3_11 
REMARK    7  A    between atoms: C11_19  and  C3_11 
REMARK    8  A    between atoms: C6_14  and  C8_16 
ROOT
HETATM    1  C1  UNK     1      15.681   9.168  10.559  1.00  0.00     0.128 C 
ENDROOT
BRANCH   1   2
HETATM    2  N1  UNK     1      14.672   8.549   9.730  1.00  0.00    -0.348 N 
HETATM    3  C6  UNK     1      13.472   8.076  10.229  1.00  0.00     0.258 C 
HETATM    4  O4  UNK     1      13.109   8.114  11.403  1.00  0.00    -0.267 OA
HETATM    5  H4  UNK     1      14.840   8.508   8.728  1.00  0.00     0.163 HD
BRANCH   3   6
HETATM    6  C8  UNK     1      12.613   7.493   9.192  1.00  0.00     0.108 A 
HETATM    7  C12 UNK     1      11.305   7.760   9.289  1.00  0.00     0.037 A 
HETATM    8  C13 UNK     1      10.373   7.227   8.309  1.00  0.00    -0.001 A 
HETATM    9  C14 UNK     1      10.863   6.437   7.273  1.00  0.00     0.089 A 
HETATM   10  C16 UNK     1       9.000   7.480   8.370  1.00  0.00     0.014 A 
HETATM   11  O1  UNK     1      12.241   6.160   7.176  1.00  0.00    -0.274 OA
HETATM   12  C17 UNK     1      10.024   5.896   6.302  1.00  0.00     0.038 A 
HETATM   13  C15 UNK     1      13.157   6.657   8.099  1.00  0.00     0.304 A 
HETATM   14  O7  UNK     1      14.354   6.409   8.007  1.00  0.00    -0.259 OA
HETATM   15  C19 UNK     1       8.656   6.153   6.372  1.00  0.00     0.003 A 
HETATM   16  C18 UNK     1       8.146   6.943   7.403  1.00  0.00     0.001 A 
ENDBRANCH   3   6
ENDBRANCH   1   2
BRANCH   1  17
HETATM   17  C2  UNK     1      16.430  10.225   9.772  1.00  0.00    -0.032 A 
HETATM   18  C4  UNK     1      15.770  10.908   8.767  1.00  0.00     0.049 A 
HETATM   19  C7  UNK     1      16.458  11.881   8.043  1.00  0.00     0.102 A 
HETATM   20  C10 UNK     1      17.795  12.153   8.335  1.00  0.00     0.101 A 
HETATM   21  C9  UNK     1      18.443  11.453   9.351  1.00  0.00     0.040 A 
HETATM   22  C5  UNK     1      17.754  10.480  10.077  1.00  0.00     0.012 A 
BRANCH  19  23
HETATM   23  O2  UNK     1      15.816  12.558   7.050  1.00  0.00    -0.353 OA
HETATM   24  C20 UNK     1      14.966  13.634   7.443  1.00  0.00     0.210 C 
ENDBRANCH  19  23
BRANCH  20  25
HETATM   25  O3  UNK     1      18.477  13.101   7.633  1.00  0.00    -0.353 OA
HETATM   26  C21 UNK     1      19.192  12.662   6.479  1.00  0.00     0.210 C 
ENDBRANCH  20  25
ENDBRANCH   1  17
BRANCH   1  27
HETATM   27  C3  UNK     1      16.592   8.087  11.164  1.00  0.00     0.140 C 
BRANCH  27  28
HETATM   28  C11 UNK     1      17.047   7.051  10.158  1.00  0.00     0.141 C 
HETATM   29  O6  UNK     1      18.010   7.159   9.411  1.00  0.00    -0.650 OA
BRANCH  28  30
HETATM   30  O5  UNK     1      16.229   5.965  10.157  1.00  0.00    -0.776 OA
HETATM   31  H13 UNK     1      15.930   5.734   9.252  1.00  0.00     0.167 HD
ENDBRANCH  28  30
ENDBRANCH  27  28
ENDBRANCH   1  27
TORSDOF 8
ENDMDL
MODEL 9
REMARK VINA RESULT:      -8.4      5.589      8.836
REMARK  8 active torsions:
REMARK  status: ('A' for Active; 'I' for Inactive)
REMARK    1  A    between atoms: C7_15  and  O2_2 
REMARK    2  A    between atoms: C10_18  and  O3_3 
REMARK    3  A    between atoms: C11_19  and  O5_5 
REMARK    4  A    between atoms: C1_9  and  N1_8 
REMARK       I    between atoms: C6_14  and  N1_8 
REMARK    5  A    between atoms: C1_9  and  C2_10 
REMARK    6  A    between atoms: C1_9  and  C3_11 
REMARK    7  A    between atoms: C11_19  and  C3_11 
REMARK    8  A    between atoms: C6_14  and  C8_16 
ROOT
HETATM    1  C1  UNK     1      18.871   0.889  31.114  1.00  0.00     0.128 C 
ENDROOT
BRANCH   1   2
HETATM    2  N1  UNK     1      18.893   2.254  31.587  1.00  0.00    -0.348 N 
HETATM    3  C6  UNK     1      18.583   3.336  30.783  1.00  0.00     0.258 C 
HETATM    4  O4  UNK     1      18.258   3.291  29.598  1.00  0.00    -0.267 OA
HETATM    5  H4  UNK     1      19.098   2.413  32.570  1.00  0.00     0.163 HD
BRANCH   3   6
HETATM    6  C8  UNK     1      18.674   4.618  31.492  1.00  0.00     0.108 A 
HETATM    7  C12 UNK     1      17.737   4.849  32.420  1.00  0.00     0.037 A 
HETATM    8  C13 UNK     1      17.743   6.092  33.175  1.00  0.00    -0.001 A 
HETATM    9  C14 UNK     1      18.736   7.032  32.916  1.00  0.00     0.089 A 
HETATM   10  C16 UNK     1      16.786   6.375  34.152  1.00  0.00     0.014 A 
HETATM   11  O1  UNK     1      19.719   6.784  31.938  1.00  0.00    -0.274 OA
HETATM   12  C17 UNK     1      18.797   8.242  33.603  1.00  0.00     0.038 A 
HETATM   13  C15 UNK     1      19.739   5.603  31.200  1.00  0.00     0.304 A 
HETATM   14  O7  UNK     1      20.598   5.396  30.350  1.00  0.00    -0.259 OA
HETATM   15  C19 UNK     1      17.839   8.517  34.576  1.00  0.00     0.003 A 
HETATM   16  C18 UNK     1      16.835   7.585  34.850  1.00  0.00     0.001 A 
ENDBRANCH   3   6
ENDBRANCH   1   2
BRANCH   1  17
HETATM   17  C2  UNK     1      19.072  -0.070  32.271  1.00  0.00    -0.032 A 
HETATM   18  C4  UNK     1      19.887  -1.173  32.096  1.00  0.00     0.049 A 
HETATM   19  C7  UNK     1      20.072  -2.055  33.160  1.00  0.00     0.102 A 
HETATM   20  C10 UNK     1      19.438  -1.820  34.380  1.00  0.00     0.101 A 
HETATM   21  C9  UNK     1      18.619  -0.702  34.536  1.00  0.00     0.040 A 
HETATM   22  C5  UNK     1      18.435   0.182  33.472  1.00  0.00     0.012 A 
BRANCH  19  23
HETATM   23  O2  UNK     1      20.873  -3.145  32.995  1.00  0.00    -0.353 OA
HETATM   24  C20 UNK     1      21.196  -3.516  31.657  1.00  0.00     0.210 C 
ENDBRANCH  19  23
BRANCH  20  25
HETATM   25  O3  UNK     1      19.611  -2.675  35.426  1.00  0.00    -0.353 OA
HETATM   26  C21 UNK     1      18.983  -2.325  36.659  1.00  0.00     0.210 C 
ENDBRANCH  20  25
ENDBRANCH   1  17
BRANCH   1  27
HETATM   27  C3  UNK     1      19.896   0.715  29.981  1.00  0.00     0.140 C 
BRANCH  27  28
HETATM   28  C11 UNK     1      19.315   0.078  28.737  1.00  0.00     0.141 C 
HETATM   29  O6  UNK     1      19.882  -0.742  28.026  1.00  0.00    -0.650 OA
BRANCH  28  30
HETATM   30  O5  UNK     1      18.069   0.549  28.472  1.00  0.00    -0.776 OA
HETATM   31  H13 UNK     1      18.095   1.380  27.952  1.00  0.00     0.167 HD
ENDBRANCH  28  30
ENDBRANCH  27  28
ENDBRANCH   1  27
TORSDOF 8
ENDMDL
MODEL 10
REMARK VINA RESULT:      -8.4     29.283     31.175
REMARK  8 active torsions:
REMARK  status: ('A' for Active; 'I' for Inactive)
REMARK    1  A    between atoms: C7_15  and  O2_2 
REMARK    2  A    between atoms: C10_18  and  O3_3 
REMARK    3  A    between atoms: C11_19  and  O5_5 
REMARK    4  A    between atoms: C1_9  and  N1_8 
REMARK       I    between atoms: C6_14  and  N1_8 
REMARK    5  A    between atoms: C1_9  and  C2_10 
REMARK    6  A    between atoms: C1_9  and  C3_11 
REMARK    7  A    between atoms: C11_19  and  C3_11 
REMARK    8  A    between atoms: C6_14  and  C8_16 
ROOT
HETATM    1  C1  UNK     1      10.794   5.802   8.155  1.00  0.00     0.128 C 
ENDROOT
BRANCH   1   2
HETATM    2  N1  UNK     1       9.753   5.651   9.145  1.00  0.00    -0.348 N 
HETATM    3  C6  UNK     1       8.458   5.285   8.827  1.00  0.00     0.258 C 
HETATM    4  O4  UNK     1       8.026   5.046   7.701  1.00  0.00    -0.267 OA
HETATM    5  H4  UNK     1      10.005   5.773  10.123  1.00  0.00     0.163 HD
BRANCH   3   6
HETATM    6  C8  UNK     1       7.585   5.196  10.004  1.00  0.00     0.108 A 
HETATM    7  C12 UNK     1       7.078   3.986  10.274  1.00  0.00     0.037 A 
HETATM    8  C13 UNK     1       6.202   3.797  11.419  1.00  0.00    -0.001 A 
HETATM    9  C14 UNK     1       5.901   4.891  12.224  1.00  0.00     0.089 A 
HETATM   10  C16 UNK     1       5.651   2.554  11.739  1.00  0.00     0.014 A 
HETATM   11  O1  UNK     1       6.437   6.162  11.935  1.00  0.00    -0.274 OA
HETATM   12  C17 UNK     1       5.067   4.777  13.335  1.00  0.00     0.038 A 
HETATM   13  C15 UNK     1       7.279   6.373  10.847  1.00  0.00     0.304 A 
HETATM   14  O7  UNK     1       7.740   7.482  10.602  1.00  0.00    -0.259 OA
HETATM   15  C19 UNK     1       4.522   3.534  13.646  1.00  0.00     0.003 A 
HETATM   16  C18 UNK     1       4.813   2.425  12.850  1.00  0.00     0.001 A 
ENDBRANCH   3   6
ENDBRANCH   1   2
BRANCH   1  17
HETATM   17  C2  UNK     1      12.147   5.915   8.831  1.00  0.00    -0.032 A 
HETATM   18  C4  UNK     1      12.392   6.985   9.672  1.00  0.00     0.049 A 
HETATM   19  C7  UNK     1      13.635   7.089  10.293  1.00  0.00     0.102 A 
HETATM   20  C10 UNK     1      14.614   6.122  10.062  1.00  0.00     0.101 A 
HETATM   21  C9  UNK     1      14.348   5.051   9.209  1.00  0.00     0.040 A 
HETATM   22  C5  UNK     1      13.103   4.946   8.588  1.00  0.00     0.012 A 
BRANCH  19  23
HETATM   23  O2  UNK     1      13.885   8.141  11.122  1.00  0.00    -0.353 OA
HETATM   24  C20 UNK     1      12.891   9.161  11.192  1.00  0.00     0.210 C 
ENDBRANCH  19  23
BRANCH  20  25
HETATM   25  O3  UNK     1      15.833   6.213  10.663  1.00  0.00    -0.353 OA
HETATM   26  C21 UNK     1      16.835   6.967   9.982  1.00  0.00     0.210 C 
ENDBRANCH  20  25
ENDBRANCH   1  17
BRANCH   1  27
HETATM   27  C3  UNK     1      10.465   6.985   7.230  1.00  0.00     0.140 C 
BRANCH  27  28
HETATM   28  C11 UNK     1      10.489   6.624   5.760  1.00  0.00     0.141 C 
HETATM   29  O6  UNK     1       9.524   6.640   5.007  1.00  0.00    -0.650 OA
BRANCH  28  30
HETATM   30  O5  UNK     1      11.731   6.244   5.360  1.00  0.00    -0.776 OA
HETATM   31  H13 UNK     1      12.380   6.290   6.094  1.00  0.00     0.167 HD
ENDBRANCH  28  30
ENDBRANCH  27  28
ENDBRANCH   1  27
TORSDOF 8
ENDMDL
