MODEL 1
REMARK VINA RESULT:      -9.2      0.000      0.000
REMARK  5 active torsions:
REMARK  status: ('A' for Active; 'I' for Inactive)
REMARK    1  A    between atoms: C11_19  and  N1_6 
REMARK    2  A    between atoms: C4_12  and  N1_6 
REMARK    3  A    between atoms: C11_19  and  N2_7 
REMARK    4  A    between atoms: N2_7  and  N3_8 
REMARK       I    between atoms: C13_21  and  N3_8 
REMARK    5  A    between atoms: C12_20  and  C13_21 
ROOT
HETATM    1  N1  UNK     1      18.920  -3.833  36.250  1.00  0.00    -0.332 N 
HETATM    2  H8  UNK     1      17.941  -4.102  36.184  1.00  0.00     0.168 HD
ENDROOT
BRANCH   1   3
HETATM    3  C11 UNK     1      19.136  -2.477  35.945  1.00  0.00     0.191 C 
HETATM    4  S1  UNK     1      18.216  -1.143  36.371  1.00  0.00    -0.039 SA
BRANCH   3   5
HETATM    5  N2  UNK     1      20.266  -2.240  35.168  1.00  0.00    -0.273 N 
HETATM    6  H9  UNK     1      21.198  -2.447  35.512  1.00  0.00     0.189 HD
BRANCH   5   7
HETATM    7  N3  UNK     1      20.176  -1.714  33.900  1.00  0.00    -0.262 N 
HETATM    8  C13 UNK     1      20.680  -2.444  32.839  1.00  0.00     0.293 C 
HETATM    9  O4  UNK     1      21.212  -3.548  32.932  1.00  0.00    -0.264 OA
HETATM   10  H10 UNK     1      19.672  -0.842  33.784  1.00  0.00     0.190 HD
BRANCH   8  11
HETATM   11  C12 UNK     1      20.559  -1.801  31.505  1.00  0.00     0.144 A 
HETATM   12  O3  UNK     1      20.809  -0.494  31.474  1.00  0.00    -0.317 OA
HETATM   13  C16 UNK     1      20.636  -0.152  30.170  1.00  0.00     0.143 A 
HETATM   14  C15 UNK     1      20.282  -1.253  29.425  1.00  0.00     0.027 A 
HETATM   15  C14 UNK     1      20.236  -2.341  30.328  1.00  0.00     0.045 A 
ENDBRANCH   8  11
ENDBRANCH   5   7
ENDBRANCH   3   5
ENDBRANCH   1   3
BRANCH   1  16
HETATM   16  C4  UNK     1      19.755  -4.909  36.545  1.00  0.00     0.037 A 
HETATM   17  C6  UNK     1      19.871  -5.969  35.652  1.00  0.00     0.067 A 
HETATM   18  C2  UNK     1      20.714  -7.037  35.966  1.00  0.00     0.092 A 
HETATM   19  C1  UNK     1      21.449  -7.082  37.152  1.00  0.00     0.004 A 
HETATM   20  O1  UNK     1      20.790  -8.080  35.022  1.00  0.00    -0.275 OA
HETATM   21  C3  UNK     1      22.311  -8.246  37.401  1.00  0.00    -0.043 A 
HETATM   22  C5  UNK     1      21.318  -6.005  38.039  1.00  0.00     0.017 A 
HETATM   23  C8  UNK     1      22.364  -9.222  36.485  1.00  0.00     0.090 A 
HETATM   24  C9  UNK     1      23.114  -8.324  38.666  1.00  0.00     0.049 C 
HETATM   25  C10 UNK     1      21.595  -9.189  35.229  1.00  0.00     0.288 A 
HETATM   26  O2  UNK     1      21.668 -10.102  34.414  1.00  0.00    -0.260 OA
HETATM   27  C7  UNK     1      20.478  -4.928  37.737  1.00  0.00     0.030 A 
ENDBRANCH   1  16
TORSDOF 5
ENDMDL
MODEL 2
REMARK VINA RESULT:      -9.1      5.039      7.370
REMARK  5 active torsions:
REMARK  status: ('A' for Active; 'I' for Inactive)
REMARK    1  A    between atoms: C11_19  and  N1_6 
REMARK    2  A    between atoms: C4_12  and  N1_6 
REMARK    3  A    between atoms: C11_19  and  N2_7 
REMARK    4  A    between atoms: N2_7  and  N3_8 
REMARK       I    between atoms: C13_21  and  N3_8 
REMARK    5  A    between atoms: C12_20  and  C13_21 
ROOT
HETATM    1  N1  UNK     1      18.690  -0.095  31.034  1.00  0.00    -0.332 N 
HETATM    2  H8  UNK     1      17.708  -0.046  30.769  1.00  0.00     0.168 HD
ENDROOT
BRANCH   1   3
HETATM    3  C11 UNK     1      19.556   0.275  29.990  1.00  0.00     0.191 C 
HETATM    4  S1  UNK     1      20.862  -0.565  29.358  1.00  0.00    -0.039 SA
BRANCH   3   5
HETATM    5  N2  UNK     1      19.280   1.520  29.434  1.00  0.00    -0.273 N 
HETATM    6  H9  UNK     1      18.994   1.616  28.464  1.00  0.00     0.189 HD
BRANCH   5   7
HETATM    7  N3  UNK     1      19.381   2.680  30.166  1.00  0.00    -0.262 N 
HETATM    8  C13 UNK     1      18.260   3.154  30.821  1.00  0.00     0.293 C 
HETATM    9  O4  UNK     1      17.155   2.618  30.806  1.00  0.00    -0.264 OA
HETATM   10  H10 UNK     1      20.299   3.101  30.261  1.00  0.00     0.190 HD
BRANCH   8  11
HETATM   11  C12 UNK     1      18.447   4.419  31.577  1.00  0.00     0.144 A 
HETATM   12  O3  UNK     1      17.511   4.690  32.484  1.00  0.00    -0.317 OA
HETATM   13  C16 UNK     1      17.903   5.872  33.026  1.00  0.00     0.143 A 
HETATM   14  C15 UNK     1      19.071   6.307  32.444  1.00  0.00     0.027 A 
HETATM   15  C14 UNK     1      19.419   5.329  31.483  1.00  0.00     0.045 A 
ENDBRANCH   8  11
ENDBRANCH   5   7
ENDBRANCH   3   5
ENDBRANCH   1   3
BRANCH   1  16
HETATM   16  C4  UNK     1      18.874  -0.590  32.324  1.00  0.00     0.037 A 
HETATM   17  C6  UNK     1      18.260   0.032  33.405  1.00  0.00     0.067 A 
HETATM   18  C2  UNK     1      18.457  -0.480  34.689  1.00  0.00     0.092 A 
HETATM   19  C1  UNK     1      19.253  -1.601  34.930  1.00  0.00     0.004 A 
HETATM   20  O1  UNK     1      17.809   0.192  35.744  1.00  0.00    -0.275 OA
HETATM   21  C3  UNK     1      19.405  -2.072  36.314  1.00  0.00    -0.043 A 
HETATM   22  C5  UNK     1      19.864  -2.213  33.827  1.00  0.00     0.017 A 
HETATM   23  C8  UNK     1      18.776  -1.413  37.296  1.00  0.00     0.090 A 
HETATM   24  C9  UNK     1      20.254  -3.274  36.605  1.00  0.00     0.049 C 
HETATM   25  C10 UNK     1      17.933  -0.228  37.058  1.00  0.00     0.288 A 
HETATM   26  O2  UNK     1      17.373   0.350  37.983  1.00  0.00    -0.260 OA
HETATM   27  C7  UNK     1      19.675  -1.712  32.535  1.00  0.00     0.030 A 
ENDBRANCH   1  16
TORSDOF 5
ENDMDL
MODEL 3
REMARK VINA RESULT:      -9.1      1.415      1.446
REMARK  5 active torsions:
REMARK  status: ('A' for Active; 'I' for Inactive)
REMARK    1  A    between atoms: C11_19  and  N1_6 
REMARK    2  A    between atoms: C4_12  and  N1_6 
REMARK    3  A    between atoms: C11_19  and  N2_7 
REMARK    4  A    between atoms: N2_7  and  N3_8 
REMARK       I    between atoms: C13_21  and  N3_8 
REMARK    5  A    between atoms: C12_20  and  C13_21 
ROOT
HETATM    1  N1  UNK     1      19.580  -4.178  35.669  1.00  0.00    -0.332 N 
HETATM    2  H8  UNK     1      19.228  -4.481  34.763  1.00  0.00     0.168 HD
ENDROOT
BRANCH   1   3
HETATM    3  C11 UNK     1      19.603  -2.778  35.806  1.00  0.00     0.191 C 
HETATM    4  S1  UNK     1      18.535  -1.783  36.629  1.00  0.00    -0.039 SA
BRANCH   3   5
HETATM    5  N2  UNK     1      20.659  -2.158  35.145  1.00  0.00    -0.273 N 
HETATM    6  H9  UNK     1      21.575  -2.069  35.574  1.00  0.00     0.189 HD
BRANCH   5   7
HETATM    7  N3  UNK     1      20.515  -1.634  33.881  1.00  0.00    -0.262 N 
HETATM    8  C13 UNK     1      20.810  -2.432  32.791  1.00  0.00     0.293 C 
HETATM    9  O4  UNK     1      21.198  -3.596  32.854  1.00  0.00    -0.264 OA
HETATM   10  H10 UNK     1      20.121  -0.703  33.797  1.00  0.00     0.190 HD
BRANCH   8  11
HETATM   11  C12 UNK     1      20.644  -1.788  31.463  1.00  0.00     0.144 A 
HETATM   12  O3  UNK     1      20.779  -0.464  31.446  1.00  0.00    -0.317 OA
HETATM   13  C16 UNK     1      20.587  -0.125  30.144  1.00  0.00     0.143 A 
HETATM   14  C15 UNK     1      20.337  -1.245  29.386  1.00  0.00     0.027 A 
HETATM   15  C14 UNK     1      20.379  -2.342  30.278  1.00  0.00     0.045 A 
ENDBRANCH   8  11
ENDBRANCH   5   7
ENDBRANCH   3   5
ENDBRANCH   1   3
BRANCH   1  16
HETATM   16  C4  UNK     1      20.005  -5.241  36.464  1.00  0.00     0.037 A 
HETATM   17  C6  UNK     1      19.496  -6.518  36.253  1.00  0.00     0.067 A 
HETATM   18  C2  UNK     1      19.935  -7.569  37.060  1.00  0.00     0.092 A 
HETATM   19  C1  UNK     1      20.873  -7.386  38.077  1.00  0.00     0.004 A 
HETATM   20  O1  UNK     1      19.383  -8.839  36.798  1.00  0.00    -0.275 OA
HETATM   21  C3  UNK     1      21.279  -8.550  38.878  1.00  0.00    -0.043 A 
HETATM   22  C5  UNK     1      21.374  -6.092  38.273  1.00  0.00     0.017 A 
HETATM   23  C8  UNK     1      20.738  -9.745  38.605  1.00  0.00     0.090 A 
HETATM   24  C9  UNK     1      22.286  -8.386  39.978  1.00  0.00     0.049 C 
HETATM   25  C10 UNK     1      19.747  -9.955  37.536  1.00  0.00     0.288 A 
HETATM   26  O2  UNK     1      19.272 -11.064  37.316  1.00  0.00    -0.260 OA
HETATM   27  C7  UNK     1      20.944  -5.030  37.473  1.00  0.00     0.030 A 
ENDBRANCH   1  16
TORSDOF 5
ENDMDL
MODEL 4
REMARK VINA RESULT:      -9.0      7.232     11.848
REMARK  5 active torsions:
REMARK  status: ('A' for Active; 'I' for Inactive)
REMARK    1  A    between atoms: C11_19  and  N1_6 
REMARK    2  A    between atoms: C4_12  and  N1_6 
REMARK    3  A    between atoms: C11_19  and  N2_7 
REMARK    4  A    between atoms: N2_7  and  N3_8 
REMARK       I    between atoms: C13_21  and  N3_8 
REMARK    5  A    between atoms: C12_20  and  C13_21 
ROOT
HETATM    1  N1  UNK     1      19.381   3.836  30.204  1.00  0.00    -0.332 N 
HETATM    2  H8  UNK     1      19.972   4.108  29.421  1.00  0.00     0.168 HD
ENDROOT
BRANCH   1   3
HETATM    3  C11 UNK     1      18.845   2.543  30.060  1.00  0.00     0.191 C 
HETATM    4  S1  UNK     1      17.899   1.927  28.821  1.00  0.00    -0.039 SA
BRANCH   3   5
HETATM    5  N2  UNK     1      19.144   1.682  31.111  1.00  0.00    -0.273 N 
HETATM    6  H9  UNK     1      19.932   1.044  31.066  1.00  0.00     0.189 HD
BRANCH   5   7
HETATM    7  N3  UNK     1      18.388   1.652  32.261  1.00  0.00    -0.262 N 
HETATM    8  C13 UNK     1      18.538   0.587  33.129  1.00  0.00     0.293 C 
HETATM    9  O4  UNK     1      19.307  -0.357  32.961  1.00  0.00    -0.264 OA
HETATM   10  H10 UNK     1      17.804   2.456  32.464  1.00  0.00     0.190 HD
BRANCH   8  11
HETATM   11  C12 UNK     1      17.676   0.621  34.338  1.00  0.00     0.144 A 
HETATM   12  O3  UNK     1      16.464   0.089  34.193  1.00  0.00    -0.317 OA
HETATM   13  C16 UNK     1      15.885   0.239  35.413  1.00  0.00     0.143 A 
HETATM   14  C15 UNK     1      16.750   0.859  36.285  1.00  0.00     0.027 A 
HETATM   15  C14 UNK     1      17.936   1.106  35.554  1.00  0.00     0.045 A 
ENDBRANCH   8  11
ENDBRANCH   5   7
ENDBRANCH   3   5
ENDBRANCH   1   3
BRANCH   1  16
HETATM   16  C4  UNK     1      19.220   4.858  31.138  1.00  0.00     0.037 A 
HETATM   17  C6  UNK     1      17.957   5.153  31.641  1.00  0.00     0.067 A 
HETATM   18  C2  UNK     1      17.818   6.179  32.576  1.00  0.00     0.092 A 
HETATM   19  C1  UNK     1      18.907   6.927  33.029  1.00  0.00     0.004 A 
HETATM   20  O1  UNK     1      16.515   6.431  33.049  1.00  0.00    -0.275 OA
HETATM   21  C3  UNK     1      18.669   7.990  34.016  1.00  0.00    -0.043 A 
HETATM   22  C5  UNK     1      20.171   6.615  32.511  1.00  0.00     0.017 A 
HETATM   23  C8  UNK     1      17.418   8.206  34.448  1.00  0.00     0.090 A 
HETATM   24  C9  UNK     1      19.818   8.811  34.523  1.00  0.00     0.049 C 
HETATM   25  C10 UNK     1      16.259   7.426  33.979  1.00  0.00     0.288 A 
HETATM   26  O2  UNK     1      15.129   7.653  34.397  1.00  0.00    -0.260 OA
HETATM   27  C7  UNK     1      20.325   5.588  31.573  1.00  0.00     0.030 A 
ENDBRANCH   1  16
TORSDOF 5
ENDMDL
MODEL 5
REMARK VINA RESULT:      -9.0      7.762     12.850
REMARK  5 active torsions:
REMARK  status: ('A' for Active; 'I' for Inactive)
REMARK    1  A    between atoms: C11_19  and  N1_6 
REMARK    2  A    between atoms: C4_12  and  N1_6 
REMARK    3  A    between atoms: C11_19  and  N2_7 
REMARK    4  A    between atoms: N2_7  and  N3_8 
REMARK       I    between atoms: C13_21  and  N3_8 
REMARK    5  A    between atoms: C12_20  and  C13_21 
ROOT
HETATM    1  N1  UNK     1      17.504   4.382  32.374  1.00  0.00    -0.332 N 
HETATM    2  H8  UNK     1      16.576   4.161  32.728  1.00  0.00     0.168 HD
ENDROOT
BRANCH   1   3
HETATM    3  C11 UNK     1      18.066   3.333  31.624  1.00  0.00     0.191 C 
HETATM    4  S1  UNK     1      18.793   3.390  30.115  1.00  0.00    -0.039 SA
BRANCH   3   5
HETATM    5  N2  UNK     1      17.979   2.086  32.234  1.00  0.00    -0.273 N 
HETATM    6  H9  UNK     1      18.075   1.227  31.701  1.00  0.00     0.189 HD
BRANCH   5   7
HETATM    7  N3  UNK     1      17.759   1.953  33.586  1.00  0.00    -0.262 N 
HETATM    8  C13 UNK     1      18.263   0.843  34.237  1.00  0.00     0.293 C 
HETATM    9  O4  UNK     1      18.906  -0.057  33.702  1.00  0.00    -0.264 OA
HETATM   10  H10 UNK     1      17.301   2.719  34.068  1.00  0.00     0.190 HD
BRANCH   8  11
HETATM   11  C12 UNK     1      17.970   0.766  35.691  1.00  0.00     0.144 A 
HETATM   12  O3  UNK     1      18.045  -0.449  36.228  1.00  0.00    -0.317 OA
HETATM   13  C16 UNK     1      17.741  -0.255  37.539  1.00  0.00     0.143 A 
HETATM   14  C15 UNK     1      17.485   1.074  37.782  1.00  0.00     0.027 A 
HETATM   15  C14 UNK     1      17.641   1.739  36.544  1.00  0.00     0.045 A 
ENDBRANCH   8  11
ENDBRANCH   5   7
ENDBRANCH   3   5
ENDBRANCH   1   3
BRANCH   1  16
HETATM   16  C4  UNK     1      17.965   5.623  32.809  1.00  0.00     0.037 A 
HETATM   17  C6  UNK     1      17.087   6.697  32.911  1.00  0.00     0.067 A 
HETATM   18  C2  UNK     1      17.568   7.932  33.350  1.00  0.00     0.092 A 
HETATM   19  C1  UNK     1      18.907   8.131  33.692  1.00  0.00     0.004 A 
HETATM   20  O1  UNK     1      16.632   8.981  33.433  1.00  0.00    -0.275 OA
HETATM   21  C3  UNK     1      19.327   9.465  34.144  1.00  0.00    -0.043 A 
HETATM   22  C5  UNK     1      19.776   7.037  33.581  1.00  0.00     0.017 A 
HETATM   23  C8  UNK     1      18.414  10.444  34.213  1.00  0.00     0.090 A 
HETATM   24  C9  UNK     1      20.759   9.711  34.518  1.00  0.00     0.049 C 
HETATM   25  C10 UNK     1      16.998  10.250  33.857  1.00  0.00     0.288 A 
HETATM   26  O2  UNK     1      16.191  11.169  33.932  1.00  0.00    -0.260 OA
HETATM   27  C7  UNK     1      19.307   5.794  33.144  1.00  0.00     0.030 A 
ENDBRANCH   1  16
TORSDOF 5
ENDMDL
MODEL 6
REMARK VINA RESULT:      -8.9      1.844      2.108
REMARK  5 active torsions:
REMARK  status: ('A' for Active; 'I' for Inactive)
REMARK    1  A    between atoms: C11_19  and  N1_6 
REMARK    2  A    between atoms: C4_12  and  N1_6 
REMARK    3  A    between atoms: C11_19  and  N2_7 
REMARK    4  A    between atoms: N2_7  and  N3_8 
REMARK       I    between atoms: C13_21  and  N3_8 
REMARK    5  A    between atoms: C12_20  and  C13_21 
ROOT
HETATM    1  N1  UNK     1      19.446  -4.990  35.550  1.00  0.00    -0.332 N 
HETATM    2  H8  UNK     1      19.037  -4.950  34.619  1.00  0.00     0.168 HD
ENDROOT
BRANCH   1   3
HETATM    3  C11 UNK     1      19.771  -3.720  36.058  1.00  0.00     0.191 C 
HETATM    4  S1  UNK     1      20.553  -3.326  37.487  1.00  0.00    -0.039 SA
BRANCH   3   5
HETATM    5  N2  UNK     1      19.363  -2.662  35.253  1.00  0.00    -0.273 N 
HETATM    6  H9  UNK     1      18.741  -1.939  35.601  1.00  0.00     0.189 HD
BRANCH   5   7
HETATM    7  N3  UNK     1      19.780  -2.542  33.947  1.00  0.00    -0.262 N 
HETATM    8  C13 UNK     1      19.432  -1.408  33.238  1.00  0.00     0.293 C 
HETATM    9  O4  UNK     1      18.769  -0.474  33.682  1.00  0.00    -0.264 OA
HETATM   10  H10 UNK     1      20.394  -3.260  33.579  1.00  0.00     0.190 HD
BRANCH   8  11
HETATM   11  C12 UNK     1      19.907  -1.362  31.831  1.00  0.00     0.144 A 
HETATM   12  O3  UNK     1      20.155  -0.147  31.348  1.00  0.00    -0.317 OA
HETATM   13  C16 UNK     1      20.567  -0.371  30.073  1.00  0.00     0.143 A 
HETATM   14  C15 UNK     1      20.564  -1.718  29.795  1.00  0.00     0.027 A 
HETATM   15  C14 UNK     1      20.123  -2.362  30.974  1.00  0.00     0.045 A 
ENDBRANCH   8  11
ENDBRANCH   5   7
ENDBRANCH   3   5
ENDBRANCH   1   3
BRANCH   1  16
HETATM   16  C4  UNK     1      19.631  -6.296  36.001  1.00  0.00     0.037 A 
HETATM   17  C6  UNK     1      20.570  -7.120  35.389  1.00  0.00     0.067 A 
HETATM   18  C2  UNK     1      20.740  -8.424  35.857  1.00  0.00     0.092 A 
HETATM   19  C1  UNK     1      19.998  -8.936  36.923  1.00  0.00     0.004 A 
HETATM   20  O1  UNK     1      21.705  -9.210  35.198  1.00  0.00    -0.275 OA
HETATM   21  C3  UNK     1      20.243 -10.321  37.350  1.00  0.00    -0.043 A 
HETATM   22  C5  UNK     1      19.057  -8.091  37.525  1.00  0.00     0.017 A 
HETATM   23  C8  UNK     1      21.168 -11.045  36.704  1.00  0.00     0.090 A 
HETATM   24  C9  UNK     1      19.462 -10.901  38.492  1.00  0.00     0.049 C 
HETATM   25  C10 UNK     1      21.959 -10.519  35.578  1.00  0.00     0.288 A 
HETATM   26  O2  UNK     1      22.797 -11.211  35.011  1.00  0.00    -0.260 OA
HETATM   27  C7  UNK     1      18.876  -6.782  37.068  1.00  0.00     0.030 A 
ENDBRANCH   1  16
TORSDOF 5
ENDMDL
MODEL 7
REMARK VINA RESULT:      -8.9      1.423      2.091
REMARK  5 active torsions:
REMARK  status: ('A' for Active; 'I' for Inactive)
REMARK    1  A    between atoms: C11_19  and  N1_6 
REMARK    2  A    between atoms: C4_12  and  N1_6 
REMARK    3  A    between atoms: C11_19  and  N2_7 
REMARK    4  A    between atoms: N2_7  and  N3_8 
REMARK       I    between atoms: C13_21  and  N3_8 
REMARK    5  A    between atoms: C12_20  and  C13_21 
ROOT
HETATM    1  N1  UNK     1      18.887  -4.081  36.625  1.00  0.00    -0.332 N 
HETATM    2  H8  UNK     1      18.047  -4.196  37.189  1.00  0.00     0.168 HD
ENDROOT
BRANCH   1   3
HETATM    3  C11 UNK     1      18.994  -2.799  36.059  1.00  0.00     0.191 C 
HETATM    4  S1  UNK     1      18.029  -1.452  36.311  1.00  0.00    -0.039 SA
BRANCH   3   5
HETATM    5  N2  UNK     1      20.045  -2.660  35.157  1.00  0.00    -0.273 N 
HETATM    6  H9  UNK     1      20.965  -3.042  35.352  1.00  0.00     0.189 HD
BRANCH   5   7
HETATM    7  N3  UNK     1      19.890  -1.998  33.961  1.00  0.00    -0.262 N 
HETATM    8  C13 UNK     1      20.581  -2.454  32.853  1.00  0.00     0.293 C 
HETATM    9  O4  UNK     1      21.337  -3.421  32.843  1.00  0.00    -0.264 OA
HETATM   10  H10 UNK     1      19.211  -1.245  33.921  1.00  0.00     0.190 HD
BRANCH   8  11
HETATM   11  C12 UNK     1      20.372  -1.676  31.605  1.00  0.00     0.144 A 
HETATM   12  O3  UNK     1      20.123  -0.379  31.771  1.00  0.00    -0.317 OA
HETATM   13  C16 UNK     1      19.974   0.097  30.507  1.00  0.00     0.143 A 
HETATM   14  C15 UNK     1      20.133  -0.914  29.588  1.00  0.00     0.027 A 
HETATM   15  C14 UNK     1      20.398  -2.086  30.335  1.00  0.00     0.045 A 
ENDBRANCH   8  11
ENDBRANCH   5   7
ENDBRANCH   3   5
ENDBRANCH   1   3
BRANCH   1  16
HETATM   16  C4  UNK     1      19.631  -5.256  36.524  1.00  0.00     0.037 A 
HETATM   17  C6  UNK     1      20.695  -5.485  37.390  1.00  0.00     0.067 A 
HETATM   18  C2  UNK     1      21.427  -6.669  37.272  1.00  0.00     0.092 A 
HETATM   19  C1  UNK     1      21.129  -7.637  36.312  1.00  0.00     0.004 A 
HETATM   20  O1  UNK     1      22.492  -6.844  38.177  1.00  0.00    -0.275 OA
HETATM   21  C3  UNK     1      21.953  -8.853  36.260  1.00  0.00    -0.043 A 
HETATM   22  C5  UNK     1      20.054  -7.387  35.449  1.00  0.00     0.017 A 
HETATM   23  C8  UNK     1      22.959  -8.993  37.134  1.00  0.00     0.090 A 
HETATM   24  C9  UNK     1      21.658  -9.912  35.239  1.00  0.00     0.049 C 
HETATM   25  C10 UNK     1      23.286  -7.981  38.153  1.00  0.00     0.288 A 
HETATM   26  O2  UNK     1      24.215  -8.143  38.936  1.00  0.00    -0.260 OA
HETATM   27  C7  UNK     1      19.311  -6.206  35.555  1.00  0.00     0.030 A 
ENDBRANCH   1  16
TORSDOF 5
ENDMDL
MODEL 8
REMARK VINA RESULT:      -8.6      3.947      6.393
REMARK  5 active torsions:
REMARK  status: ('A' for Active; 'I' for Inactive)
REMARK    1  A    between atoms: C11_19  and  N1_6 
REMARK    2  A    between atoms: C4_12  and  N1_6 
REMARK    3  A    between atoms: C11_19  and  N2_7 
REMARK    4  A    between atoms: N2_7  and  N3_8 
REMARK       I    between atoms: C13_21  and  N3_8 
REMARK    5  A    between atoms: C12_20  and  C13_21 
ROOT
HETATM    1  N1  UNK     1      18.762  -0.338  31.609  1.00  0.00    -0.332 N 
HETATM    2  H8  UNK     1      17.908   0.146  31.341  1.00  0.00     0.168 HD
ENDROOT
BRANCH   1   3
HETATM    3  C11 UNK     1      19.625  -0.567  30.522  1.00  0.00     0.191 C 
HETATM    4  S1  UNK     1      20.444  -1.968  30.106  1.00  0.00    -0.039 SA
BRANCH   3   5
HETATM    5  N2  UNK     1      19.819   0.542  29.705  1.00  0.00    -0.273 N 
HETATM    6  H9  UNK     1      19.999   0.443  28.711  1.00  0.00     0.189 HD
BRANCH   5   7
HETATM    7  N3  UNK     1      19.778   1.824  30.202  1.00  0.00    -0.262 N 
HETATM    8  C13 UNK     1      18.578   2.510  30.179  1.00  0.00     0.293 C 
HETATM    9  O4  UNK     1      17.519   2.063  29.745  1.00  0.00    -0.264 OA
HETATM   10  H10 UNK     1      20.618   2.189  30.638  1.00  0.00     0.190 HD
BRANCH   8  11
HETATM   11  C12 UNK     1      18.620   3.893  30.718  1.00  0.00     0.144 A 
HETATM   12  O3  UNK     1      19.077   4.821  29.881  1.00  0.00    -0.317 OA
HETATM   13  C16 UNK     1      19.017   5.975  30.596  1.00  0.00     0.143 A 
HETATM   14  C15 UNK     1      18.526   5.735  31.859  1.00  0.00     0.027 A 
HETATM   15  C14 UNK     1      18.267   4.346  31.923  1.00  0.00     0.045 A 
ENDBRANCH   8  11
ENDBRANCH   5   7
ENDBRANCH   3   5
ENDBRANCH   1   3
BRANCH   1  16
HETATM   16  C4  UNK     1      18.779  -0.694  32.957  1.00  0.00     0.037 A 
HETATM   17  C6  UNK     1      19.560  -1.761  33.388  1.00  0.00     0.067 A 
HETATM   18  C2  UNK     1      19.563  -2.100  34.742  1.00  0.00     0.092 A 
HETATM   19  C1  UNK     1      18.805  -1.406  35.686  1.00  0.00     0.004 A 
HETATM   20  O1  UNK     1      20.374  -3.189  35.118  1.00  0.00    -0.275 OA
HETATM   21  C3  UNK     1      18.868  -1.832  37.092  1.00  0.00    -0.043 A 
HETATM   22  C5  UNK     1      18.024  -0.335  35.232  1.00  0.00     0.017 A 
HETATM   23  C8  UNK     1      19.649  -2.871  37.420  1.00  0.00     0.090 A 
HETATM   24  C9  UNK     1      18.065  -1.106  38.130  1.00  0.00     0.049 C 
HETATM   25  C10 UNK     1      20.455  -3.614  36.435  1.00  0.00     0.288 A 
HETATM   26  O2  UNK     1      21.158  -4.560  36.773  1.00  0.00    -0.260 OA
HETATM   27  C7  UNK     1      18.012   0.018  33.879  1.00  0.00     0.030 A 
ENDBRANCH   1  16
TORSDOF 5
ENDMDL
MODEL 9
REMARK VINA RESULT:      -8.6      2.383      8.539
REMARK  5 active torsions:
REMARK  status: ('A' for Active; 'I' for Inactive)
REMARK    1  A    between atoms: C11_19  and  N1_6 
REMARK    2  A    between atoms: C4_12  and  N1_6 
REMARK    3  A    between atoms: C11_19  and  N2_7 
REMARK    4  A    between atoms: N2_7  and  N3_8 
REMARK       I    between atoms: C13_21  and  N3_8 
REMARK    5  A    between atoms: C12_20  and  C13_21 
ROOT
HETATM    1  N1  UNK     1      18.563  -1.893  35.057  1.00  0.00    -0.332 N 
HETATM    2  H8  UNK     1      18.141  -2.781  34.795  1.00  0.00     0.168 HD
ENDROOT
BRANCH   1   3
HETATM    3  C11 UNK     1      18.843  -1.806  36.433  1.00  0.00     0.191 C 
HETATM    4  S1  UNK     1      18.018  -0.963  37.623  1.00  0.00    -0.039 SA
BRANCH   3   5
HETATM    5  N2  UNK     1      19.974  -2.511  36.830  1.00  0.00    -0.273 N 
HETATM    6  H9  UNK     1      20.909  -2.191  36.597  1.00  0.00     0.189 HD
BRANCH   5   7
HETATM    7  N3  UNK     1      19.883  -3.677  37.557  1.00  0.00    -0.262 N 
HETATM    8  C13 UNK     1      19.995  -4.885  36.894  1.00  0.00     0.293 C 
HETATM    9  O4  UNK     1      20.174  -5.013  35.686  1.00  0.00    -0.264 OA
HETATM   10  H10 UNK     1      19.814  -3.601  38.566  1.00  0.00     0.190 HD
BRANCH   8  11
HETATM   11  C12 UNK     1      19.870  -6.095  37.746  1.00  0.00     0.144 A 
HETATM   12  O3  UNK     1      19.141  -7.084  37.235  1.00  0.00    -0.317 OA
HETATM   13  C16 UNK     1      19.180  -8.055  38.185  1.00  0.00     0.143 A 
HETATM   14  C15 UNK     1      19.932  -7.646  39.262  1.00  0.00     0.027 A 
HETATM   15  C14 UNK     1      20.383  -6.341  38.953  1.00  0.00     0.045 A 
ENDBRANCH   8  11
ENDBRANCH   5   7
ENDBRANCH   3   5
ENDBRANCH   1   3
BRANCH   1  16
HETATM   16  C4  UNK     1      18.660  -1.007  33.985  1.00  0.00     0.037 A 
HETATM   17  C6  UNK     1      19.186  -1.435  32.771  1.00  0.00     0.067 A 
HETATM   18  C2  UNK     1      19.274  -0.532  31.710  1.00  0.00     0.092 A 
HETATM   19  C1  UNK     1      18.851   0.793  31.822  1.00  0.00     0.004 A 
HETATM   20  O1  UNK     1      19.815  -1.024  30.506  1.00  0.00    -0.275 OA
HETATM   21  C3  UNK     1      18.980   1.675  30.653  1.00  0.00    -0.043 A 
HETATM   22  C5  UNK     1      18.324   1.205  33.053  1.00  0.00     0.017 A 
HETATM   23  C8  UNK     1      19.498   1.179  29.521  1.00  0.00     0.090 A 
HETATM   24  C9  UNK     1      18.534   3.104  30.742  1.00  0.00     0.049 C 
HETATM   25  C10 UNK     1      19.949  -0.217  29.386  1.00  0.00     0.288 A 
HETATM   26  O2  UNK     1      20.419  -0.636  28.334  1.00  0.00    -0.260 OA
HETATM   27  C7  UNK     1      18.230   0.312  34.125  1.00  0.00     0.030 A 
ENDBRANCH   1  16
TORSDOF 5
ENDMDL
MODEL 10
REMARK VINA RESULT:      -8.6      6.258     10.424
REMARK  5 active torsions:
REMARK  status: ('A' for Active; 'I' for Inactive)
REMARK    1  A    between atoms: C11_19  and  N1_6 
REMARK    2  A    between atoms: C4_12  and  N1_6 
REMARK    3  A    between atoms: C11_19  and  N2_7 
REMARK    4  A    between atoms: N2_7  and  N3_8 
REMARK       I    between atoms: C13_21  and  N3_8 
REMARK    5  A    between atoms: C12_20  and  C13_21 
ROOT
HETATM    1  N1  UNK     1      18.529  -0.204  31.610  1.00  0.00    -0.332 N 
HETATM    2  H8  UNK     1      17.598  -0.589  31.467  1.00  0.00     0.168 HD
ENDROOT
BRANCH   1   3
HETATM    3  C11 UNK     1      19.464  -1.172  32.019  1.00  0.00     0.191 C 
HETATM    4  S1  UNK     1      20.779  -1.785  31.179  1.00  0.00    -0.039 SA
BRANCH   3   5
HETATM    5  N2  UNK     1      19.235  -1.685  33.291  1.00  0.00    -0.273 N 
HETATM    6  H9  UNK     1      19.287  -2.682  33.478  1.00  0.00     0.189 HD
BRANCH   5   7
HETATM    7  N3  UNK     1      18.925  -0.871  34.356  1.00  0.00    -0.262 N 
HETATM    8  C13 UNK     1      17.595  -0.632  34.648  1.00  0.00     0.293 C 
HETATM    9  O4  UNK     1      16.642  -1.095  34.026  1.00  0.00    -0.264 OA
HETATM   10  H10 UNK     1      19.689  -0.539  34.935  1.00  0.00     0.190 HD
BRANCH   8  11
HETATM   11  C12 UNK     1      17.345   0.269  35.802  1.00  0.00     0.144 A 
HETATM   12  O3  UNK     1      18.427   0.829  36.337  1.00  0.00    -0.317 OA
HETATM   13  C16 UNK     1      17.942   1.591  37.352  1.00  0.00     0.143 A 
HETATM   14  C15 UNK     1      16.572   1.485  37.423  1.00  0.00     0.027 A 
HETATM   15  C14 UNK     1      16.192   0.602  36.385  1.00  0.00     0.045 A 
ENDBRANCH   8  11
ENDBRANCH   5   7
ENDBRANCH   3   5
ENDBRANCH   1   3
BRANCH   1  16
HETATM   16  C4  UNK     1      18.572   1.179  31.434  1.00  0.00     0.037 A 
HETATM   17  C6  UNK     1      18.211   2.027  32.476  1.00  0.00     0.067 A 
HETATM   18  C2  UNK     1      18.262   3.408  32.279  1.00  0.00     0.092 A 
HETATM   19  C1  UNK     1      18.665   3.974  31.068  1.00  0.00     0.004 A 
HETATM   20  O1  UNK     1      17.885   4.215  33.370  1.00  0.00    -0.275 OA
HETATM   21  C3  UNK     1      18.689   5.439  30.950  1.00  0.00    -0.043 A 
HETATM   22  C5  UNK     1      19.025   3.102  30.032  1.00  0.00     0.017 A 
HETATM   23  C8  UNK     1      18.326   6.181  32.004  1.00  0.00     0.090 A 
HETATM   24  C9  UNK     1      19.118   6.077  29.661  1.00  0.00     0.049 C 
HETATM   25  C10 UNK     1      17.898   5.599  33.289  1.00  0.00     0.288 A 
HETATM   26  O2  UNK     1      17.572   6.311  34.232  1.00  0.00    -0.260 OA
HETATM   27  C7  UNK     1      18.979   1.717  30.214  1.00  0.00     0.030 A 
ENDBRANCH   1  16
TORSDOF 5
ENDMDL
