MODEL 1
REMARK VINA RESULT:      -8.0      0.000      0.000
REMARK  4 active torsions:
REMARK  status: ('A' for Active; 'I' for Inactive)
REMARK    1  A    between atoms: C8_13  and  O2_2 
REMARK    2  A    between atoms: C13_18  and  O4_4 
REMARK    3  A    between atoms: C11_16  and  O5_5 
REMARK    4  A    between atoms: C5_10  and  C6_11 
ROOT
HETATM    1  O1  UNK     1      19.416   2.294  31.039  1.00  0.00    -0.306 OA
HETATM    2  O3  UNK     1      17.817   2.543  27.889  1.00  0.00    -0.284 OA
HETATM    3  C1  UNK     1      19.012   0.938  29.213  1.00  0.00     0.051 A 
HETATM    4  C2  UNK     1      18.707   3.036  30.102  1.00  0.00     0.128 A 
HETATM    5  C3  UNK     1      19.582   1.048  30.480  1.00  0.00     0.093 A 
HETATM    6  C4  UNK     1      18.410   2.227  28.895  1.00  0.00     0.218 A 
HETATM    7  C6  UNK     1      18.339   4.308  30.263  1.00  0.00     0.055 C 
HETATM    8  C7  UNK     1      19.063  -0.225  28.475  1.00  0.00     0.021 A 
HETATM    9  C9  UNK     1      20.232  -0.018  31.065  1.00  0.00     0.074 A 
HETATM   10  C11 UNK     1      20.298  -1.211  30.336  1.00  0.00     0.068 A 
HETATM   11  C12 UNK     1      19.719  -1.314  29.055  1.00  0.00     0.037 A 
ENDROOT
BRANCH   7  12
HETATM   12  C5  UNK     1      18.616   5.144  31.447  1.00  0.00     0.003 A 
HETATM   13  C10 UNK     1      17.614   5.293  32.394  1.00  0.00     0.051 A 
HETATM   14  C13 UNK     1      17.852   6.079  33.522  1.00  0.00     0.069 A 
HETATM   15  C15 UNK     1      19.087   6.706  33.688  1.00  0.00     0.039 A 
HETATM   16  C14 UNK     1      20.084   6.546  32.726  1.00  0.00     0.040 A 
HETATM   17  C8  UNK     1      19.848   5.760  31.599  1.00  0.00     0.078 A 
BRANCH  14  18
HETATM   18  O4  UNK     1      16.878   6.235  34.461  1.00  0.00    -0.356 OA
HETATM   19  C17 UNK     1      16.787   7.509  35.096  1.00  0.00     0.210 C 
ENDBRANCH  14  18
BRANCH  17  20
HETATM   20  O2  UNK     1      20.841   5.620  30.675  1.00  0.00    -0.355 OA
HETATM   21  C16 UNK     1      22.178   5.819  31.129  1.00  0.00     0.210 C 
ENDBRANCH  17  20
ENDBRANCH   7  12
BRANCH  10  22
HETATM   22  O5  UNK     1      20.933  -2.292  30.873  1.00  0.00    -0.361 OA
HETATM   23  H8  UNK     1      20.468  -2.559  31.684  1.00  0.00     0.217 HD
ENDBRANCH  10  22
TORSDOF 4
ENDMDL
MODEL 2
REMARK VINA RESULT:      -8.0     21.644     24.107
REMARK  4 active torsions:
REMARK  status: ('A' for Active; 'I' for Inactive)
REMARK    1  A    between atoms: C8_13  and  O2_2 
REMARK    2  A    between atoms: C13_18  and  O4_4 
REMARK    3  A    between atoms: C11_16  and  O5_5 
REMARK    4  A    between atoms: C5_10  and  C6_11 
ROOT
HETATM    1  O1  UNK     1      11.497   7.618   8.881  1.00  0.00    -0.306 OA
HETATM    2  O3  UNK     1      12.097   6.184   5.700  1.00  0.00    -0.284 OA
HETATM    3  C1  UNK     1      10.259   6.769   7.126  1.00  0.00     0.051 A 
HETATM    4  C2  UNK     1      12.382   7.200   7.895  1.00  0.00     0.128 A 
HETATM    5  C3  UNK     1      10.239   7.348   8.393  1.00  0.00     0.093 A 
HETATM    6  C4  UNK     1      11.655   6.639   6.730  1.00  0.00     0.218 A 
HETATM    7  C6  UNK     1      13.710   7.290   7.981  1.00  0.00     0.055 C 
HETATM    8  C7  UNK     1       9.107   6.418   6.453  1.00  0.00     0.021 A 
HETATM    9  C9  UNK     1       9.051   7.604   9.043  1.00  0.00     0.074 A 
HETATM   10  C11 UNK     1       7.867   7.257   8.381  1.00  0.00     0.068 A 
HETATM   11  C12 UNK     1       7.895   6.670   7.100  1.00  0.00     0.037 A 
ENDROOT
BRANCH   7  12
HETATM   12  C5  UNK     1      14.467   7.840   9.120  1.00  0.00     0.003 A 
HETATM   13  C10 UNK     1      14.891   9.158   9.052  1.00  0.00     0.051 A 
HETATM   14  C13 UNK     1      15.610   9.701  10.118  1.00  0.00     0.069 A 
HETATM   15  C15 UNK     1      15.894   8.919  11.237  1.00  0.00     0.039 A 
HETATM   16  C14 UNK     1      15.461   7.595  11.291  1.00  0.00     0.040 A 
HETATM   17  C8  UNK     1      14.743   7.052  10.226  1.00  0.00     0.078 A 
BRANCH  14  18
HETATM   18  O4  UNK     1      16.033  10.995  10.065  1.00  0.00    -0.356 OA
HETATM   19  C17 UNK     1      17.434  11.225  10.197  1.00  0.00     0.210 C 
ENDBRANCH  14  18
BRANCH  17  20
HETATM   20  O2  UNK     1      14.330   5.755  10.306  1.00  0.00    -0.355 OA
HETATM   21  C16 UNK     1      15.272   4.752   9.931  1.00  0.00     0.210 C 
ENDBRANCH  17  20
ENDBRANCH   7  12
BRANCH  10  22
HETATM   22  O5  UNK     1       6.667   7.488   8.985  1.00  0.00    -0.361 OA
HETATM   23  H8  UNK     1       5.987   6.941   8.555  1.00  0.00     0.217 HD
ENDBRANCH  10  22
TORSDOF 4
ENDMDL
MODEL 3
REMARK VINA RESULT:      -7.9      4.328      6.694
REMARK  4 active torsions:
REMARK  status: ('A' for Active; 'I' for Inactive)
REMARK    1  A    between atoms: C8_13  and  O2_2 
REMARK    2  A    between atoms: C13_18  and  O4_4 
REMARK    3  A    between atoms: C11_16  and  O5_5 
REMARK    4  A    between atoms: C5_10  and  C6_11 
ROOT
HETATM    1  O1  UNK     1      19.250  -0.617  32.797  1.00  0.00    -0.306 OA
HETATM    2  O3  UNK     1      21.299  -3.426  32.124  1.00  0.00    -0.284 OA
HETATM    3  C1  UNK     1      20.318  -1.560  30.979  1.00  0.00     0.051 A 
HETATM    4  C2  UNK     1      19.913  -1.757  33.233  1.00  0.00     0.128 A 
HETATM    5  C3  UNK     1      19.511  -0.526  31.449  1.00  0.00     0.093 A 
HETATM    6  C4  UNK     1      20.625  -2.421  32.114  1.00  0.00     0.218 A 
HETATM    7  C6  UNK     1      19.912  -2.201  34.491  1.00  0.00     0.055 C 
HETATM    8  C7  UNK     1      20.701  -1.660  29.658  1.00  0.00     0.021 A 
HETATM    9  C9  UNK     1      19.051   0.461  30.604  1.00  0.00     0.074 A 
HETATM   10  C11 UNK     1      19.425   0.383  29.258  1.00  0.00     0.068 A 
HETATM   11  C12 UNK     1      20.242  -0.667  28.790  1.00  0.00     0.037 A 
ENDROOT
BRANCH   7  12
HETATM   12  C5  UNK     1      19.217  -1.569  35.629  1.00  0.00     0.003 A 
HETATM   13  C10 UNK     1      18.887  -0.227  35.534  1.00  0.00     0.051 A 
HETATM   14  C13 UNK     1      18.229   0.392  36.598  1.00  0.00     0.069 A 
HETATM   15  C15 UNK     1      17.911  -0.339  37.741  1.00  0.00     0.039 A 
HETATM   16  C14 UNK     1      18.249  -1.690  37.822  1.00  0.00     0.040 A 
HETATM   17  C8  UNK     1      18.906  -2.309  36.759  1.00  0.00     0.078 A 
BRANCH  14  18
HETATM   18  O4  UNK     1      17.898   1.711  36.519  1.00  0.00    -0.356 OA
HETATM   19  C17 UNK     1      18.326   2.419  35.357  1.00  0.00     0.210 C 
ENDBRANCH  14  18
BRANCH  17  20
HETATM   20  O2  UNK     1      19.225  -3.631  36.863  1.00  0.00    -0.355 OA
HETATM   21  C16 UNK     1      20.447  -3.951  37.524  1.00  0.00     0.210 C 
ENDBRANCH  17  20
ENDBRANCH   7  12
BRANCH  10  22
HETATM   22  O5  UNK     1      18.993   1.336  28.383  1.00  0.00    -0.361 OA
HETATM   23  H8  UNK     1      19.751   1.652  27.863  1.00  0.00     0.217 HD
ENDBRANCH  10  22
TORSDOF 4
ENDMDL
MODEL 4
REMARK VINA RESULT:      -7.9      1.554      2.373
REMARK  4 active torsions:
REMARK  status: ('A' for Active; 'I' for Inactive)
REMARK    1  A    between atoms: C8_13  and  O2_2 
REMARK    2  A    between atoms: C13_18  and  O4_4 
REMARK    3  A    between atoms: C11_16  and  O5_5 
REMARK    4  A    between atoms: C5_10  and  C6_11 
ROOT
HETATM    1  O1  UNK     1      19.406   1.695  31.021  1.00  0.00    -0.306 OA
HETATM    2  O3  UNK     1      17.824   2.444  27.942  1.00  0.00    -0.284 OA
HETATM    3  C1  UNK     1      19.030   0.656  28.992  1.00  0.00     0.051 A 
HETATM    4  C2  UNK     1      18.694   2.574  30.214  1.00  0.00     0.128 A 
HETATM    5  C3  UNK     1      19.591   0.561  30.264  1.00  0.00     0.093 A 
HETATM    6  C4  UNK     1      18.415   1.973  28.887  1.00  0.00     0.218 A 
HETATM    7  C6  UNK     1      18.310   3.798  30.580  1.00  0.00     0.055 C 
HETATM    8  C7  UNK     1      19.101  -0.369  28.072  1.00  0.00     0.021 A 
HETATM    9  C9  UNK     1      20.250  -0.579  30.670  1.00  0.00     0.074 A 
HETATM   10  C11 UNK     1      20.336  -1.635  29.755  1.00  0.00     0.068 A 
HETATM   11  C12 UNK     1      19.767  -1.530  28.469  1.00  0.00     0.037 A 
ENDROOT
BRANCH   7  12
HETATM   12  C5  UNK     1      18.568   4.429  31.888  1.00  0.00     0.003 A 
HETATM   13  C10 UNK     1      19.191   5.667  31.908  1.00  0.00     0.051 A 
HETATM   14  C13 UNK     1      19.447   6.284  33.134  1.00  0.00     0.069 A 
HETATM   15  C15 UNK     1      19.076   5.655  34.322  1.00  0.00     0.039 A 
HETATM   16  C14 UNK     1      18.449   4.409  34.285  1.00  0.00     0.040 A 
HETATM   17  C8  UNK     1      18.194   3.792  33.061  1.00  0.00     0.078 A 
BRANCH  14  18
HETATM   18  O4  UNK     1      20.058   7.500  33.170  1.00  0.00    -0.356 OA
HETATM   19  C17 UNK     1      19.809   8.318  34.311  1.00  0.00     0.210 C 
ENDBRANCH  14  18
BRANCH  17  20
HETATM   20  O2  UNK     1      17.579   2.576  33.054  1.00  0.00    -0.355 OA
HETATM   21  C16 UNK     1      17.889   1.688  34.125  1.00  0.00     0.210 C 
ENDBRANCH  17  20
ENDBRANCH   7  12
BRANCH  10  22
HETATM   22  O5  UNK     1      20.981  -2.782  30.111  1.00  0.00    -0.361 OA
HETATM   23  H8  UNK     1      21.779  -2.551  30.616  1.00  0.00     0.217 HD
ENDBRANCH  10  22
TORSDOF 4
ENDMDL
MODEL 5
REMARK VINA RESULT:      -7.8      7.673      9.994
REMARK  4 active torsions:
REMARK  status: ('A' for Active; 'I' for Inactive)
REMARK    1  A    between atoms: C8_13  and  O2_2 
REMARK    2  A    between atoms: C13_18  and  O4_4 
REMARK    3  A    between atoms: C11_16  and  O5_5 
REMARK    4  A    between atoms: C5_10  and  C6_11 
ROOT
HETATM    1  O1  UNK     1      19.432  -5.174  37.011  1.00  0.00    -0.306 OA
HETATM    2  O3  UNK     1      22.721  -4.971  38.309  1.00  0.00    -0.284 OA
HETATM    3  C1  UNK     1      20.924  -6.549  38.116  1.00  0.00     0.051 A 
HETATM    4  C2  UNK     1      20.596  -4.449  37.239  1.00  0.00     0.128 A 
HETATM    5  C3  UNK     1      19.659  -6.422  37.545  1.00  0.00     0.093 A 
HETATM    6  C4  UNK     1      21.605  -5.271  37.950  1.00  0.00     0.218 A 
HETATM    7  C6  UNK     1      20.784  -3.181  36.870  1.00  0.00     0.055 C 
HETATM    8  C7  UNK     1      21.357  -7.717  38.708  1.00  0.00     0.021 A 
HETATM    9  C9  UNK     1      18.768  -7.473  37.543  1.00  0.00     0.074 A 
HETATM   10  C11 UNK     1      19.183  -8.671  38.137  1.00  0.00     0.068 A 
HETATM   11  C12 UNK     1      20.464  -8.791  38.714  1.00  0.00     0.037 A 
ENDROOT
BRANCH   7  12
HETATM   12  C5  UNK     1      19.806  -2.333  36.163  1.00  0.00     0.003 A 
HETATM   13  C10 UNK     1      18.834  -1.688  36.911  1.00  0.00     0.051 A 
HETATM   14  C13 UNK     1      17.897  -0.881  36.265  1.00  0.00     0.069 A 
HETATM   15  C15 UNK     1      17.945  -0.730  34.879  1.00  0.00     0.039 A 
HETATM   16  C14 UNK     1      18.929  -1.386  34.140  1.00  0.00     0.040 A 
HETATM   17  C8  UNK     1      19.865  -2.192  34.785  1.00  0.00     0.078 A 
BRANCH  14  18
HETATM   18  O4  UNK     1      16.936  -0.240  36.987  1.00  0.00    -0.356 OA
HETATM   19  C17 UNK     1      17.347   0.889  37.756  1.00  0.00     0.210 C 
ENDBRANCH  14  18
BRANCH  17  20
HETATM   20  O2  UNK     1      20.817  -2.821  34.039  1.00  0.00    -0.355 OA
HETATM   21  C16 UNK     1      20.870  -2.494  32.652  1.00  0.00     0.210 C 
ENDBRANCH  17  20
ENDBRANCH   7  12
BRANCH  10  22
HETATM   22  O5  UNK     1      18.335  -9.738  38.161  1.00  0.00    -0.361 OA
HETATM   23  H8  UNK     1      18.672 -10.421  37.555  1.00  0.00     0.217 HD
ENDBRANCH  10  22
TORSDOF 4
ENDMDL
MODEL 6
REMARK VINA RESULT:      -7.6      3.838      5.280
REMARK  4 active torsions:
REMARK  status: ('A' for Active; 'I' for Inactive)
REMARK    1  A    between atoms: C8_13  and  O2_2 
REMARK    2  A    between atoms: C13_18  and  O4_4 
REMARK    3  A    between atoms: C11_16  and  O5_5 
REMARK    4  A    between atoms: C5_10  and  C6_11 
ROOT
HETATM    1  O1  UNK     1      18.201   2.294  34.509  1.00  0.00    -0.306 OA
HETATM    2  O3  UNK     1      17.954  -0.963  33.141  1.00  0.00    -0.284 OA
HETATM    3  C1  UNK     1      17.948   0.130  35.276  1.00  0.00     0.051 A 
HETATM    4  C2  UNK     1      18.176   1.448  33.406  1.00  0.00     0.128 A 
HETATM    5  C3  UNK     1      18.063   1.479  35.608  1.00  0.00     0.093 A 
HETATM    6  C4  UNK     1      18.016   0.034  33.824  1.00  0.00     0.218 A 
HETATM    7  C6  UNK     1      18.282   1.851  32.139  1.00  0.00     0.055 C 
HETATM    8  C7  UNK     1      17.800  -0.857  36.227  1.00  0.00     0.021 A 
HETATM    9  C9  UNK     1      18.032   1.896  36.922  1.00  0.00     0.074 A 
HETATM   10  C11 UNK     1      17.883   0.913  37.907  1.00  0.00     0.068 A 
HETATM   11  C12 UNK     1      17.768  -0.450  37.563  1.00  0.00     0.037 A 
ENDROOT
BRANCH   7  12
HETATM   12  C5  UNK     1      18.443   3.245  31.686  1.00  0.00     0.003 A 
HETATM   13  C10 UNK     1      18.215   4.263  32.599  1.00  0.00     0.051 A 
HETATM   14  C13 UNK     1      18.361   5.590  32.194  1.00  0.00     0.069 A 
HETATM   15  C15 UNK     1      18.731   5.882  30.881  1.00  0.00     0.039 A 
HETATM   16  C14 UNK     1      18.956   4.847  29.974  1.00  0.00     0.040 A 
HETATM   17  C8  UNK     1      18.811   3.520  30.379  1.00  0.00     0.078 A 
BRANCH  14  18
HETATM   18  O4  UNK     1      18.141   6.601  33.080  1.00  0.00    -0.356 OA
HETATM   19  C17 UNK     1      19.222   6.957  33.939  1.00  0.00     0.210 C 
ENDBRANCH  14  18
BRANCH  17  20
HETATM   20  O2  UNK     1      19.039   2.528  29.472  1.00  0.00    -0.355 OA
HETATM   21  C16 UNK     1      17.934   2.122  28.667  1.00  0.00     0.210 C 
ENDBRANCH  17  20
ENDBRANCH   7  12
BRANCH  10  22
HETATM   22  O5  UNK     1      17.850   1.277  39.220  1.00  0.00    -0.361 OA
HETATM   23  H8  UNK     1      17.673   0.488  39.761  1.00  0.00     0.217 HD
ENDBRANCH  10  22
TORSDOF 4
ENDMDL
MODEL 7
REMARK VINA RESULT:      -7.6      2.192      2.893
REMARK  4 active torsions:
REMARK  status: ('A' for Active; 'I' for Inactive)
REMARK    1  A    between atoms: C8_13  and  O2_2 
REMARK    2  A    between atoms: C13_18  and  O4_4 
REMARK    3  A    between atoms: C11_16  and  O5_5 
REMARK    4  A    between atoms: C5_10  and  C6_11 
ROOT
HETATM    1  O1  UNK     1      17.986   3.215  33.237  1.00  0.00    -0.306 OA
HETATM    2  O3  UNK     1      18.849   3.201  29.803  1.00  0.00    -0.284 OA
HETATM    3  C1  UNK     1      18.675   1.682  31.652  1.00  0.00     0.051 A 
HETATM    4  C2  UNK     1      18.158   3.890  32.035  1.00  0.00     0.128 A 
HETATM    5  C3  UNK     1      18.302   1.901  32.977  1.00  0.00     0.093 A 
HETATM    6  C4  UNK     1      18.603   2.965  30.964  1.00  0.00     0.218 A 
HETATM    7  C6  UNK     1      17.951   5.196  31.862  1.00  0.00     0.055 C 
HETATM    8  C7  UNK     1      19.031   0.438  31.178  1.00  0.00     0.021 A 
HETATM    9  C9  UNK     1      18.269   0.868  33.889  1.00  0.00     0.074 A 
HETATM   10  C11 UNK     1      18.626  -0.406  33.433  1.00  0.00     0.068 A 
HETATM   11  C12 UNK     1      19.003  -0.619  32.091  1.00  0.00     0.037 A 
ENDROOT
BRANCH   7  12
HETATM   12  C5  UNK     1      17.509   6.145  32.901  1.00  0.00     0.003 A 
HETATM   13  C10 UNK     1      16.196   6.587  32.871  1.00  0.00     0.051 A 
HETATM   14  C13 UNK     1      15.755   7.486  33.843  1.00  0.00     0.069 A 
HETATM   15  C15 UNK     1      16.633   7.931  34.831  1.00  0.00     0.039 A 
HETATM   16  C14 UNK     1      17.951   7.477  34.847  1.00  0.00     0.040 A 
HETATM   17  C8  UNK     1      18.393   6.579  33.877  1.00  0.00     0.078 A 
BRANCH  14  18
HETATM   18  O4  UNK     1      14.467   7.929  33.827  1.00  0.00    -0.356 OA
HETATM   19  C17 UNK     1      14.266   9.340  33.853  1.00  0.00     0.210 C 
ENDBRANCH  14  18
BRANCH  17  20
HETATM   20  O2  UNK     1      19.686   6.151  33.917  1.00  0.00    -0.355 OA
HETATM   21  C16 UNK     1      20.635   6.886  33.147  1.00  0.00     0.210 C 
ENDBRANCH  17  20
ENDBRANCH   7  12
BRANCH  10  22
HETATM   22  O5  UNK     1      18.610  -1.458  34.299  1.00  0.00    -0.361 OA
HETATM   23  H8  UNK     1      18.837  -2.270  33.813  1.00  0.00     0.217 HD
ENDBRANCH  10  22
TORSDOF 4
ENDMDL
MODEL 8
REMARK VINA RESULT:      -7.6      7.704     11.384
REMARK  4 active torsions:
REMARK  status: ('A' for Active; 'I' for Inactive)
REMARK    1  A    between atoms: C8_13  and  O2_2 
REMARK    2  A    between atoms: C13_18  and  O4_4 
REMARK    3  A    between atoms: C11_16  and  O5_5 
REMARK    4  A    between atoms: C5_10  and  C6_11 
ROOT
HETATM    1  O1  UNK     1      19.035  -2.827  37.323  1.00  0.00    -0.306 OA
HETATM    2  O3  UNK     1      20.318  -2.293  34.065  1.00  0.00    -0.284 OA
HETATM    3  C1  UNK     1      19.091  -1.124  35.763  1.00  0.00     0.051 A 
HETATM    4  C2  UNK     1      19.724  -3.289  36.207  1.00  0.00     0.128 A 
HETATM    5  C3  UNK     1      18.671  -1.534  37.027  1.00  0.00     0.093 A 
HETATM    6  C4  UNK     1      19.799  -2.244  35.158  1.00  0.00     0.218 A 
HETATM    7  C6  UNK     1      20.249  -4.510  36.092  1.00  0.00     0.055 C 
HETATM    8  C7  UNK     1      18.831   0.136  35.268  1.00  0.00     0.021 A 
HETATM    9  C9  UNK     1      17.967  -0.686  37.855  1.00  0.00     0.074 A 
HETATM   10  C11 UNK     1      17.690   0.600  37.376  1.00  0.00     0.068 A 
HETATM   11  C12 UNK     1      18.118   1.006  36.096  1.00  0.00     0.037 A 
ENDROOT
BRANCH   7  12
HETATM   12  C5  UNK     1      20.194  -5.574  37.112  1.00  0.00     0.003 A 
HETATM   13  C10 UNK     1      21.284  -5.735  37.953  1.00  0.00     0.051 A 
HETATM   14  C13 UNK     1      21.256  -6.735  38.925  1.00  0.00     0.069 A 
HETATM   15  C15 UNK     1      20.138  -7.560  39.044  1.00  0.00     0.039 A 
HETATM   16  C14 UNK     1      19.049  -7.385  38.192  1.00  0.00     0.040 A 
HETATM   17  C8  UNK     1      19.076  -6.386  37.220  1.00  0.00     0.078 A 
BRANCH  14  18
HETATM   18  O4  UNK     1      22.320  -6.905  39.758  1.00  0.00    -0.356 OA
HETATM   19  C17 UNK     1      23.517  -7.424  39.183  1.00  0.00     0.210 C 
ENDBRANCH  14  18
BRANCH  17  20
HETATM   20  O2  UNK     1      17.997  -6.236  36.400  1.00  0.00    -0.355 OA
HETATM   21  C16 UNK     1      17.698  -7.319  35.521  1.00  0.00     0.210 C 
ENDBRANCH  17  20
ENDBRANCH   7  12
BRANCH  10  22
HETATM   22  O5  UNK     1      16.995   1.473  38.159  1.00  0.00    -0.361 OA
HETATM   23  H8  UNK     1      17.246   2.381  37.916  1.00  0.00     0.217 HD
ENDBRANCH  10  22
TORSDOF 4
ENDMDL
MODEL 9
REMARK VINA RESULT:      -7.5      3.425      4.650
REMARK  4 active torsions:
REMARK  status: ('A' for Active; 'I' for Inactive)
REMARK    1  A    between atoms: C8_13  and  O2_2 
REMARK    2  A    between atoms: C13_18  and  O4_4 
REMARK    3  A    between atoms: C11_16  and  O5_5 
REMARK    4  A    between atoms: C5_10  and  C6_11 
ROOT
HETATM    1  O1  UNK     1      18.216   3.566  34.497  1.00  0.00    -0.306 OA
HETATM    2  O3  UNK     1      18.281   1.712  31.480  1.00  0.00    -0.284 OA
HETATM    3  C1  UNK     1      18.267   1.348  33.852  1.00  0.00     0.051 A 
HETATM    4  C2  UNK     1      18.230   3.524  33.108  1.00  0.00     0.128 A 
HETATM    5  C3  UNK     1      18.239   2.254  34.911  1.00  0.00     0.093 A 
HETATM    6  C4  UNK     1      18.263   2.124  32.618  1.00  0.00     0.218 A 
HETATM    7  C6  UNK     1      18.214   4.597  32.317  1.00  0.00     0.055 C 
HETATM    8  C7  UNK     1      18.293  -0.017  34.043  1.00  0.00     0.021 A 
HETATM    9  C9  UNK     1      18.235   1.821  36.219  1.00  0.00     0.074 A 
HETATM   10  C11 UNK     1      18.261   0.440  36.442  1.00  0.00     0.068 A 
HETATM   11  C12 UNK     1      18.289  -0.470  35.365  1.00  0.00     0.037 A 
ENDROOT
BRANCH   7  12
HETATM   12  C5  UNK     1      18.181   6.001  32.766  1.00  0.00     0.003 A 
HETATM   13  C10 UNK     1      19.355   6.568  33.237  1.00  0.00     0.051 A 
HETATM   14  C13 UNK     1      19.348   7.895  33.668  1.00  0.00     0.069 A 
HETATM   15  C15 UNK     1      18.168   8.637  33.623  1.00  0.00     0.039 A 
HETATM   16  C14 UNK     1      16.994   8.052  33.147  1.00  0.00     0.040 A 
HETATM   17  C8  UNK     1      17.000   6.726  32.716  1.00  0.00     0.078 A 
BRANCH  14  18
HETATM   18  O4  UNK     1      20.494   8.466  34.133  1.00  0.00    -0.356 OA
HETATM   19  C17 UNK     1      20.425   9.838  34.518  1.00  0.00     0.210 C 
ENDBRANCH  14  18
BRANCH  17  20
HETATM   20  O2  UNK     1      15.840   6.180  32.254  1.00  0.00    -0.355 OA
HETATM   21  C16 UNK     1      14.765   7.078  31.986  1.00  0.00     0.210 C 
ENDBRANCH  17  20
ENDBRANCH   7  12
BRANCH  10  22
HETATM   22  O5  UNK     1      18.259  -0.036  37.720  1.00  0.00    -0.361 OA
HETATM   23  H8  UNK     1      18.309   0.716  38.335  1.00  0.00     0.217 HD
ENDBRANCH  10  22
TORSDOF 4
ENDMDL
MODEL 10
REMARK VINA RESULT:      -7.5      7.392     10.092
REMARK  4 active torsions:
REMARK  status: ('A' for Active; 'I' for Inactive)
REMARK    1  A    between atoms: C8_13  and  O2_2 
REMARK    2  A    between atoms: C13_18  and  O4_4 
REMARK    3  A    between atoms: C11_16  and  O5_5 
REMARK    4  A    between atoms: C5_10  and  C6_11 
ROOT
HETATM    1  O1  UNK     1      19.394  -5.042  36.664  1.00  0.00    -0.306 OA
HETATM    2  O3  UNK     1      22.531  -4.673  38.265  1.00  0.00    -0.284 OA
HETATM    3  C1  UNK     1      20.762  -6.280  38.054  1.00  0.00     0.051 A 
HETATM    4  C2  UNK     1      20.528  -4.286  36.934  1.00  0.00     0.128 A 
HETATM    5  C3  UNK     1      19.563  -6.225  37.346  1.00  0.00     0.093 A 
HETATM    6  C4  UNK     1      21.458  -5.019  37.826  1.00  0.00     0.218 A 
HETATM    7  C6  UNK     1      20.755  -3.061  36.455  1.00  0.00     0.055 C 
HETATM    8  C7  UNK     1      21.130  -7.375  38.806  1.00  0.00     0.021 A 
HETATM    9  C9  UNK     1      18.676  -7.280  37.361  1.00  0.00     0.074 A 
HETATM   10  C11 UNK     1      19.026  -8.405  38.117  1.00  0.00     0.068 A 
HETATM   11  C12 UNK     1      20.241  -8.452  38.831  1.00  0.00     0.037 A 
ENDROOT
BRANCH   7  12
HETATM   12  C5  UNK     1      19.856  -2.301  35.567  1.00  0.00     0.003 A 
HETATM   13  C10 UNK     1      20.119  -2.305  34.206  1.00  0.00     0.051 A 
HETATM   14  C13 UNK     1      19.283  -1.592  33.346  1.00  0.00     0.069 A 
HETATM   15  C15 UNK     1      18.195  -0.886  33.858  1.00  0.00     0.039 A 
HETATM   16  C14 UNK     1      17.943  -0.892  35.229  1.00  0.00     0.040 A 
HETATM   17  C8  UNK     1      18.778  -1.603  36.090  1.00  0.00     0.078 A 
BRANCH  14  18
HETATM   18  O4  UNK     1      19.529  -1.587  32.006  1.00  0.00    -0.356 OA
HETATM   19  C17 UNK     1      19.440  -0.331  31.336  1.00  0.00     0.210 C 
ENDBRANCH  14  18
BRANCH  17  20
HETATM   20  O2  UNK     1      18.508  -1.593  37.426  1.00  0.00    -0.355 OA
HETATM   21  C16 UNK     1      17.867  -0.431  37.947  1.00  0.00     0.210 C 
ENDBRANCH  17  20
ENDBRANCH   7  12
BRANCH  10  22
HETATM   22  O5  UNK     1      18.179  -9.472  38.165  1.00  0.00    -0.361 OA
HETATM   23  H8  UNK     1      17.273  -9.149  38.305  1.00  0.00     0.217 HD
ENDBRANCH  10  22
TORSDOF 4
ENDMDL
