MODEL 1
REMARK VINA RESULT:      -8.6      0.000      0.000
REMARK  4 active torsions:
REMARK  status: ('A' for Active; 'I' for Inactive)
REMARK    1  A    between atoms: C5_9  and  O2_2 
REMARK    2  A    between atoms: C13_17  and  O3_3 
REMARK    3  A    between atoms: C17_21  and  O3_3 
REMARK    4  A    between atoms: C3_7  and  C4_8 
ROOT
HETATM    1  O1  UNK     1      19.498   1.445  31.310  1.00  0.00    -0.306 OA
HETATM    2  O4  UNK     1      18.745   0.108  27.534  1.00  0.00    -0.284 OA
HETATM    3  C1  UNK     1      19.563  -0.367  29.695  1.00  0.00     0.051 A 
HETATM    4  C2  UNK     1      19.798   0.152  30.966  1.00  0.00     0.091 A 
HETATM    5  C3  UNK     1      18.928   2.268  30.351  1.00  0.00     0.123 A 
HETATM    6  C5  UNK     1      18.659   1.894  29.087  1.00  0.00     0.152 A 
HETATM    7  C6  UNK     1      18.969   0.506  28.670  1.00  0.00     0.220 A 
HETATM    8  C7  UNK     1      20.362  -0.654  31.955  1.00  0.00     0.045 A 
HETATM    9  C8  UNK     1      20.690  -1.980  31.667  1.00  0.00    -0.059 A 
HETATM   10  C9  UNK     1      19.889  -1.693  29.402  1.00  0.00     0.019 A 
HETATM   11  C10 UNK     1      20.454  -2.497  30.392  1.00  0.00     0.008 A 
HETATM   12  C16 UNK     1      21.294  -2.844  32.721  1.00  0.00     0.048 C 
ENDROOT
BRANCH   5  13
HETATM   13  C4  UNK     1      18.658   3.629  30.850  1.00  0.00     0.001 A 
HETATM   14  C11 UNK     1      19.124   4.737  30.142  1.00  0.00     0.017 A 
HETATM   15  C14 UNK     1      18.867   6.023  30.615  1.00  0.00     0.037 A 
HETATM   16  C13 UNK     1      18.145   6.203  31.795  1.00  0.00     0.068 A 
HETATM   17  C15 UNK     1      17.679   5.095  32.502  1.00  0.00     0.037 A 
HETATM   18  C12 UNK     1      17.935   3.807  32.030  1.00  0.00     0.017 A 
BRANCH  16  19
HETATM   19  O3  UNK     1      17.894   7.458  32.255  1.00  0.00    -0.352 OA
BRANCH  19  20
HETATM   20  C17 UNK     1      18.006   7.669  33.663  1.00  0.00     0.171 C 
HETATM   21  C18 UNK     1      19.436   8.039  33.994  1.00  0.00     0.034 C 
ENDBRANCH  19  20
ENDBRANCH  16  19
ENDBRANCH   5  13
BRANCH   6  22
HETATM   22  O2  UNK     1      18.122   2.748  28.148  1.00  0.00    -0.355 OA
HETATM   23  H11 UNK     1      17.242   3.015  28.465  1.00  0.00     0.218 HD
ENDBRANCH   6  22
TORSDOF 4
ENDMDL
MODEL 2
REMARK VINA RESULT:      -8.2      2.221      8.836
REMARK  4 active torsions:
REMARK  status: ('A' for Active; 'I' for Inactive)
REMARK    1  A    between atoms: C5_9  and  O2_2 
REMARK    2  A    between atoms: C13_17  and  O3_3 
REMARK    3  A    between atoms: C17_21  and  O3_3 
REMARK    4  A    between atoms: C3_7  and  C4_8 
ROOT
HETATM    1  O1  UNK     1      17.031   7.197  32.178  1.00  0.00    -0.306 OA
HETATM    2  O4  UNK     1      19.892   8.974  34.473  1.00  0.00    -0.284 OA
HETATM    3  C1  UNK     1      17.699   9.041  33.608  1.00  0.00     0.051 A 
HETATM    4  C2  UNK     1      16.766   8.385  32.809  1.00  0.00     0.091 A 
HETATM    5  C3  UNK     1      18.280   6.621  32.351  1.00  0.00     0.123 A 
HETATM    6  C5  UNK     1      19.271   7.155  33.089  1.00  0.00     0.152 A 
HETATM    7  C6  UNK     1      19.029   8.440  33.787  1.00  0.00     0.220 A 
HETATM    8  C7  UNK     1      15.498   8.935  32.622  1.00  0.00     0.045 A 
HETATM    9  C8  UNK     1      15.167  10.143  33.237  1.00  0.00    -0.059 A 
HETATM   10  C9  UNK     1      17.371  10.251  34.227  1.00  0.00     0.019 A 
HETATM   11  C10 UNK     1      16.103  10.799  34.039  1.00  0.00     0.008 A 
HETATM   12  C16 UNK     1      13.812  10.734  33.039  1.00  0.00     0.048 C 
ENDROOT
BRANCH   5  13
HETATM   13  C4  UNK     1      18.433   5.350  31.620  1.00  0.00     0.001 A 
HETATM   14  C11 UNK     1      18.095   4.145  32.236  1.00  0.00     0.017 A 
HETATM   15  C14 UNK     1      18.240   2.944  31.542  1.00  0.00     0.037 A 
HETATM   16  C13 UNK     1      18.723   2.947  30.233  1.00  0.00     0.068 A 
HETATM   17  C15 UNK     1      19.061   4.152  29.618  1.00  0.00     0.037 A 
HETATM   18  C12 UNK     1      18.916   5.354  30.311  1.00  0.00     0.017 A 
BRANCH  16  19
HETATM   19  O3  UNK     1      18.863   1.775  29.557  1.00  0.00    -0.352 OA
BRANCH  19  20
HETATM   20  C17 UNK     1      19.442   0.680  30.267  1.00  0.00     0.171 C 
HETATM   21  C18 UNK     1      20.401  -0.050  29.351  1.00  0.00     0.034 C 
ENDBRANCH  19  20
ENDBRANCH  16  19
ENDBRANCH   5  13
BRANCH   6  22
HETATM   22  O2  UNK     1      20.513   6.573  33.214  1.00  0.00    -0.355 OA
HETATM   23  H11 UNK     1      20.926   6.572  32.333  1.00  0.00     0.218 HD
ENDBRANCH   6  22
TORSDOF 4
ENDMDL
MODEL 3
REMARK VINA RESULT:      -8.1      2.257      3.126
REMARK  4 active torsions:
REMARK  status: ('A' for Active; 'I' for Inactive)
REMARK    1  A    between atoms: C5_9  and  O2_2 
REMARK    2  A    between atoms: C13_17  and  O3_3 
REMARK    3  A    between atoms: C17_21  and  O3_3 
REMARK    4  A    between atoms: C3_7  and  C4_8 
ROOT
HETATM    1  O1  UNK     1      18.101   3.291  33.348  1.00  0.00    -0.306 OA
HETATM    2  O4  UNK     1      19.160   1.677  29.759  1.00  0.00    -0.284 OA
HETATM    3  C1  UNK     1      18.638   1.323  32.032  1.00  0.00     0.051 A 
HETATM    4  C2  UNK     1      18.278   1.937  33.229  1.00  0.00     0.091 A 
HETATM    5  C3  UNK     1      18.277   4.082  32.224  1.00  0.00     0.123 A 
HETATM    6  C5  UNK     1      18.632   3.616  31.012  1.00  0.00     0.152 A 
HETATM    7  C6  UNK     1      18.838   2.159  30.838  1.00  0.00     0.220 A 
HETATM    8  C7  UNK     1      18.085   1.168  34.377  1.00  0.00     0.045 A 
HETATM    9  C8  UNK     1      18.251  -0.217  34.321  1.00  0.00    -0.059 A 
HETATM   10  C9  UNK     1      18.805  -0.063  31.971  1.00  0.00     0.019 A 
HETATM   11  C10 UNK     1      18.611  -0.830  33.119  1.00  0.00     0.008 A 
HETATM   12  C16 UNK     1      18.045  -1.043  35.546  1.00  0.00     0.048 C 
ENDROOT
BRANCH   5  13
HETATM   13  C4  UNK     1      18.057   5.515  32.488  1.00  0.00     0.001 A 
HETATM   14  C11 UNK     1      19.079   6.288  33.041  1.00  0.00     0.017 A 
HETATM   15  C14 UNK     1      18.869   7.644  33.290  1.00  0.00     0.037 A 
HETATM   16  C13 UNK     1      17.639   8.228  32.989  1.00  0.00     0.068 A 
HETATM   17  C15 UNK     1      16.617   7.454  32.437  1.00  0.00     0.037 A 
HETATM   18  C12 UNK     1      16.826   6.098  32.187  1.00  0.00     0.017 A 
BRANCH  16  19
HETATM   19  O3  UNK     1      17.435   9.550  33.232  1.00  0.00    -0.352 OA
BRANCH  19  20
HETATM   20  C17 UNK     1      18.459  10.246  33.941  1.00  0.00     0.171 C 
HETATM   21  C18 UNK     1      18.023  11.680  34.156  1.00  0.00     0.034 C 
ENDBRANCH  19  20
ENDBRANCH  16  19
ENDBRANCH   5  13
BRANCH   6  22
HETATM   22  O2  UNK     1      18.832   4.434  29.921  1.00  0.00    -0.355 OA
HETATM   23  H11 UNK     1      19.564   4.056  29.402  1.00  0.00     0.218 HD
ENDBRANCH   6  22
TORSDOF 4
ENDMDL
MODEL 4
REMARK VINA RESULT:      -7.9     12.478     16.274
REMARK  4 active torsions:
REMARK  status: ('A' for Active; 'I' for Inactive)
REMARK    1  A    between atoms: C5_9  and  O2_2 
REMARK    2  A    between atoms: C13_17  and  O3_3 
REMARK    3  A    between atoms: C17_21  and  O3_3 
REMARK    4  A    between atoms: C3_7  and  C4_8 
ROOT
HETATM    1  O1  UNK     1      19.195  -0.753  17.798  1.00  0.00    -0.306 OA
HETATM    2  O4  UNK     1      19.402   2.458  15.297  1.00  0.00    -0.284 OA
HETATM    3  C1  UNK     1      19.387   1.650  17.513  1.00  0.00     0.051 A 
HETATM    4  C2  UNK     1      19.309   0.512  18.313  1.00  0.00     0.091 A 
HETATM    5  C3  UNK     1      19.165  -0.907  16.421  1.00  0.00     0.123 A 
HETATM    6  C5  UNK     1      19.223   0.109  15.539  1.00  0.00     0.152 A 
HETATM    7  C6  UNK     1      19.344   1.495  16.051  1.00  0.00     0.220 A 
HETATM    8  C7  UNK     1      19.345   0.633  19.702  1.00  0.00     0.045 A 
HETATM    9  C8  UNK     1      19.460   1.894  20.287  1.00  0.00    -0.059 A 
HETATM   10  C9  UNK     1      19.502   2.915  18.094  1.00  0.00     0.019 A 
HETATM   11  C10 UNK     1      19.538   3.033  19.483  1.00  0.00     0.008 A 
HETATM   12  C16 UNK     1      19.498   2.027  21.772  1.00  0.00     0.048 C 
ENDROOT
BRANCH   5  13
HETATM   13  C4  UNK     1      19.040  -2.314  16.002  1.00  0.00     0.001 A 
HETATM   14  C11 UNK     1      17.779  -2.860  15.760  1.00  0.00     0.017 A 
HETATM   15  C14 UNK     1      17.661  -4.192  15.363  1.00  0.00     0.037 A 
HETATM   16  C13 UNK     1      18.803  -4.978  15.209  1.00  0.00     0.068 A 
HETATM   17  C15 UNK     1      20.063  -4.432  15.451  1.00  0.00     0.037 A 
HETATM   18  C12 UNK     1      20.182  -3.100  15.848  1.00  0.00     0.017 A 
BRANCH  16  19
HETATM   19  O3  UNK     1      18.688  -6.277  14.821  1.00  0.00    -0.352 OA
BRANCH  19  20
HETATM   20  C17 UNK     1      17.455  -6.935  15.109  1.00  0.00     0.171 C 
HETATM   21  C18 UNK     1      16.886  -7.501  13.826  1.00  0.00     0.034 C 
ENDBRANCH  19  20
ENDBRANCH  16  19
ENDBRANCH   5  13
BRANCH   6  22
HETATM   22  O2  UNK     1      19.158  -0.075  14.175  1.00  0.00    -0.355 OA
HETATM   23  H11 UNK     1      19.136   0.805  13.762  1.00  0.00     0.218 HD
ENDBRANCH   6  22
TORSDOF 4
ENDMDL
MODEL 5
REMARK VINA RESULT:      -7.7      5.499     10.372
REMARK  4 active torsions:
REMARK  status: ('A' for Active; 'I' for Inactive)
REMARK    1  A    between atoms: C5_9  and  O2_2 
REMARK    2  A    between atoms: C13_17  and  O3_3 
REMARK    3  A    between atoms: C17_21  and  O3_3 
REMARK    4  A    between atoms: C3_7  and  C4_8 
ROOT
HETATM    1  O1  UNK     1      20.316  -3.299  34.453  1.00  0.00    -0.306 OA
HETATM    2  O4  UNK     1      17.879  -0.428  36.012  1.00  0.00    -0.284 OA
HETATM    3  C1  UNK     1      19.080  -1.232  34.148  1.00  0.00     0.051 A 
HETATM    4  C2  UNK     1      19.913  -2.244  33.676  1.00  0.00     0.091 A 
HETATM    5  C3  UNK     1      19.866  -3.366  35.762  1.00  0.00     0.123 A 
HETATM    6  C5  UNK     1      19.066  -2.451  36.342  1.00  0.00     0.152 A 
HETATM    7  C6  UNK     1      18.608  -1.291  35.540  1.00  0.00     0.220 A 
HETATM    8  C7  UNK     1      20.377  -2.210  32.361  1.00  0.00     0.045 A 
HETATM    9  C8  UNK     1      20.002  -1.162  31.520  1.00  0.00    -0.059 A 
HETATM   10  C9  UNK     1      18.702  -0.180  33.309  1.00  0.00     0.019 A 
HETATM   11  C10 UNK     1      19.166  -0.149  31.994  1.00  0.00     0.008 A 
HETATM   12  C16 UNK     1      20.496  -1.122  30.113  1.00  0.00     0.048 C 
ENDROOT
BRANCH   5  13
HETATM   13  C4  UNK     1      20.372  -4.546  36.485  1.00  0.00     0.001 A 
HETATM   14  C11 UNK     1      21.242  -4.384  37.564  1.00  0.00     0.017 A 
HETATM   15  C14 UNK     1      21.720  -5.502  38.247  1.00  0.00     0.037 A 
HETATM   16  C13 UNK     1      21.330  -6.782  37.852  1.00  0.00     0.068 A 
HETATM   17  C15 UNK     1      20.460  -6.943  36.773  1.00  0.00     0.037 A 
HETATM   18  C12 UNK     1      19.981  -5.826  36.089  1.00  0.00     0.017 A 
BRANCH  16  19
HETATM   19  O3  UNK     1      21.795  -7.872  38.519  1.00  0.00    -0.352 OA
BRANCH  19  20
HETATM   20  C17 UNK     1      21.162  -9.121  38.245  1.00  0.00     0.171 C 
HETATM   21  C18 UNK     1      20.217  -9.455  39.380  1.00  0.00     0.034 C 
ENDBRANCH  19  20
ENDBRANCH  16  19
ENDBRANCH   5  13
BRANCH   6  22
HETATM   22  O2  UNK     1      18.663  -2.529  37.657  1.00  0.00    -0.355 OA
HETATM   23  H11 UNK     1      17.690  -2.539  37.664  1.00  0.00     0.218 HD
ENDBRANCH   6  22
TORSDOF 4
ENDMDL
MODEL 6
REMARK VINA RESULT:      -7.5     22.134     24.239
REMARK  4 active torsions:
REMARK  status: ('A' for Active; 'I' for Inactive)
REMARK    1  A    between atoms: C5_9  and  O2_2 
REMARK    2  A    between atoms: C13_17  and  O3_3 
REMARK    3  A    between atoms: C17_21  and  O3_3 
REMARK    4  A    between atoms: C3_7  and  C4_8 
ROOT
HETATM    1  O1  UNK     1      10.212   5.416   9.668  1.00  0.00    -0.306 OA
HETATM    2  O4  UNK     1      10.212   6.950   5.892  1.00  0.00    -0.284 OA
HETATM    3  C1  UNK     1      11.466   6.153   7.725  1.00  0.00     0.051 A 
HETATM    4  C2  UNK     1      11.397   5.634   9.015  1.00  0.00     0.091 A 
HETATM    5  C3  UNK     1       9.030   5.718   9.010  1.00  0.00     0.123 A 
HETATM    6  C5  UNK     1       8.958   6.232   7.768  1.00  0.00     0.152 A 
HETATM    7  C6  UNK     1      10.215   6.486   7.026  1.00  0.00     0.220 A 
HETATM    8  C7  UNK     1      12.569   5.312   9.701  1.00  0.00     0.045 A 
HETATM    9  C8  UNK     1      13.808   5.511   9.090  1.00  0.00    -0.059 A 
HETATM   10  C9  UNK     1      12.704   6.353   7.109  1.00  0.00     0.019 A 
HETATM   11  C10 UNK     1      13.874   6.031   7.796  1.00  0.00     0.008 A 
HETATM   12  C16 UNK     1      15.063   5.169   9.820  1.00  0.00     0.048 C 
ENDROOT
BRANCH   5  13
HETATM   13  C4  UNK     1       7.832   5.438   9.823  1.00  0.00     0.001 A 
HETATM   14  C11 UNK     1       7.270   4.162   9.820  1.00  0.00     0.017 A 
HETATM   15  C14 UNK     1       6.137   3.898  10.590  1.00  0.00     0.037 A 
HETATM   16  C13 UNK     1       5.566   4.910  11.362  1.00  0.00     0.068 A 
HETATM   17  C15 UNK     1       6.129   6.187  11.364  1.00  0.00     0.037 A 
HETATM   18  C12 UNK     1       7.262   6.451  10.595  1.00  0.00     0.017 A 
BRANCH  16  19
HETATM   19  O3  UNK     1       4.462   4.653  12.113  1.00  0.00    -0.352 OA
BRANCH  19  20
HETATM   20  C17 UNK     1       4.542   3.566  13.035  1.00  0.00     0.171 C 
HETATM   21  C18 UNK     1       5.403   3.979  14.210  1.00  0.00     0.034 C 
ENDBRANCH  19  20
ENDBRANCH  16  19
ENDBRANCH   5  13
BRANCH   6  22
HETATM   22  O2  UNK     1       7.766   6.551   7.155  1.00  0.00    -0.355 OA
HETATM   23  H11 UNK     1       7.951   6.685   6.209  1.00  0.00     0.218 HD
ENDBRANCH   6  22
TORSDOF 4
ENDMDL
MODEL 7
REMARK VINA RESULT:      -7.5      3.967     10.776
REMARK  4 active torsions:
REMARK  status: ('A' for Active; 'I' for Inactive)
REMARK    1  A    between atoms: C5_9  and  O2_2 
REMARK    2  A    between atoms: C13_17  and  O3_3 
REMARK    3  A    between atoms: C17_21  and  O3_3 
REMARK    4  A    between atoms: C3_7  and  C4_8 
ROOT
HETATM    1  O1  UNK     1      17.948  10.621  33.529  1.00  0.00    -0.306 OA
HETATM    2  O4  UNK     1      14.645  10.474  35.912  1.00  0.00    -0.284 OA
HETATM    3  C1  UNK     1      16.329  11.788  34.911  1.00  0.00     0.051 A 
HETATM    4  C2  UNK     1      17.454  11.770  34.090  1.00  0.00     0.091 A 
HETATM    5  C3  UNK     1      17.292   9.427  33.782  1.00  0.00     0.123 A 
HETATM    6  C5  UNK     1      16.202   9.306  34.563  1.00  0.00     0.152 A 
HETATM    7  C6  UNK     1      15.635  10.522  35.193  1.00  0.00     0.220 A 
HETATM    8  C7  UNK     1      18.132  12.957  33.810  1.00  0.00     0.045 A 
HETATM    9  C8  UNK     1      17.679  14.160  34.352  1.00  0.00    -0.059 A 
HETATM   10  C9  UNK     1      15.871  12.990  35.456  1.00  0.00     0.019 A 
HETATM   11  C10 UNK     1      16.550  14.176  35.174  1.00  0.00     0.008 A 
HETATM   12  C16 UNK     1      18.401  15.431  34.055  1.00  0.00     0.048 C 
ENDROOT
BRANCH   5  13
HETATM   13  C4  UNK     1      17.925   8.272  33.121  1.00  0.00     0.001 A 
HETATM   14  C11 UNK     1      17.328   7.698  31.998  1.00  0.00     0.017 A 
HETATM   15  C14 UNK     1      17.929   6.605  31.372  1.00  0.00     0.037 A 
HETATM   16  C13 UNK     1      19.124   6.086  31.869  1.00  0.00     0.068 A 
HETATM   17  C15 UNK     1      19.720   6.660  32.992  1.00  0.00     0.037 A 
HETATM   18  C12 UNK     1      19.121   7.753  33.618  1.00  0.00     0.017 A 
BRANCH  16  19
HETATM   19  O3  UNK     1      19.710   5.021  31.258  1.00  0.00    -0.352 OA
BRANCH  19  20
HETATM   20  C17 UNK     1      19.008   4.434  30.162  1.00  0.00     0.171 C 
HETATM   21  C18 UNK     1      18.642   3.008  30.518  1.00  0.00     0.034 C 
ENDBRANCH  19  20
ENDBRANCH  16  19
ENDBRANCH   5  13
BRANCH   6  22
HETATM   22  O2  UNK     1      15.592   8.097  34.821  1.00  0.00    -0.355 OA
HETATM   23  H11 UNK     1      14.674   8.160  34.506  1.00  0.00     0.218 HD
ENDBRANCH   6  22
TORSDOF 4
ENDMDL
MODEL 8
REMARK VINA RESULT:      -7.5     22.015     24.444
REMARK  4 active torsions:
REMARK  status: ('A' for Active; 'I' for Inactive)
REMARK    1  A    between atoms: C5_9  and  O2_2 
REMARK    2  A    between atoms: C13_17  and  O3_3 
REMARK    3  A    between atoms: C17_21  and  O3_3 
REMARK    4  A    between atoms: C3_7  and  C4_8 
ROOT
HETATM    1  O1  UNK     1      14.196   9.175   8.264  1.00  0.00    -0.306 OA
HETATM    2  O4  UNK     1      16.756   7.726  11.086  1.00  0.00    -0.284 OA
HETATM    3  C1  UNK     1      16.259   9.419   9.520  1.00  0.00     0.051 A 
HETATM    4  C2  UNK     1      15.345   9.859   8.566  1.00  0.00     0.091 A 
HETATM    5  C3  UNK     1      13.929   7.998   8.947  1.00  0.00     0.123 A 
HETATM    6  C5  UNK     1      14.732   7.461   9.884  1.00  0.00     0.152 A 
HETATM    7  C6  UNK     1      15.987   8.166  10.240  1.00  0.00     0.220 A 
HETATM    8  C7  UNK     1      15.581  11.043   7.867  1.00  0.00     0.045 A 
HETATM    9  C8  UNK     1      16.734  11.786   8.128  1.00  0.00    -0.059 A 
HETATM   10  C9  UNK     1      17.414  10.160   9.785  1.00  0.00     0.019 A 
HETATM   11  C10 UNK     1      17.648  11.344   9.086  1.00  0.00     0.008 A 
HETATM   12  C16 UNK     1      16.990  13.052   7.383  1.00  0.00     0.048 C 
ENDROOT
BRANCH   5  13
HETATM   13  C4  UNK     1      12.667   7.364   8.528  1.00  0.00     0.001 A 
HETATM   14  C11 UNK     1      12.687   6.291   7.637  1.00  0.00     0.017 A 
HETATM   15  C14 UNK     1      11.492   5.691   7.242  1.00  0.00     0.037 A 
HETATM   16  C13 UNK     1      10.276   6.165   7.735  1.00  0.00     0.068 A 
HETATM   17  C15 UNK     1      10.256   7.238   8.625  1.00  0.00     0.037 A 
HETATM   18  C12 UNK     1      11.451   7.838   9.022  1.00  0.00     0.017 A 
BRANCH  16  19
HETATM   19  O3  UNK     1       9.111   5.579   7.350  1.00  0.00    -0.352 OA
BRANCH  19  20
HETATM   20  C17 UNK     1       7.932   5.941   8.069  1.00  0.00     0.171 C 
HETATM   21  C18 UNK     1       7.576   4.824   9.027  1.00  0.00     0.034 C 
ENDBRANCH  19  20
ENDBRANCH  16  19
ENDBRANCH   5  13
BRANCH   6  22
HETATM   22  O2  UNK     1      14.454   6.272  10.522  1.00  0.00    -0.355 OA
HETATM   23  H11 UNK     1      14.544   5.560   9.865  1.00  0.00     0.218 HD
ENDBRANCH   6  22
TORSDOF 4
ENDMDL
MODEL 9
REMARK VINA RESULT:      -7.5      3.034      9.598
REMARK  4 active torsions:
REMARK  status: ('A' for Active; 'I' for Inactive)
REMARK    1  A    between atoms: C5_9  and  O2_2 
REMARK    2  A    between atoms: C13_17  and  O3_3 
REMARK    3  A    between atoms: C17_21  and  O3_3 
REMARK    4  A    between atoms: C3_7  and  C4_8 
ROOT
HETATM    1  O1  UNK     1      17.651   8.954  33.040  1.00  0.00    -0.306 OA
HETATM    2  O4  UNK     1      13.642   9.685  32.951  1.00  0.00    -0.284 OA
HETATM    3  C1  UNK     1      15.792  10.417  33.588  1.00  0.00     0.051 A 
HETATM    4  C2  UNK     1      17.150  10.107  33.588  1.00  0.00     0.091 A 
HETATM    5  C3  UNK     1      16.766   8.063  32.452  1.00  0.00     0.123 A 
HETATM    6  C5  UNK     1      15.433   8.239  32.394  1.00  0.00     0.152 A 
HETATM    7  C6  UNK     1      14.848   9.470  32.976  1.00  0.00     0.220 A 
HETATM    8  C7  UNK     1      18.067  10.987  34.164  1.00  0.00     0.045 A 
HETATM    9  C8  UNK     1      17.620  12.177  34.739  1.00  0.00    -0.059 A 
HETATM   10  C9  UNK     1      15.340  11.608  34.162  1.00  0.00     0.019 A 
HETATM   11  C10 UNK     1      16.258  12.486  34.737  1.00  0.00     0.008 A 
HETATM   12  C16 UNK     1      18.596  13.120  35.356  1.00  0.00     0.048 C 
ENDROOT
BRANCH   5  13
HETATM   13  C4  UNK     1      17.433   6.869  31.904  1.00  0.00     0.001 A 
HETATM   14  C11 UNK     1      17.394   5.664  32.606  1.00  0.00     0.017 A 
HETATM   15  C14 UNK     1      18.026   4.534  32.086  1.00  0.00     0.037 A 
HETATM   16  C13 UNK     1      18.695   4.608  30.865  1.00  0.00     0.068 A 
HETATM   17  C15 UNK     1      18.734   5.813  30.163  1.00  0.00     0.037 A 
HETATM   18  C12 UNK     1      18.103   6.944  30.682  1.00  0.00     0.017 A 
BRANCH  16  19
HETATM   19  O3  UNK     1      19.310   3.506  30.358  1.00  0.00    -0.352 OA
BRANCH  19  20
HETATM   20  C17 UNK     1      18.537   2.308  30.281  1.00  0.00     0.171 C 
HETATM   21  C18 UNK     1      18.047   2.127  28.860  1.00  0.00     0.034 C 
ENDBRANCH  19  20
ENDBRANCH  16  19
ENDBRANCH   5  13
BRANCH   6  22
HETATM   22  O2  UNK     1      14.577   7.317  31.831  1.00  0.00    -0.355 OA
HETATM   23  H11 UNK     1      15.103   6.756  31.235  1.00  0.00     0.218 HD
ENDBRANCH   6  22
TORSDOF 4
ENDMDL
MODEL 10
REMARK VINA RESULT:      -7.5      6.157     10.796
REMARK  4 active torsions:
REMARK  status: ('A' for Active; 'I' for Inactive)
REMARK    1  A    between atoms: C5_9  and  O2_2 
REMARK    2  A    between atoms: C13_17  and  O3_3 
REMARK    3  A    between atoms: C17_21  and  O3_3 
REMARK    4  A    between atoms: C3_7  and  C4_8 
ROOT
HETATM    1  O1  UNK     1      18.873  -2.388  37.069  1.00  0.00    -0.306 OA
HETATM    2  O4  UNK     1      19.717  -1.374  33.213  1.00  0.00    -0.284 OA
HETATM    3  C1  UNK     1      18.764  -0.752  35.279  1.00  0.00     0.051 A 
HETATM    4  C2  UNK     1      18.504  -1.160  36.585  1.00  0.00     0.091 A 
HETATM    5  C3  UNK     1      19.543  -3.258  36.223  1.00  0.00     0.123 A 
HETATM    6  C5  UNK     1      19.848  -2.990  34.939  1.00  0.00     0.152 A 
HETATM    7  C6  UNK     1      19.465  -1.674  34.373  1.00  0.00     0.220 A 
HETATM    8  C7  UNK     1      17.839  -0.305  37.464  1.00  0.00     0.045 A 
HETATM    9  C8  UNK     1      17.437   0.959  37.032  1.00  0.00    -0.059 A 
HETATM   10  C9  UNK     1      18.364   0.513  34.842  1.00  0.00     0.019 A 
HETATM   11  C10 UNK     1      17.699   1.367  35.722  1.00  0.00     0.008 A 
HETATM   12  C16 UNK     1      16.725   1.877  37.968  1.00  0.00     0.048 C 
ENDROOT
BRANCH   5  13
HETATM   13  C4  UNK     1      19.880  -4.540  36.866  1.00  0.00     0.001 A 
HETATM   14  C11 UNK     1      19.018  -5.630  36.743  1.00  0.00     0.017 A 
HETATM   15  C14 UNK     1      19.339  -6.844  37.352  1.00  0.00     0.037 A 
HETATM   16  C13 UNK     1      20.520  -6.968  38.084  1.00  0.00     0.068 A 
HETATM   17  C15 UNK     1      21.381  -5.877  38.206  1.00  0.00     0.037 A 
HETATM   18  C12 UNK     1      21.062  -4.664  37.597  1.00  0.00     0.017 A 
BRANCH  16  19
HETATM   19  O3  UNK     1      20.833  -8.151  38.676  1.00  0.00    -0.352 OA
BRANCH  19  20
HETATM   20  C17 UNK     1      19.746  -8.959  39.128  1.00  0.00     0.171 C 
HETATM   21  C18 UNK     1      19.789 -10.291  38.409  1.00  0.00     0.034 C 
ENDBRANCH  19  20
ENDBRANCH  16  19
ENDBRANCH   5  13
BRANCH   6  22
HETATM   22  O2  UNK     1      20.486  -3.890  34.114  1.00  0.00    -0.355 OA
HETATM   23  H11 UNK     1      20.670  -3.436  33.273  1.00  0.00     0.218 HD
ENDBRANCH   6  22
TORSDOF 4
ENDMDL
