MODEL 1
REMARK VINA RESULT:      -9.8      0.000      0.000
REMARK  2 active torsions:
REMARK  status: ('A' for Active; 'I' for Inactive)
REMARK    1  A    between atoms: C7_13  and  N1_5 
REMARK       I    between atoms: C8_14  and  N1_5 
REMARK    2  A    between atoms: C2_8  and  C8_14 
ROOT
HETATM    1  O2  UNK     1      20.903  -4.168  37.659  1.00  0.00    -0.267 OA
HETATM    2  N1  UNK     1      19.674  -5.080  35.863  1.00  0.00    -0.301 N 
HETATM    3  C8  UNK     1      20.154  -4.072  36.688  1.00  0.00     0.263 C 
HETATM    4  H3  UNK     1      19.072  -4.852  35.077  1.00  0.00     0.171 HD
ENDROOT
BRANCH   3   5
HETATM    5  C2  UNK     1      19.658  -2.751  36.284  1.00  0.00     0.108 A 
HETATM    6  C10 UNK     1      19.929  -2.187  34.942  1.00  0.00     0.304 A 
HETATM    7  O1  UNK     1      19.404  -0.925  34.677  1.00  0.00    -0.274 OA
HETATM    8  O3  UNK     1      20.579  -2.799  34.102  1.00  0.00    -0.259 OA
HETATM    9  C3  UNK     1      18.654  -0.216  35.635  1.00  0.00     0.089 A 
HETATM   10  C1  UNK     1      18.413  -0.763  36.891  1.00  0.00    -0.001 A 
HETATM   11  C11 UNK     1      18.171   1.042  35.278  1.00  0.00     0.038 A 
HETATM   12  C4  UNK     1      18.947  -2.081  37.198  1.00  0.00     0.037 A 
HETATM   13  C9  UNK     1      17.666  -0.029  37.815  1.00  0.00     0.014 A 
HETATM   14  C14 UNK     1      17.174   1.234  37.470  1.00  0.00     0.001 A 
HETATM   15  C15 UNK     1      17.426   1.767  36.204  1.00  0.00     0.003 A 
ENDBRANCH   3   5
BRANCH   2  16
HETATM   16  C7  UNK     1      19.957  -6.444  35.977  1.00  0.00     0.174 A 
HETATM   17  S1  UNK     1      18.989  -7.288  37.088  1.00  0.00    -0.050 SA
HETATM   18  C5  UNK     1      19.854  -8.726  36.695  1.00  0.00     0.037 A 
HETATM   19  C12 UNK     1      19.688 -10.026  37.202  1.00  0.00     0.021 A 
HETATM   20  C6  UNK     1      20.823  -8.428  35.733  1.00  0.00     0.076 A 
HETATM   21  C16 UNK     1      20.521 -11.036  36.719  1.00  0.00     0.002 A 
HETATM   22  C17 UNK     1      21.493 -10.764  35.763  1.00  0.00     0.002 A 
HETATM   23  C13 UNK     1      21.654  -9.468  35.262  1.00  0.00     0.033 A 
HETATM   24  N2  UNK     1      20.867  -7.102  35.330  1.00  0.00    -0.223 NA
ENDBRANCH   2  16
TORSDOF 2
ENDMDL
MODEL 2
REMARK VINA RESULT:      -9.5      0.928      1.450
REMARK  2 active torsions:
REMARK  status: ('A' for Active; 'I' for Inactive)
REMARK    1  A    between atoms: C7_13  and  N1_5 
REMARK       I    between atoms: C8_14  and  N1_5 
REMARK    2  A    between atoms: C2_8  and  C8_14 
ROOT
HETATM    1  O2  UNK     1      20.950  -4.114  37.694  1.00  0.00    -0.267 OA
HETATM    2  N1  UNK     1      19.314  -5.102  36.310  1.00  0.00    -0.301 N 
HETATM    3  C8  UNK     1      20.037  -4.059  36.871  1.00  0.00     0.263 C 
HETATM    4  H3  UNK     1      18.593  -4.909  35.621  1.00  0.00     0.171 HD
ENDROOT
BRANCH   3   5
HETATM    5  C2  UNK     1      19.595  -2.753  36.368  1.00  0.00     0.108 A 
HETATM    6  C10 UNK     1      19.898  -2.299  34.991  1.00  0.00     0.304 A 
HETATM    7  O1  UNK     1      19.424  -1.040  34.630  1.00  0.00    -0.274 OA
HETATM    8  O3  UNK     1      20.531  -2.993  34.205  1.00  0.00    -0.259 OA
HETATM    9  C3  UNK     1      18.694  -0.236  35.526  1.00  0.00     0.089 A 
HETATM   10  C1  UNK     1      18.422  -0.680  36.815  1.00  0.00    -0.001 A 
HETATM   11  C11 UNK     1      18.262   1.010  35.073  1.00  0.00     0.038 A 
HETATM   12  C4  UNK     1      18.902  -1.992  37.223  1.00  0.00     0.037 A 
HETATM   13  C9  UNK     1      17.695   0.146  37.675  1.00  0.00     0.014 A 
HETATM   14  C14 UNK     1      17.254   1.398  37.234  1.00  0.00     0.001 A 
HETATM   15  C15 UNK     1      17.537   1.828  35.936  1.00  0.00     0.003 A 
ENDBRANCH   3   5
BRANCH   2  16
HETATM   16  C7  UNK     1      19.487  -6.463  36.578  1.00  0.00     0.174 A 
HETATM   17  S1  UNK     1      20.521  -7.281  35.508  1.00  0.00    -0.050 SA
HETATM   18  C5  UNK     1      20.244  -8.728  36.403  1.00  0.00     0.037 A 
HETATM   19  C12 UNK     1      20.762 -10.015  36.186  1.00  0.00     0.021 A 
HETATM   20  C6  UNK     1      19.370  -8.452  37.459  1.00  0.00     0.076 A 
HETATM   21  C16 UNK     1      20.384 -11.037  37.060  1.00  0.00     0.002 A 
HETATM   22  C17 UNK     1      19.516 -10.787  38.117  1.00  0.00     0.002 A 
HETATM   23  C13 UNK     1      19.003  -9.503  38.327  1.00  0.00     0.033 A 
HETATM   24  N2  UNK     1      18.943  -7.135  37.543  1.00  0.00    -0.223 NA
ENDBRANCH   2  16
TORSDOF 2
ENDMDL
MODEL 3
REMARK VINA RESULT:      -9.4      2.155      8.389
REMARK  2 active torsions:
REMARK  status: ('A' for Active; 'I' for Inactive)
REMARK    1  A    between atoms: C7_13  and  N1_5 
REMARK       I    between atoms: C8_14  and  N1_5 
REMARK    2  A    between atoms: C2_8  and  C8_14 
ROOT
HETATM    1  O2  UNK     1      21.238  -3.991  37.217  1.00  0.00    -0.267 OA
HETATM    2  N1  UNK     1      18.960  -3.935  36.603  1.00  0.00    -0.301 N 
HETATM    3  C8  UNK     1      20.174  -4.530  36.914  1.00  0.00     0.263 C 
HETATM    4  H3  UNK     1      18.151  -4.511  36.388  1.00  0.00     0.171 HD
ENDROOT
BRANCH   3   5
HETATM    5  C2  UNK     1      20.099  -5.995  36.852  1.00  0.00     0.108 A 
HETATM    6  C10 UNK     1      20.199  -6.732  35.572  1.00  0.00     0.304 A 
HETATM    7  O1  UNK     1      20.114  -8.121  35.643  1.00  0.00    -0.274 OA
HETATM    8  O3  UNK     1      20.352  -6.155  34.502  1.00  0.00    -0.259 OA
HETATM    9  C3  UNK     1      19.940  -8.793  36.867  1.00  0.00     0.089 A 
HETATM   10  C1  UNK     1      19.847  -8.081  38.058  1.00  0.00    -0.001 A 
HETATM   11  C11 UNK     1      19.865 -10.185  36.837  1.00  0.00     0.038 A 
HETATM   12  C4  UNK     1      19.933  -6.629  38.018  1.00  0.00     0.037 A 
HETATM   13  C9  UNK     1      19.674  -8.784  39.253  1.00  0.00     0.014 A 
HETATM   14  C14 UNK     1      19.598 -10.180  39.238  1.00  0.00     0.001 A 
HETATM   15  C15 UNK     1      19.694 -10.878  38.032  1.00  0.00     0.003 A 
ENDBRANCH   3   5
BRANCH   2  16
HETATM   16  C7  UNK     1      18.698  -2.563  36.571  1.00  0.00     0.174 A 
HETATM   17  S1  UNK     1      19.411  -1.725  35.278  1.00  0.00    -0.050 SA
HETATM   18  C5  UNK     1      18.703  -0.271  35.876  1.00  0.00     0.037 A 
HETATM   19  C12 UNK     1      18.789   1.032  35.360  1.00  0.00     0.021 A 
HETATM   20  C6  UNK     1      17.972  -0.561  37.031  1.00  0.00     0.076 A 
HETATM   21  C16 UNK     1      18.118   2.056  36.031  1.00  0.00     0.002 A 
HETATM   22  C17 UNK     1      17.385   1.792  37.183  1.00  0.00     0.002 A 
HETATM   23  C13 UNK     1      17.304   0.493  37.692  1.00  0.00     0.033 A 
HETATM   24  N2  UNK     1      17.981  -1.893  37.417  1.00  0.00    -0.223 NA
ENDBRANCH   2  16
TORSDOF 2
ENDMDL
MODEL 4
REMARK VINA RESULT:      -9.3      8.136     12.689
REMARK  2 active torsions:
REMARK  status: ('A' for Active; 'I' for Inactive)
REMARK    1  A    between atoms: C7_13  and  N1_5 
REMARK       I    between atoms: C8_14  and  N1_5 
REMARK    2  A    between atoms: C2_8  and  C8_14 
ROOT
HETATM    1  O2  UNK     1      17.596   3.155  32.890  1.00  0.00    -0.267 OA
HETATM    2  N1  UNK     1      18.510   4.687  31.345  1.00  0.00    -0.301 N 
HETATM    3  C8  UNK     1      18.200   3.434  31.856  1.00  0.00     0.263 C 
HETATM    4  H3  UNK     1      19.002   4.769  30.460  1.00  0.00     0.171 HD
ENDROOT
BRANCH   3   5
HETATM    5  C2  UNK     1      18.691   2.354  30.992  1.00  0.00     0.108 A 
HETATM    6  C10 UNK     1      18.717   2.478  29.517  1.00  0.00     0.304 A 
HETATM    7  O1  UNK     1      19.206   1.385  28.806  1.00  0.00    -0.274 OA
HETATM    8  O3  UNK     1      18.331   3.492  28.946  1.00  0.00    -0.259 OA
HETATM    9  C3  UNK     1      19.654   0.218  29.453  1.00  0.00     0.089 A 
HETATM   10  C1  UNK     1      19.619   0.121  30.840  1.00  0.00    -0.001 A 
HETATM   11  C11 UNK     1      20.125  -0.824  28.656  1.00  0.00     0.038 A 
HETATM   12  C4  UNK     1      19.115   1.246  31.612  1.00  0.00     0.037 A 
HETATM   13  C9  UNK     1      20.071  -1.054  31.446  1.00  0.00     0.014 A 
HETATM   14  C14 UNK     1      20.548  -2.107  30.659  1.00  0.00     0.001 A 
HETATM   15  C15 UNK     1      20.575  -1.991  29.267  1.00  0.00     0.003 A 
ENDBRANCH   3   5
BRANCH   2  16
HETATM   16  C7  UNK     1      18.186   5.917  31.926  1.00  0.00     0.174 A 
HETATM   17  S1  UNK     1      19.458   6.680  32.751  1.00  0.00    -0.050 SA
HETATM   18  C5  UNK     1      18.386   7.975  33.133  1.00  0.00     0.037 A 
HETATM   19  C12 UNK     1      18.640   9.147  33.864  1.00  0.00     0.021 A 
HETATM   20  C6  UNK     1      17.129   7.704  32.586  1.00  0.00     0.076 A 
HETATM   21  C16 UNK     1      17.595  10.057  34.040  1.00  0.00     0.002 A 
HETATM   22  C17 UNK     1      16.336   9.808  33.505  1.00  0.00     0.002 A 
HETATM   23  C13 UNK     1      16.090   8.640  32.779  1.00  0.00     0.033 A 
HETATM   24  N2  UNK     1      17.033   6.508  31.890  1.00  0.00    -0.223 NA
ENDBRANCH   2  16
TORSDOF 2
ENDMDL
MODEL 5
REMARK VINA RESULT:      -9.3      7.957      9.943
REMARK  2 active torsions:
REMARK  status: ('A' for Active; 'I' for Inactive)
REMARK    1  A    between atoms: C7_13  and  N1_5 
REMARK       I    between atoms: C8_14  and  N1_5 
REMARK    2  A    between atoms: C2_8  and  C8_14 
ROOT
HETATM    1  O2  UNK     1      19.620   5.036  31.089  1.00  0.00    -0.267 OA
HETATM    2  N1  UNK     1      18.141   3.428  31.982  1.00  0.00    -0.301 N 
HETATM    3  C8  UNK     1      18.666   4.698  31.788  1.00  0.00     0.263 C 
HETATM    4  H3  UNK     1      17.329   3.297  32.578  1.00  0.00     0.171 HD
ENDROOT
BRANCH   3   5
HETATM    5  C2  UNK     1      17.931   5.716  32.549  1.00  0.00     0.108 A 
HETATM    6  C10 UNK     1      18.488   6.335  33.773  1.00  0.00     0.304 A 
HETATM    7  O1  UNK     1      17.696   7.289  34.407  1.00  0.00    -0.274 OA
HETATM    8  O3  UNK     1      19.592   6.028  34.209  1.00  0.00    -0.259 OA
HETATM    9  C3  UNK     1      16.428   7.649  33.913  1.00  0.00     0.089 A 
HETATM   10  C1  UNK     1      15.922   7.054  32.762  1.00  0.00    -0.001 A 
HETATM   11  C11 UNK     1      15.709   8.614  34.617  1.00  0.00     0.038 A 
HETATM   12  C4  UNK     1      16.726   6.054  32.076  1.00  0.00     0.037 A 
HETATM   13  C9  UNK     1      14.660   7.437  32.303  1.00  0.00     0.014 A 
HETATM   14  C14 UNK     1      13.928   8.404  32.998  1.00  0.00     0.001 A 
HETATM   15  C15 UNK     1      14.452   8.991  34.152  1.00  0.00     0.003 A 
ENDBRANCH   3   5
BRANCH   2  16
HETATM   16  C7  UNK     1      18.610   2.246  31.403  1.00  0.00     0.174 A 
HETATM   17  S1  UNK     1      18.681   2.254  29.707  1.00  0.00    -0.050 SA
HETATM   18  C5  UNK     1      19.284   0.640  29.759  1.00  0.00     0.037 A 
HETATM   19  C12 UNK     1      19.646  -0.204  28.696  1.00  0.00     0.021 A 
HETATM   20  C6  UNK     1      19.380   0.231  31.092  1.00  0.00     0.076 A 
HETATM   21  C16 UNK     1      20.114  -1.485  28.998  1.00  0.00     0.002 A 
HETATM   22  C17 UNK     1      20.217  -1.914  30.317  1.00  0.00     0.002 A 
HETATM   23  C13 UNK     1      19.855  -1.070  31.370  1.00  0.00     0.033 A 
HETATM   24  N2  UNK     1      18.985   1.174  32.029  1.00  0.00    -0.223 NA
ENDBRANCH   2  16
TORSDOF 2
ENDMDL
MODEL 6
REMARK VINA RESULT:      -9.2      7.673     12.722
REMARK  2 active torsions:
REMARK  status: ('A' for Active; 'I' for Inactive)
REMARK    1  A    between atoms: C7_13  and  N1_5 
REMARK       I    between atoms: C8_14  and  N1_5 
REMARK    2  A    between atoms: C2_8  and  C8_14 
ROOT
HETATM    1  O2  UNK     1      18.650   4.674  30.387  1.00  0.00    -0.267 OA
HETATM    2  N1  UNK     1      17.725   4.513  32.552  1.00  0.00    -0.301 N 
HETATM    3  C8  UNK     1      18.349   4.049  31.402  1.00  0.00     0.263 C 
HETATM    4  H3  UNK     1      17.554   3.883  33.329  1.00  0.00     0.171 HD
ENDROOT
BRANCH   3   5
HETATM    5  C2  UNK     1      18.657   2.616  31.487  1.00  0.00     0.108 A 
HETATM    6  C10 UNK     1      18.381   1.825  32.708  1.00  0.00     0.304 A 
HETATM    7  O1  UNK     1      18.717   0.474  32.666  1.00  0.00    -0.274 OA
HETATM    8  O3  UNK     1      17.879   2.328  33.707  1.00  0.00    -0.259 OA
HETATM    9  C3  UNK     1      19.292  -0.114  31.523  1.00  0.00     0.089 A 
HETATM   10  C1  UNK     1      19.545   0.648  30.387  1.00  0.00    -0.001 A 
HETATM   11  C11 UNK     1      19.594  -1.474  31.577  1.00  0.00     0.038 A 
HETATM   12  C4  UNK     1      19.204   2.062  30.399  1.00  0.00     0.037 A 
HETATM   13  C9  UNK     1      20.116   0.029  29.274  1.00  0.00     0.014 A 
HETATM   14  C14 UNK     1      20.424  -1.334  29.313  1.00  0.00     0.001 A 
HETATM   15  C15 UNK     1      20.163  -2.083  30.462  1.00  0.00     0.003 A 
ENDBRANCH   3   5
BRANCH   2  16
HETATM   16  C7  UNK     1      17.303   5.825  32.788  1.00  0.00     0.174 A 
HETATM   17  S1  UNK     1      18.351   6.757  33.745  1.00  0.00    -0.050 SA
HETATM   18  C5  UNK     1      17.257   8.080  33.592  1.00  0.00     0.037 A 
HETATM   19  C12 UNK     1      17.354   9.375  34.127  1.00  0.00     0.021 A 
HETATM   20  C6  UNK     1      16.168   7.685  32.809  1.00  0.00     0.076 A 
HETATM   21  C16 UNK     1      16.327  10.281  33.859  1.00  0.00     0.002 A 
HETATM   22  C17 UNK     1      15.233   9.911  33.083  1.00  0.00     0.002 A 
HETATM   23  C13 UNK     1      15.142   8.620  32.554  1.00  0.00     0.033 A 
HETATM   24  N2  UNK     1      16.214   6.376  32.353  1.00  0.00    -0.223 NA
ENDBRANCH   2  16
TORSDOF 2
ENDMDL
MODEL 7
REMARK VINA RESULT:      -9.1      2.809      4.083
REMARK  2 active torsions:
REMARK  status: ('A' for Active; 'I' for Inactive)
REMARK    1  A    between atoms: C7_13  and  N1_5 
REMARK       I    between atoms: C8_14  and  N1_5 
REMARK    2  A    between atoms: C2_8  and  C8_14 
ROOT
HETATM    1  O2  UNK     1      20.627  -2.379  36.526  1.00  0.00    -0.267 OA
HETATM    2  N1  UNK     1      19.820  -4.251  35.335  1.00  0.00    -0.301 N 
HETATM    3  C8  UNK     1      20.153  -2.917  35.526  1.00  0.00     0.263 C 
HETATM    4  H3  UNK     1      19.452  -4.562  34.441  1.00  0.00     0.171 HD
ENDROOT
BRANCH   3   5
HETATM    5  C2  UNK     1      19.876  -2.108  34.333  1.00  0.00     0.108 A 
HETATM    6  C10 UNK     1      19.038  -0.889  34.388  1.00  0.00     0.304 A 
HETATM    7  O1  UNK     1      18.848  -0.206  33.189  1.00  0.00    -0.274 OA
HETATM    8  O3  UNK     1      18.536  -0.495  35.435  1.00  0.00    -0.259 OA
HETATM    9  C3  UNK     1      19.422  -0.649  31.982  1.00  0.00     0.089 A 
HETATM   10  C1  UNK     1      20.205  -1.799  31.952  1.00  0.00    -0.001 A 
HETATM   11  C11 UNK     1      19.175   0.101  30.834  1.00  0.00     0.038 A 
HETATM   12  C4  UNK     1      20.423  -2.534  33.188  1.00  0.00     0.037 A 
HETATM   13  C9  UNK     1      20.756  -2.207  30.736  1.00  0.00     0.014 A 
HETATM   14  C14 UNK     1      20.518  -1.464  29.575  1.00  0.00     0.001 A 
HETATM   15  C15 UNK     1      19.729  -0.312  29.625  1.00  0.00     0.003 A 
ENDBRANCH   3   5
BRANCH   2  16
HETATM   16  C7  UNK     1      19.960  -5.277  36.274  1.00  0.00     0.174 A 
HETATM   17  S1  UNK     1      18.603  -6.283  36.448  1.00  0.00    -0.050 SA
HETATM   18  C5  UNK     1      19.466  -7.181  37.640  1.00  0.00     0.037 A 
HETATM   19  C12 UNK     1      19.048  -8.300  38.379  1.00  0.00     0.021 A 
HETATM   20  C6  UNK     1      20.737  -6.622  37.802  1.00  0.00     0.076 A 
HETATM   21  C16 UNK     1      19.941  -8.858  39.297  1.00  0.00     0.002 A 
HETATM   22  C17 UNK     1      21.210  -8.319  39.476  1.00  0.00     0.002 A 
HETATM   23  C13 UNK     1      21.620  -7.205  38.737  1.00  0.00     0.033 A 
HETATM   24  N2  UNK     1      21.004  -5.521  37.002  1.00  0.00    -0.223 NA
ENDBRANCH   2  16
TORSDOF 2
ENDMDL
MODEL 8
REMARK VINA RESULT:      -8.9      2.148      8.594
REMARK  2 active torsions:
REMARK  status: ('A' for Active; 'I' for Inactive)
REMARK    1  A    between atoms: C7_13  and  N1_5 
REMARK       I    between atoms: C8_14  and  N1_5 
REMARK    2  A    between atoms: C2_8  and  C8_14 
ROOT
HETATM    1  O2  UNK     1      20.846  -4.111  37.907  1.00  0.00    -0.267 OA
HETATM    2  N1  UNK     1      18.892  -4.021  36.586  1.00  0.00    -0.301 N 
HETATM    3  C8  UNK     1      19.950  -4.632  37.244  1.00  0.00     0.263 C 
HETATM    4  H3  UNK     1      18.208  -4.583  36.088  1.00  0.00     0.171 HD
ENDROOT
BRANCH   3   5
HETATM    5  C2  UNK     1      19.927  -6.090  37.080  1.00  0.00     0.108 A 
HETATM    6  C10 UNK     1      18.666  -6.865  37.113  1.00  0.00     0.304 A 
HETATM    7  O1  UNK     1      18.774  -8.243  36.945  1.00  0.00    -0.274 OA
HETATM    8  O3  UNK     1      17.578  -6.324  37.276  1.00  0.00    -0.259 OA
HETATM    9  C3  UNK     1      20.018  -8.873  36.755  1.00  0.00     0.089 A 
HETATM   10  C1  UNK     1      21.192  -8.128  36.730  1.00  0.00    -0.001 A 
HETATM   11  C11 UNK     1      20.025 -10.258  36.597  1.00  0.00     0.038 A 
HETATM   12  C4  UNK     1      21.113  -6.685  36.901  1.00  0.00     0.037 A 
HETATM   13  C9  UNK     1      22.407  -8.789  36.540  1.00  0.00     0.014 A 
HETATM   14  C14 UNK     1      22.430 -10.178  36.379  1.00  0.00     0.001 A 
HETATM   15  C15 UNK     1      21.241 -10.910  36.407  1.00  0.00     0.003 A 
ENDBRANCH   3   5
BRANCH   2  16
HETATM   16  C7  UNK     1      18.629  -2.648  36.546  1.00  0.00     0.174 A 
HETATM   17  S1  UNK     1      19.537  -1.775  35.407  1.00  0.00    -0.050 SA
HETATM   18  C5  UNK     1      18.730  -0.340  35.918  1.00  0.00     0.037 A 
HETATM   19  C12 UNK     1      18.889   0.977  35.454  1.00  0.00     0.021 A 
HETATM   20  C6  UNK     1      17.822  -0.661  36.931  1.00  0.00     0.076 A 
HETATM   21  C16 UNK     1      18.109   1.980  36.033  1.00  0.00     0.002 A 
HETATM   22  C17 UNK     1      17.201   1.685  37.044  1.00  0.00     0.002 A 
HETATM   23  C13 UNK     1      17.048   0.373  37.500  1.00  0.00     0.033 A 
HETATM   24  N2  UNK     1      17.779  -2.003  37.281  1.00  0.00    -0.223 NA
ENDBRANCH   2  16
TORSDOF 2
ENDMDL
MODEL 9
REMARK VINA RESULT:      -8.9      6.842      9.101
REMARK  2 active torsions:
REMARK  status: ('A' for Active; 'I' for Inactive)
REMARK    1  A    between atoms: C7_13  and  N1_5 
REMARK       I    between atoms: C8_14  and  N1_5 
REMARK    2  A    between atoms: C2_8  and  C8_14 
ROOT
HETATM    1  O2  UNK     1      26.134  -9.127  39.253  1.00  0.00    -0.267 OA
HETATM    2  N1  UNK     1      24.757  -7.446  38.331  1.00  0.00    -0.301 N 
HETATM    3  C8  UNK     1      25.939  -7.997  38.808  1.00  0.00     0.263 C 
HETATM    4  H3  UNK     1      24.746  -6.497  37.971  1.00  0.00     0.171 HD
ENDROOT
BRANCH   3   5
HETATM    5  C2  UNK     1      27.053  -7.044  38.738  1.00  0.00     0.108 A 
HETATM    6  C10 UNK     1      26.841  -5.580  38.803  1.00  0.00     0.304 A 
HETATM    7  O1  UNK     1      27.978  -4.780  38.728  1.00  0.00    -0.274 OA
HETATM    8  O3  UNK     1      25.722  -5.093  38.921  1.00  0.00    -0.259 OA
HETATM    9  C3  UNK     1      29.267  -5.331  38.594  1.00  0.00     0.089 A 
HETATM   10  C1  UNK     1      29.444  -6.709  38.533  1.00  0.00    -0.001 A 
HETATM   11  C11 UNK     1      30.344  -4.448  38.526  1.00  0.00     0.038 A 
HETATM   12  C4  UNK     1      28.276  -7.572  38.611  1.00  0.00     0.037 A 
HETATM   13  C9  UNK     1      30.738  -7.217  38.400  1.00  0.00     0.014 A 
HETATM   14  C14 UNK     1      31.829  -6.344  38.331  1.00  0.00     0.001 A 
HETATM   15  C15 UNK     1      31.631  -4.963  38.394  1.00  0.00     0.003 A 
ENDBRANCH   3   5
BRANCH   2  16
HETATM   16  C7  UNK     1      23.518  -8.089  38.262  1.00  0.00     0.174 A 
HETATM   17  S1  UNK     1      22.582  -8.001  39.676  1.00  0.00    -0.050 SA
HETATM   18  C5  UNK     1      21.359  -8.920  38.882  1.00  0.00     0.037 A 
HETATM   19  C12 UNK     1      20.114  -9.347  39.373  1.00  0.00     0.021 A 
HETATM   20  C6  UNK     1      21.782  -9.218  37.583  1.00  0.00     0.076 A 
HETATM   21  C16 UNK     1      19.288 -10.089  38.526  1.00  0.00     0.002 A 
HETATM   22  C17 UNK     1      19.688 -10.399  37.231  1.00  0.00     0.002 A 
HETATM   23  C13 UNK     1      20.928  -9.971  36.748  1.00  0.00     0.033 A 
HETATM   24  N2  UNK     1      23.034  -8.728  37.243  1.00  0.00    -0.223 NA
ENDBRANCH   2  16
TORSDOF 2
ENDMDL
MODEL 10
REMARK VINA RESULT:      -8.7     21.593     23.750
REMARK  2 active torsions:
REMARK  status: ('A' for Active; 'I' for Inactive)
REMARK    1  A    between atoms: C7_13  and  N1_5 
REMARK       I    between atoms: C8_14  and  N1_5 
REMARK    2  A    between atoms: C2_8  and  C8_14 
ROOT
HETATM    1  O2  UNK     1      21.346  -0.909  13.488  1.00  0.00    -0.267 OA
HETATM    2  N1  UNK     1      19.159  -1.131  14.347  1.00  0.00    -0.301 N 
HETATM    3  C8  UNK     1      20.216  -1.396  13.487  1.00  0.00     0.263 C 
HETATM    4  H3  UNK     1      18.279  -1.627  14.241  1.00  0.00     0.171 HD
ENDROOT
BRANCH   3   5
HETATM    5  C2  UNK     1      19.861  -2.398  12.476  1.00  0.00     0.108 A 
HETATM    6  C10 UNK     1      19.054  -2.057  11.282  1.00  0.00     0.304 A 
HETATM    7  O1  UNK     1      18.783  -3.095  10.394  1.00  0.00    -0.274 OA
HETATM    8  O3  UNK     1      18.644  -0.920  11.081  1.00  0.00    -0.259 OA
HETATM    9  C3  UNK     1      19.251  -4.405  10.616  1.00  0.00     0.089 A 
HETATM   10  C1  UNK     1      20.006  -4.704  11.745  1.00  0.00    -0.001 A 
HETATM   11  C11 UNK     1      18.928  -5.376   9.670  1.00  0.00     0.038 A 
HETATM   12  C4  UNK     1      20.307  -3.641  12.691  1.00  0.00     0.037 A 
HETATM   13  C9  UNK     1      20.452  -6.014  11.930  1.00  0.00     0.014 A 
HETATM   14  C14 UNK     1      20.137  -6.999  10.989  1.00  0.00     0.001 A 
HETATM   15  C15 UNK     1      19.377  -6.680   9.862  1.00  0.00     0.003 A 
ENDBRANCH   3   5
BRANCH   2  16
HETATM   16  C7  UNK     1      19.171  -0.228  15.414  1.00  0.00     0.174 A 
HETATM   17  S1  UNK     1      18.921  -0.921  16.944  1.00  0.00    -0.050 SA
HETATM   18  C5  UNK     1      19.061   0.650  17.639  1.00  0.00     0.037 A 
HETATM   19  C12 UNK     1      18.973   1.032  18.988  1.00  0.00     0.021 A 
HETATM   20  C6  UNK     1      19.290   1.581  16.622  1.00  0.00     0.076 A 
HETATM   21  C16 UNK     1      19.123   2.384  19.305  1.00  0.00     0.002 A 
HETATM   22  C17 UNK     1      19.351   3.328  18.310  1.00  0.00     0.002 A 
HETATM   23  C13 UNK     1      19.437   2.942  16.969  1.00  0.00     0.033 A 
HETATM   24  N2  UNK     1      19.351   1.053  15.341  1.00  0.00    -0.223 NA
ENDBRANCH   2  16
TORSDOF 2
ENDMDL
