MODEL 1
REMARK VINA RESULT:      -8.9      0.000      0.000
REMARK  3 active torsions:
REMARK  status: ('A' for Active; 'I' for Inactive)
REMARK    1  A    between atoms: C1_7  and  N1_5 
REMARK    2  A    between atoms: C9_15  and  N1_5 
REMARK    3  A    between atoms: C11_17  and  N2_6 
ROOT
HETATM    1  O1  UNK     1      19.323   0.098  28.747  1.00  0.00    -0.273 OA
HETATM    2  O2  UNK     1      18.361   2.097  28.215  1.00  0.00    -0.257 OA
HETATM    3  C9  UNK     1      19.181   0.854  31.509  1.00  0.00     0.081 A 
HETATM    4  C10 UNK     1      19.764  -0.449  31.096  1.00  0.00     0.027 A 
HETATM    5  C11 UNK     1      18.741   1.637  30.510  1.00  0.00     0.205 A 
HETATM    6  C12 UNK     1      19.811  -0.778  29.736  1.00  0.00     0.092 A 
HETATM    7  C13 UNK     1      20.284  -1.398  31.993  1.00  0.00     0.017 A 
HETATM    8  C14 UNK     1      18.779   1.329  29.073  1.00  0.00     0.324 A 
HETATM    9  C15 UNK     1      20.342  -1.984  29.269  1.00  0.00     0.038 A 
HETATM   10  C16 UNK     1      20.820  -2.612  31.537  1.00  0.00     0.001 A 
HETATM   11  C17 UNK     1      20.848  -2.904  30.177  1.00  0.00     0.003 A 
ENDROOT
BRANCH   3  12
HETATM   12  N1  UNK     1      19.141   1.144  32.831  1.00  0.00    -0.382 N 
HETATM   13  H16 UNK     1      19.964   0.878  33.361  1.00  0.00     0.160 HD
BRANCH  12  14
HETATM   14  C1  UNK     1      17.912   1.163  33.609  1.00  0.00     0.082 C 
HETATM   15  C2  UNK     1      18.005   2.295  34.641  1.00  0.00     0.025 C 
HETATM   16  C4  UNK     1      18.834   1.985  35.893  1.00  0.00     0.002 C 
HETATM   17  C6  UNK     1      18.006   1.657  37.138  1.00  0.00     0.000 C 
HETATM   18  C8  UNK     1      17.248   0.328  37.129  1.00  0.00     0.000 C 
HETATM   19  C7  UNK     1      16.076   0.273  36.148  1.00  0.00     0.000 C 
HETATM   20  C5  UNK     1      16.346  -0.489  34.852  1.00  0.00     0.002 C 
HETATM   21  C3  UNK     1      17.680  -0.251  34.148  1.00  0.00     0.025 C 
ENDBRANCH  12  14
ENDBRANCH   3  12
BRANCH   5  22
HETATM   22  N2  UNK     1      18.176   2.899  30.867  1.00  0.00    -0.107 N 
HETATM   23  O3  UNK     1      16.946   2.952  30.979  1.00  0.00    -0.531 OA
HETATM   24  O4  UNK     1      18.961   3.839  31.034  1.00  0.00    -0.531 OA
ENDBRANCH   5  22
TORSDOF 3
ENDMDL
MODEL 2
REMARK VINA RESULT:      -8.0      2.117      3.621
REMARK  3 active torsions:
REMARK  status: ('A' for Active; 'I' for Inactive)
REMARK    1  A    between atoms: C1_7  and  N1_5 
REMARK    2  A    between atoms: C9_15  and  N1_5 
REMARK    3  A    between atoms: C11_17  and  N2_6 
ROOT
HETATM    1  O1  UNK     1      19.946  -1.241  29.362  1.00  0.00    -0.273 OA
HETATM    2  O2  UNK     1      21.008  -3.061  30.236  1.00  0.00    -0.257 OA
HETATM    3  C9  UNK     1      19.601  -0.257  32.033  1.00  0.00     0.081 A 
HETATM    4  C10 UNK     1      19.087   0.499  30.862  1.00  0.00     0.027 A 
HETATM    5  C11 UNK     1      20.220  -1.416  31.752  1.00  0.00     0.205 A 
HETATM    6  C12 UNK     1      19.280  -0.018  29.576  1.00  0.00     0.092 A 
HETATM    7  C13 UNK     1      18.406   1.725  30.954  1.00  0.00     0.017 A 
HETATM    8  C14 UNK     1      20.436  -1.993  30.417  1.00  0.00     0.324 A 
HETATM    9  C15 UNK     1      18.829   0.635  28.424  1.00  0.00     0.038 A 
HETATM   10  C16 UNK     1      17.947   2.389  29.807  1.00  0.00     0.001 A 
HETATM   11  C17 UNK     1      18.159   1.845  28.545  1.00  0.00     0.003 A 
ENDROOT
BRANCH   3  12
HETATM   12  N1  UNK     1      19.408   0.268  33.266  1.00  0.00    -0.382 N 
HETATM   13  H16 UNK     1      20.090  -0.002  33.967  1.00  0.00     0.160 HD
BRANCH  12  14
HETATM   14  C1  UNK     1      18.094   0.584  33.805  1.00  0.00     0.082 C 
HETATM   15  C2  UNK     1      18.211   1.849  34.667  1.00  0.00     0.025 C 
HETATM   16  C4  UNK     1      18.777   1.642  36.076  1.00  0.00     0.002 C 
HETATM   17  C6  UNK     1      17.727   1.642  37.190  1.00  0.00     0.000 C 
HETATM   18  C8  UNK     1      16.773   0.446  37.235  1.00  0.00     0.000 C 
HETATM   19  C7  UNK     1      15.772   0.389  36.081  1.00  0.00     0.000 C 
HETATM   20  C5  UNK     1      16.109  -0.608  34.974  1.00  0.00     0.002 C 
HETATM   21  C3  UNK     1      17.556  -0.675  34.490  1.00  0.00     0.025 C 
ENDBRANCH  12  14
ENDBRANCH   3  12
BRANCH   5  22
HETATM   22  N2  UNK     1      20.726  -2.173  32.852  1.00  0.00    -0.107 N 
HETATM   23  O3  UNK     1      19.927  -2.907  33.444  1.00  0.00    -0.531 OA
HETATM   24  O4  UNK     1      21.924  -2.033  33.126  1.00  0.00    -0.531 OA
ENDBRANCH   5  22
TORSDOF 3
ENDMDL
MODEL 3
REMARK VINA RESULT:      -7.9      2.944      5.664
REMARK  3 active torsions:
REMARK  status: ('A' for Active; 'I' for Inactive)
REMARK    1  A    between atoms: C1_7  and  N1_5 
REMARK    2  A    between atoms: C9_15  and  N1_5 
REMARK    3  A    between atoms: C11_17  and  N2_6 
ROOT
HETATM    1  O1  UNK     1      19.173  -1.288  34.647  1.00  0.00    -0.273 OA
HETATM    2  O2  UNK     1      20.111  -1.931  32.669  1.00  0.00    -0.257 OA
HETATM    3  C9  UNK     1      18.318   1.131  33.367  1.00  0.00     0.081 A 
HETATM    4  C10 UNK     1      18.025   0.873  34.800  1.00  0.00     0.027 A 
HETATM    5  C11 UNK     1      19.006   0.167  32.731  1.00  0.00     0.205 A 
HETATM    6  C12 UNK     1      18.459  -0.323  35.384  1.00  0.00     0.092 A 
HETATM    7  C13 UNK     1      17.325   1.764  35.633  1.00  0.00     0.017 A 
HETATM    8  C14 UNK     1      19.484  -1.097  33.311  1.00  0.00     0.324 A 
HETATM    9  C15 UNK     1      18.221  -0.639  36.725  1.00  0.00     0.038 A 
HETATM   10  C16 UNK     1      17.081   1.460  36.980  1.00  0.00     0.001 A 
HETATM   11  C17 UNK     1      17.527   0.260  37.525  1.00  0.00     0.003 A 
ENDROOT
BRANCH   3  12
HETATM   12  N1  UNK     1      17.880   2.291  32.825  1.00  0.00    -0.382 N 
HETATM   13  H16 UNK     1      17.041   2.219  32.259  1.00  0.00     0.160 HD
BRANCH  12  14
HETATM   14  C1  UNK     1      18.766   3.379  32.439  1.00  0.00     0.082 C 
HETATM   15  C2  UNK     1      18.685   4.477  33.510  1.00  0.00     0.025 C 
HETATM   16  C4  UNK     1      17.462   5.397  33.426  1.00  0.00     0.002 C 
HETATM   17  C6  UNK     1      17.742   6.773  32.818  1.00  0.00     0.000 C 
HETATM   18  C8  UNK     1      18.061   6.812  31.322  1.00  0.00     0.000 C 
HETATM   19  C7  UNK     1      19.410   6.201  30.944  1.00  0.00     0.000 C 
HETATM   20  C5  UNK     1      19.346   4.796  30.346  1.00  0.00     0.002 C 
HETATM   21  C3  UNK     1      18.414   3.782  31.005  1.00  0.00     0.025 C 
ENDBRANCH  12  14
ENDBRANCH   3  12
BRANCH   5  22
HETATM   22  N2  UNK     1      19.309   0.379  31.352  1.00  0.00    -0.107 N 
HETATM   23  O3  UNK     1      18.356   0.408  30.565  1.00  0.00    -0.531 OA
HETATM   24  O4  UNK     1      20.501   0.515  31.053  1.00  0.00    -0.531 OA
ENDBRANCH   5  22
TORSDOF 3
ENDMDL
MODEL 4
REMARK VINA RESULT:      -7.9      3.205      5.062
REMARK  3 active torsions:
REMARK  status: ('A' for Active; 'I' for Inactive)
REMARK    1  A    between atoms: C1_7  and  N1_5 
REMARK    2  A    between atoms: C9_15  and  N1_5 
REMARK    3  A    between atoms: C11_17  and  N2_6 
ROOT
HETATM    1  O1  UNK     1      19.061   0.177  31.430  1.00  0.00    -0.273 OA
HETATM    2  O2  UNK     1      19.408   0.698  29.236  1.00  0.00    -0.257 OA
HETATM    3  C9  UNK     1      18.232   2.888  31.862  1.00  0.00     0.081 A 
HETATM    4  C10 UNK     1      18.262   1.905  32.976  1.00  0.00     0.027 A 
HETATM    5  C11 UNK     1      18.622   2.421  30.663  1.00  0.00     0.205 A 
HETATM    6  C12 UNK     1      18.671   0.591  32.719  1.00  0.00     0.092 A 
HETATM    7  C13 UNK     1      17.900   2.205  34.300  1.00  0.00     0.017 A 
HETATM    8  C14 UNK     1      19.063   1.052  30.357  1.00  0.00     0.324 A 
HETATM    9  C15 UNK     1      18.724  -0.391  33.712  1.00  0.00     0.038 A 
HETATM   10  C16 UNK     1      17.949   1.230  35.307  1.00  0.00     0.001 A 
HETATM   11  C17 UNK     1      18.360  -0.066  35.012  1.00  0.00     0.003 A 
ENDROOT
BRANCH   3  12
HETATM   12  N1  UNK     1      17.825   4.150  32.135  1.00  0.00    -0.382 N 
HETATM   13  H16 UNK     1      17.388   4.644  31.364  1.00  0.00     0.160 HD
BRANCH  12  14
HETATM   14  C1  UNK     1      18.493   5.016  33.095  1.00  0.00     0.082 C 
HETATM   15  C2  UNK     1      17.430   5.639  34.012  1.00  0.00     0.025 C 
HETATM   16  C4  UNK     1      16.661   6.827  33.423  1.00  0.00     0.002 C 
HETATM   17  C6  UNK     1      17.117   8.196  33.934  1.00  0.00     0.000 C 
HETATM   18  C8  UNK     1      18.498   8.674  33.481  1.00  0.00     0.000 C 
HETATM   19  C7  UNK     1      19.668   7.890  34.078  1.00  0.00     0.000 C 
HETATM   20  C5  UNK     1      20.310   6.865  33.145  1.00  0.00     0.002 C 
HETATM   21  C3  UNK     1      19.386   5.981  32.311  1.00  0.00     0.025 C 
ENDBRANCH  12  14
ENDBRANCH   3  12
BRANCH   5  22
HETATM   22  N2  UNK     1      18.608   3.337  29.568  1.00  0.00    -0.107 N 
HETATM   23  O3  UNK     1      19.275   4.371  29.691  1.00  0.00    -0.531 OA
HETATM   24  O4  UNK     1      17.930   3.024  28.582  1.00  0.00    -0.531 OA
ENDBRANCH   5  22
TORSDOF 3
ENDMDL
MODEL 5
REMARK VINA RESULT:      -7.8     23.445     25.336
REMARK  3 active torsions:
REMARK  status: ('A' for Active; 'I' for Inactive)
REMARK    1  A    between atoms: C1_7  and  N1_5 
REMARK    2  A    between atoms: C9_15  and  N1_5 
REMARK    3  A    between atoms: C11_17  and  N2_6 
ROOT
HETATM    1  O1  UNK     1      16.353   8.940  10.628  1.00  0.00    -0.273 OA
HETATM    2  O2  UNK     1      17.372   6.952  10.163  1.00  0.00    -0.257 OA
HETATM    3  C9  UNK     1      13.853   7.738   9.905  1.00  0.00     0.081 A 
HETATM    4  C10 UNK     1      13.928   9.157  10.338  1.00  0.00     0.027 A 
HETATM    5  C11 UNK     1      15.022   7.076   9.871  1.00  0.00     0.205 A 
HETATM    6  C12 UNK     1      15.170   9.702  10.685  1.00  0.00     0.092 A 
HETATM    7  C13 UNK     1      12.816  10.012  10.429  1.00  0.00     0.017 A 
HETATM    8  C14 UNK     1      16.345   7.616  10.221  1.00  0.00     0.324 A 
HETATM    9  C15 UNK     1      15.322  11.027  11.104  1.00  0.00     0.038 A 
HETATM   10  C16 UNK     1      12.955  11.343  10.847  1.00  0.00     0.001 A 
HETATM   11  C17 UNK     1      14.207  11.850  11.184  1.00  0.00     0.003 A 
ENDROOT
BRANCH   3  12
HETATM   12  N1  UNK     1      12.639   7.233   9.583  1.00  0.00    -0.382 N 
HETATM   13  H16 UNK     1      12.404   6.348  10.021  1.00  0.00     0.160 HD
BRANCH  12  14
HETATM   14  C1  UNK     1      11.999   7.446   8.294  1.00  0.00     0.082 C 
HETATM   15  C2  UNK     1      10.655   8.151   8.526  1.00  0.00     0.025 C 
HETATM   16  C4  UNK     1       9.504   7.250   8.987  1.00  0.00     0.002 C 
HETATM   17  C6  UNK     1       8.501   6.889   7.889  1.00  0.00     0.000 C 
HETATM   18  C8  UNK     1       8.996   5.948   6.788  1.00  0.00     0.000 C 
HETATM   19  C7  UNK     1      10.036   6.561   5.850  1.00  0.00     0.000 C 
HETATM   20  C5  UNK     1      11.481   6.141   6.113  1.00  0.00     0.002 C 
HETATM   21  C3  UNK     1      11.960   6.101   7.563  1.00  0.00     0.025 C 
ENDBRANCH  12  14
ENDBRANCH   3  12
BRANCH   5  22
HETATM   22  N2  UNK     1      14.991   5.710   9.458  1.00  0.00    -0.107 N 
HETATM   23  O3  UNK     1      14.788   4.862  10.334  1.00  0.00    -0.531 OA
HETATM   24  O4  UNK     1      15.172   5.483   8.256  1.00  0.00    -0.531 OA
ENDBRANCH   5  22
TORSDOF 3
ENDMDL
MODEL 6
REMARK VINA RESULT:      -7.7     12.870     15.239
REMARK  3 active torsions:
REMARK  status: ('A' for Active; 'I' for Inactive)
REMARK    1  A    between atoms: C1_7  and  N1_5 
REMARK    2  A    between atoms: C9_15  and  N1_5 
REMARK    3  A    between atoms: C11_17  and  N2_6 
ROOT
HETATM    1  O1  UNK     1      26.792  -6.334  37.992  1.00  0.00    -0.273 OA
HETATM    2  O2  UNK     1      26.812  -4.244  38.905  1.00  0.00    -0.257 OA
HETATM    3  C9  UNK     1      29.657  -6.246  37.922  1.00  0.00     0.081 A 
HETATM    4  C10 UNK     1      28.911  -7.429  37.421  1.00  0.00     0.027 A 
HETATM    5  C11 UNK     1      28.903  -5.239  38.395  1.00  0.00     0.205 A 
HETATM    6  C12 UNK     1      27.512  -7.430  37.476  1.00  0.00     0.092 A 
HETATM    7  C13 UNK     1      29.521  -8.575  36.882  1.00  0.00     0.017 A 
HETATM    8  C14 UNK     1      27.434  -5.202  38.463  1.00  0.00     0.324 A 
HETATM    9  C15 UNK     1      26.739  -8.505  37.027  1.00  0.00     0.038 A 
HETATM   10  C16 UNK     1      28.758  -9.659  36.427  1.00  0.00     0.001 A 
HETATM   11  C17 UNK     1      27.369  -9.624  36.500  1.00  0.00     0.003 A 
ENDROOT
BRANCH   3  12
HETATM   12  N1  UNK     1      31.009  -6.274  37.864  1.00  0.00    -0.382 N 
HETATM   13  H16 UNK     1      31.487  -5.687  38.540  1.00  0.00     0.160 HD
BRANCH  12  14
HETATM   14  C1  UNK     1      31.754  -6.491  36.633  1.00  0.00     0.082 C 
HETATM   15  C2  UNK     1      33.120  -7.094  36.988  1.00  0.00     0.025 C 
HETATM   16  C4  UNK     1      34.173  -6.100  37.491  1.00  0.00     0.002 C 
HETATM   17  C6  UNK     1      35.228  -5.712  36.452  1.00  0.00     0.000 C 
HETATM   18  C8  UNK     1      34.754  -4.848  35.281  1.00  0.00     0.000 C 
HETATM   19  C7  UNK     1      33.827  -5.563  34.298  1.00  0.00     0.000 C 
HETATM   20  C5  UNK     1      32.342  -5.233  34.443  1.00  0.00     0.002 C 
HETATM   21  C3  UNK     1      31.758  -5.174  35.852  1.00  0.00     0.025 C 
ENDBRANCH  12  14
ENDBRANCH   3  12
BRANCH   5  22
HETATM   22  N2  UNK     1      29.584  -4.084  38.884  1.00  0.00    -0.107 N 
HETATM   23  O3  UNK     1      29.526  -3.870  40.100  1.00  0.00    -0.531 OA
HETATM   24  O4  UNK     1      30.178  -3.387  38.052  1.00  0.00    -0.531 OA
ENDBRANCH   5  22
TORSDOF 3
ENDMDL
MODEL 7
REMARK VINA RESULT:      -7.6      1.913      3.752
REMARK  3 active torsions:
REMARK  status: ('A' for Active; 'I' for Inactive)
REMARK    1  A    between atoms: C1_7  and  N1_5 
REMARK    2  A    between atoms: C9_15  and  N1_5 
REMARK    3  A    between atoms: C11_17  and  N2_6 
ROOT
HETATM    1  O1  UNK     1      19.195   1.811  29.173  1.00  0.00    -0.273 OA
HETATM    2  O2  UNK     1      19.722  -0.387  28.865  1.00  0.00    -0.257 OA
HETATM    3  C9  UNK     1      19.033   1.298  31.989  1.00  0.00     0.081 A 
HETATM    4  C10 UNK     1      18.770   2.652  31.437  1.00  0.00     0.027 A 
HETATM    5  C11 UNK     1      19.340   0.351  31.086  1.00  0.00     0.205 A 
HETATM    6  C12 UNK     1      18.862   2.858  30.055  1.00  0.00     0.092 A 
HETATM    7  C13 UNK     1      18.427   3.768  32.219  1.00  0.00     0.017 A 
HETATM    8  C14 UNK     1      19.440   0.528  29.630  1.00  0.00     0.324 A 
HETATM    9  C15 UNK     1      18.632   4.102  29.460  1.00  0.00     0.038 A 
HETATM   10  C16 UNK     1      18.191   5.021  31.635  1.00  0.00     0.001 A 
HETATM   11  C17 UNK     1      18.294   5.187  30.257  1.00  0.00     0.003 A 
ENDROOT
BRANCH   3  12
HETATM   12  N1  UNK     1      18.944   1.127  33.329  1.00  0.00    -0.382 N 
HETATM   13  H16 UNK     1      19.569   0.431  33.723  1.00  0.00     0.160 HD
BRANCH  12  14
HETATM   14  C1  UNK     1      17.712   1.313  34.080  1.00  0.00     0.082 C 
HETATM   15  C2  UNK     1      17.982   2.298  35.226  1.00  0.00     0.025 C 
HETATM   16  C4  UNK     1      18.683   1.710  36.455  1.00  0.00     0.002 C 
HETATM   17  C6  UNK     1      17.758   1.432  37.642  1.00  0.00     0.000 C 
HETATM   18  C8  UNK     1      16.756   0.288  37.480  1.00  0.00     0.000 C 
HETATM   19  C7  UNK     1      15.636   0.562  36.475  1.00  0.00     0.000 C 
HETATM   20  C5  UNK     1      15.804  -0.108  35.112  1.00  0.00     0.002 C 
HETATM   21  C3  UNK     1      17.187  -0.072  34.465  1.00  0.00     0.025 C 
ENDBRANCH  12  14
ENDBRANCH   3  12
BRANCH   5  22
HETATM   22  N2  UNK     1      19.598  -0.964  31.578  1.00  0.00    -0.107 N 
HETATM   23  O3  UNK     1      18.617  -1.684  31.801  1.00  0.00    -0.531 OA
HETATM   24  O4  UNK     1      20.782  -1.280  31.744  1.00  0.00    -0.531 OA
ENDBRANCH   5  22
TORSDOF 3
ENDMDL
MODEL 8
REMARK VINA RESULT:      -7.6      4.619      6.550
REMARK  3 active torsions:
REMARK  status: ('A' for Active; 'I' for Inactive)
REMARK    1  A    between atoms: C1_7  and  N1_5 
REMARK    2  A    between atoms: C9_15  and  N1_5 
REMARK    3  A    between atoms: C11_17  and  N2_6 
ROOT
HETATM    1  O1  UNK     1      18.143  -0.388  33.189  1.00  0.00    -0.273 OA
HETATM    2  O2  UNK     1      19.523  -1.074  31.507  1.00  0.00    -0.257 OA
HETATM    3  C9  UNK     1      19.657  -2.023  34.993  1.00  0.00     0.081 A 
HETATM    4  C10 UNK     1      18.493  -1.230  35.466  1.00  0.00     0.027 A 
HETATM    5  C11 UNK     1      19.937  -1.923  33.683  1.00  0.00     0.205 A 
HETATM    6  C12 UNK     1      17.784  -0.443  34.550  1.00  0.00     0.092 A 
HETATM    7  C13 UNK     1      18.041  -1.211  36.797  1.00  0.00     0.017 A 
HETATM    8  C14 UNK     1      19.212  -1.113  32.691  1.00  0.00     0.324 A 
HETATM    9  C15 UNK     1      16.679   0.332  34.917  1.00  0.00     0.038 A 
HETATM   10  C16 UNK     1      16.934  -0.439  37.178  1.00  0.00     0.001 A 
HETATM   11  C17 UNK     1      16.255   0.332  36.240  1.00  0.00     0.003 A 
ENDROOT
BRANCH   3  12
HETATM   12  N1  UNK     1      20.331  -2.768  35.900  1.00  0.00    -0.382 N 
HETATM   13  H16 UNK     1      21.332  -2.841  35.749  1.00  0.00     0.160 HD
BRANCH  12  14
HETATM   14  C1  UNK     1      19.749  -3.911  36.588  1.00  0.00     0.082 C 
HETATM   15  C2  UNK     1      20.470  -4.092  37.931  1.00  0.00     0.025 C 
HETATM   16  C4  UNK     1      21.836  -4.785  37.863  1.00  0.00     0.002 C 
HETATM   17  C6  UNK     1      21.826  -6.254  38.293  1.00  0.00     0.000 C 
HETATM   18  C8  UNK     1      21.113  -7.238  37.364  1.00  0.00     0.000 C 
HETATM   19  C7  UNK     1      19.593  -7.081  37.320  1.00  0.00     0.000 C 
HETATM   20  C5  UNK     1      19.046  -6.357  36.090  1.00  0.00     0.002 C 
HETATM   21  C3  UNK     1      19.773  -5.099  35.622  1.00  0.00     0.025 C 
ENDBRANCH  12  14
ENDBRANCH   3  12
BRANCH   5  22
HETATM   22  N2  UNK     1      21.048  -2.672  33.190  1.00  0.00    -0.107 N 
HETATM   23  O3  UNK     1      20.809  -3.791  32.724  1.00  0.00    -0.531 OA
HETATM   24  O4  UNK     1      22.162  -2.141  33.270  1.00  0.00    -0.531 OA
ENDBRANCH   5  22
TORSDOF 3
ENDMDL
MODEL 9
REMARK VINA RESULT:      -7.6     23.627     25.700
REMARK  3 active torsions:
REMARK  status: ('A' for Active; 'I' for Inactive)
REMARK    1  A    between atoms: C1_7  and  N1_5 
REMARK    2  A    between atoms: C9_15  and  N1_5 
REMARK    3  A    between atoms: C11_17  and  N2_6 
ROOT
HETATM    1  O1  UNK     1       8.573   7.143   8.677  1.00  0.00    -0.273 OA
HETATM    2  O2  UNK     1       9.005   5.420   7.245  1.00  0.00    -0.257 OA
HETATM    3  C9  UNK     1      11.351   7.838   8.555  1.00  0.00     0.081 A 
HETATM    4  C10 UNK     1      10.400   8.613   9.393  1.00  0.00     0.027 A 
HETATM    5  C11 UNK     1      10.823   6.805   7.878  1.00  0.00     0.205 A 
HETATM    6  C12 UNK     1       9.051   8.239   9.420  1.00  0.00     0.092 A 
HETATM    7  C13 UNK     1      10.763   9.721  10.179  1.00  0.00     0.017 A 
HETATM    8  C14 UNK     1       9.415   6.379   7.887  1.00  0.00     0.324 A 
HETATM    9  C15 UNK     1       8.094   8.918  10.181  1.00  0.00     0.038 A 
HETATM   10  C16 UNK     1       9.814  10.410  10.947  1.00  0.00     0.001 A 
HETATM   11  C17 UNK     1       8.482  10.009  10.948  1.00  0.00     0.003 A 
ENDROOT
BRANCH   3  12
HETATM   12  N1  UNK     1      12.648   8.225   8.540  1.00  0.00    -0.382 N 
HETATM   13  H16 UNK     1      13.082   8.262   7.624  1.00  0.00     0.160 HD
BRANCH  12  14
HETATM   14  C1  UNK     1      13.577   7.955   9.627  1.00  0.00     0.082 C 
HETATM   15  C2  UNK     1      14.171   9.288  10.104  1.00  0.00     0.025 C 
HETATM   16  C4  UNK     1      15.299   9.860   9.238  1.00  0.00     0.002 C 
HETATM   17  C6  UNK     1      16.704   9.657   9.808  1.00  0.00     0.000 C 
HETATM   18  C8  UNK     1      17.240   8.224   9.823  1.00  0.00     0.000 C 
HETATM   19  C7  UNK     1      16.538   7.294  10.813  1.00  0.00     0.000 C 
HETATM   20  C5  UNK     1      15.520   6.335  10.198  1.00  0.00     0.002 C 
HETATM   21  C3  UNK     1      14.563   6.888   9.145  1.00  0.00     0.025 C 
ENDBRANCH  12  14
ENDBRANCH   3  12
BRANCH   5  22
HETATM   22  N2  UNK     1      11.707   6.035   7.063  1.00  0.00    -0.107 N 
HETATM   23  O3  UNK     1      12.206   5.025   7.573  1.00  0.00    -0.531 OA
HETATM   24  O4  UNK     1      11.904   6.439   5.911  1.00  0.00    -0.531 OA
ENDBRANCH   5  22
TORSDOF 3
ENDMDL
MODEL 10
REMARK VINA RESULT:      -7.6     23.126     25.551
REMARK  3 active torsions:
REMARK  status: ('A' for Active; 'I' for Inactive)
REMARK    1  A    between atoms: C1_7  and  N1_5 
REMARK    2  A    between atoms: C9_15  and  N1_5 
REMARK    3  A    between atoms: C11_17  and  N2_6 
ROOT
HETATM    1  O1  UNK     1       8.739   7.927   8.869  1.00  0.00    -0.273 OA
HETATM    2  O2  UNK     1       8.351   9.356  10.604  1.00  0.00    -0.257 OA
HETATM    3  C9  UNK     1      11.491   8.729   8.927  1.00  0.00     0.081 A 
HETATM    4  C10 UNK     1      11.000   7.735   7.938  1.00  0.00     0.027 A 
HETATM    5  C11 UNK     1      10.566   9.218   9.770  1.00  0.00     0.205 A 
HETATM    6  C12 UNK     1       9.648   7.371   7.947  1.00  0.00     0.092 A 
HETATM    7  C13 UNK     1      11.812   7.118   6.970  1.00  0.00     0.017 A 
HETATM    8  C14 UNK     1       9.139   8.865   9.806  1.00  0.00     0.324 A 
HETATM    9  C15 UNK     1       9.109   6.443   7.051  1.00  0.00     0.038 A 
HETATM   10  C16 UNK     1      11.285   6.186   6.065  1.00  0.00     0.001 A 
HETATM   11  C17 UNK     1       9.936   5.849   6.106  1.00  0.00     0.003 A 
ENDROOT
BRANCH   3  12
HETATM   12  N1  UNK     1      12.805   9.057   8.901  1.00  0.00    -0.382 N 
HETATM   13  H16 UNK     1      13.207   9.178   7.978  1.00  0.00     0.160 HD
BRANCH  12  14
HETATM   14  C1  UNK     1      13.757   8.626   9.913  1.00  0.00     0.082 C 
HETATM   15  C2  UNK     1      14.593   9.838  10.346  1.00  0.00     0.025 C 
HETATM   16  C4  UNK     1      15.728  10.235   9.396  1.00  0.00     0.002 C 
HETATM   17  C6  UNK     1      17.122   9.801   9.855  1.00  0.00     0.000 C 
HETATM   18  C8  UNK     1      17.420   8.300   9.825  1.00  0.00     0.000 C 
HETATM   19  C7  UNK     1      16.655   7.481  10.864  1.00  0.00     0.000 C 
HETATM   20  C5  UNK     1      15.452   6.706  10.328  1.00  0.00     0.002 C 
HETATM   21  C3  UNK     1      14.520   7.422   9.352  1.00  0.00     0.025 C 
ENDBRANCH  12  14
ENDBRANCH   3  12
BRANCH   5  22
HETATM   22  N2  UNK     1      11.001  10.177  10.734  1.00  0.00    -0.107 N 
HETATM   23  O3  UNK     1      11.002  11.363  10.386  1.00  0.00    -0.531 OA
HETATM   24  O4  UNK     1      11.343   9.745  11.841  1.00  0.00    -0.531 OA
ENDBRANCH   5  22
TORSDOF 3
ENDMDL
