MODEL 1
REMARK VINA RESULT:      -9.1      0.000      0.000
REMARK  3 active torsions:
REMARK  status: ('A' for Active; 'I' for Inactive)
REMARK       I    between atoms: C15_23  and  N1_7 
REMARK    1  A    between atoms: N1_7  and  N2_8 
REMARK    2  A    between atoms: C13_21  and  C4_12 
REMARK    3  A    between atoms: C10_18  and  C15_23 
ROOT
HETATM    1 Cl1  UNK     1      18.592  11.373  34.624  1.00  0.00    -0.081 Cl
HETATM    2 Cl2  UNK     1      13.417  10.631  33.351  1.00  0.00    -0.084 Cl
HETATM    3  O1  UNK     1      18.961   8.670  33.534  1.00  0.00    -0.319 OA
HETATM    4  O2  UNK     1      16.113   6.210  31.951  1.00  0.00    -0.286 OA
HETATM    5  C1  UNK     1      16.635   8.291  32.939  1.00  0.00     0.052 A 
HETATM    6  C2  UNK     1      17.654   9.085  33.469  1.00  0.00     0.111 A 
HETATM    7  C3  UNK     1      16.966   6.948  32.426  1.00  0.00     0.198 A 
HETATM    8  C4  UNK     1      18.387   6.551  32.521  1.00  0.00     0.056 A 
HETATM    9  C5  UNK     1      15.321   8.764  32.901  1.00  0.00     0.042 A 
HETATM   10  C6  UNK     1      17.363  10.358  33.961  1.00  0.00     0.070 A 
HETATM   11  C7  UNK     1      19.256   7.417  33.053  1.00  0.00     0.159 A 
HETATM   12  C8  UNK     1      15.034  10.038  33.394  1.00  0.00     0.036 A 
HETATM   13  C9  UNK     1      16.052  10.833  33.923  1.00  0.00     0.050 A 
ENDROOT
BRANCH   8  14
HETATM   14  C13 UNK     1      18.899   5.259  32.065  1.00  0.00     0.156 C 
HETATM   15  N2  UNK     1      18.749   4.843  30.849  1.00  0.00    -0.183 NA
BRANCH  15  16
HETATM   16  N1  UNK     1      19.289   3.623  30.613  1.00  0.00    -0.243 N 
HETATM   17  C15 UNK     1      18.450   2.518  30.607  1.00  0.00     0.272 C 
HETATM   18  O3  UNK     1      17.238   2.592  30.806  1.00  0.00    -0.266 OA
HETATM   19  H10 UNK     1      20.284   3.571  30.426  1.00  0.00     0.192 HD
BRANCH  17  20
HETATM   20  C10 UNK     1      19.102   1.232  30.318  1.00  0.00     0.041 A 
HETATM   21  C12 UNK     1      19.465   0.286  31.293  1.00  0.00     0.031 A 
HETATM   22  C11 UNK     1      20.056  -0.817  30.718  1.00  0.00    -0.021 A 
HETATM   23  S1  UNK     1      20.154  -0.677  29.014  1.00  0.00    -0.106 SA
HETATM   24  C16 UNK     1      20.580  -2.031  31.379  1.00  0.00     0.056 C 
HETATM   25  C14 UNK     1      19.405   0.862  29.043  1.00  0.00     0.067 A 
ENDBRANCH  17  20
ENDBRANCH  15  16
ENDBRANCH   8  14
TORSDOF 3
ENDMDL
MODEL 2
REMARK VINA RESULT:      -8.6      5.821      7.804
REMARK  3 active torsions:
REMARK  status: ('A' for Active; 'I' for Inactive)
REMARK       I    between atoms: C15_23  and  N1_7 
REMARK    1  A    between atoms: N1_7  and  N2_8 
REMARK    2  A    between atoms: C13_21  and  C4_12 
REMARK    3  A    between atoms: C10_18  and  C15_23 
ROOT
HETATM    1 Cl1  UNK     1      18.627   2.965  29.528  1.00  0.00    -0.081 Cl
HETATM    2 Cl2  UNK     1      17.889   6.659  33.370  1.00  0.00    -0.084 Cl
HETATM    3  O1  UNK     1      18.631   1.050  31.756  1.00  0.00    -0.319 OA
HETATM    4  O2  UNK     1      18.185   1.854  35.734  1.00  0.00    -0.286 OA
HETATM    5  C1  UNK     1      18.296   2.683  33.525  1.00  0.00     0.052 A 
HETATM    6  C2  UNK     1      18.454   2.344  32.180  1.00  0.00     0.111 A 
HETATM    7  C3  UNK     1      18.319   1.614  34.541  1.00  0.00     0.198 A 
HETATM    8  C4  UNK     1      18.514   0.240  34.030  1.00  0.00     0.056 A 
HETATM    9  C5  UNK     1      18.121   4.018  33.899  1.00  0.00     0.042 A 
HETATM   10  C6  UNK     1      18.436   3.339  31.202  1.00  0.00     0.070 A 
HETATM   11  C7  UNK     1      18.651   0.064  32.712  1.00  0.00     0.159 A 
HETATM   12  C8  UNK     1      18.104   5.011  32.918  1.00  0.00     0.036 A 
HETATM   13  C9  UNK     1      18.261   4.673  31.573  1.00  0.00     0.050 A 
ENDROOT
BRANCH   8  14
HETATM   14  C13 UNK     1      18.565  -0.943  34.890  1.00  0.00     0.156 C 
HETATM   15  N2  UNK     1      19.644  -1.310  35.503  1.00  0.00    -0.183 NA
BRANCH  15  16
HETATM   16  N1  UNK     1      19.498  -2.430  36.252  1.00  0.00    -0.243 N 
HETATM   17  C15 UNK     1      19.931  -3.638  35.727  1.00  0.00     0.272 C 
HETATM   18  O3  UNK     1      20.442  -3.743  34.612  1.00  0.00    -0.266 OA
HETATM   19  H10 UNK     1      19.099  -2.333  37.179  1.00  0.00     0.192 HD
BRANCH  17  20
HETATM   20  C10 UNK     1      19.766  -4.805  36.607  1.00  0.00     0.041 A 
HETATM   21  C12 UNK     1      20.653  -5.153  37.642  1.00  0.00     0.031 A 
HETATM   22  C11 UNK     1      20.234  -6.294  38.290  1.00  0.00    -0.021 A 
HETATM   23  S1  UNK     1      18.779  -6.910  37.629  1.00  0.00    -0.106 SA
HETATM   24  C16 UNK     1      20.871  -6.994  39.425  1.00  0.00     0.056 C 
HETATM   25  C14 UNK     1      18.708  -5.650  36.471  1.00  0.00     0.067 A 
ENDBRANCH  17  20
ENDBRANCH  15  16
ENDBRANCH   8  14
TORSDOF 3
ENDMDL
MODEL 3
REMARK VINA RESULT:      -8.2      5.023      9.391
REMARK  3 active torsions:
REMARK  status: ('A' for Active; 'I' for Inactive)
REMARK       I    between atoms: C15_23  and  N1_7 
REMARK    1  A    between atoms: N1_7  and  N2_8 
REMARK    2  A    between atoms: C13_21  and  C4_12 
REMARK    3  A    between atoms: C10_18  and  C15_23 
ROOT
HETATM    1 Cl1  UNK     1      18.682  -0.952  33.693  1.00  0.00    -0.081 Cl
HETATM    2 Cl2  UNK     1      20.168  -0.790  28.524  1.00  0.00    -0.084 Cl
HETATM    3  O1  UNK     1      18.238   1.933  33.369  1.00  0.00    -0.319 OA
HETATM    4  O2  UNK     1      18.802   4.180  30.007  1.00  0.00    -0.286 OA
HETATM    5  C1  UNK     1      18.898   2.055  31.033  1.00  0.00     0.052 A 
HETATM    6  C2  UNK     1      18.686   1.341  32.214  1.00  0.00     0.111 A 
HETATM    7  C3  UNK     1      18.633   3.506  31.014  1.00  0.00     0.198 A 
HETATM    8  C4  UNK     1      18.154   4.092  32.284  1.00  0.00     0.056 A 
HETATM    9  C5  UNK     1      19.358   1.399  29.887  1.00  0.00     0.042 A 
HETATM   10  C6  UNK     1      18.931  -0.032  32.254  1.00  0.00     0.070 A 
HETATM   11  C7  UNK     1      17.996   3.286  33.339  1.00  0.00     0.159 A 
HETATM   12  C8  UNK     1      19.602   0.026  29.931  1.00  0.00     0.036 A 
HETATM   13  C9  UNK     1      19.389  -0.688  31.111  1.00  0.00     0.050 A 
ENDROOT
BRANCH   8  14
HETATM   14  C13 UNK     1      17.842   5.511  32.453  1.00  0.00     0.156 C 
HETATM   15  N2  UNK     1      18.746   6.393  32.733  1.00  0.00    -0.183 NA
BRANCH  15  16
HETATM   16  N1  UNK     1      18.268   7.655  32.852  1.00  0.00    -0.243 N 
HETATM   17  C15 UNK     1      18.549   8.364  34.011  1.00  0.00     0.272 C 
HETATM   18  O3  UNK     1      19.214   7.901  34.938  1.00  0.00    -0.266 OA
HETATM   19  H10 UNK     1      17.741   8.039  32.075  1.00  0.00     0.192 HD
BRANCH  17  20
HETATM   20  C10 UNK     1      18.021   9.735  34.057  1.00  0.00     0.041 A 
HETATM   21  C12 UNK     1      18.806  10.896  33.936  1.00  0.00     0.031 A 
HETATM   22  C11 UNK     1      18.029  12.030  34.019  1.00  0.00    -0.021 A 
HETATM   23  S1  UNK     1      16.372  11.658  34.239  1.00  0.00    -0.106 SA
HETATM   24  C16 UNK     1      18.453  13.444  33.941  1.00  0.00     0.056 C 
HETATM   25  C14 UNK     1      16.692   9.976  34.226  1.00  0.00     0.067 A 
ENDBRANCH  17  20
ENDBRANCH  15  16
ENDBRANCH   8  14
TORSDOF 3
ENDMDL
MODEL 4
REMARK VINA RESULT:      -8.1      1.548      1.741
REMARK  3 active torsions:
REMARK  status: ('A' for Active; 'I' for Inactive)
REMARK       I    between atoms: C15_23  and  N1_7 
REMARK    1  A    between atoms: N1_7  and  N2_8 
REMARK    2  A    between atoms: C13_21  and  C4_12 
REMARK    3  A    between atoms: C10_18  and  C15_23 
ROOT
HETATM    1 Cl1  UNK     1      18.374  12.412  33.998  1.00  0.00    -0.081 Cl
HETATM    2 Cl2  UNK     1      13.318  11.777  35.726  1.00  0.00    -0.084 Cl
HETATM    3  O1  UNK     1      18.287   9.512  33.537  1.00  0.00    -0.319 OA
HETATM    4  O2  UNK     1      15.169   6.970  34.233  1.00  0.00    -0.286 OA
HETATM    5  C1  UNK     1      16.006   9.177  34.305  1.00  0.00     0.052 A 
HETATM    6  C2  UNK     1      17.107   9.995  34.046  1.00  0.00     0.111 A 
HETATM    7  C3  UNK     1      16.103   7.733  34.025  1.00  0.00     0.198 A 
HETATM    8  C4  UNK     1      17.396   7.266  33.479  1.00  0.00     0.056 A 
HETATM    9  C5  UNK     1      14.830   9.724  34.826  1.00  0.00     0.042 A 
HETATM   10  C6  UNK     1      17.037  11.364  34.305  1.00  0.00     0.070 A 
HETATM   11  C7  UNK     1      18.366   8.164  33.281  1.00  0.00     0.159 A 
HETATM   12  C8  UNK     1      14.763  11.094  35.084  1.00  0.00     0.036 A 
HETATM   13  C9  UNK     1      15.863  11.913  34.824  1.00  0.00     0.050 A 
ENDROOT
BRANCH   8  14
HETATM   14  C13 UNK     1      17.675   5.870  33.143  1.00  0.00     0.156 C 
HETATM   15  N2  UNK     1      17.220   5.310  32.069  1.00  0.00    -0.183 NA
BRANCH  15  16
HETATM   16  N1  UNK     1      17.582   4.011  31.929  1.00  0.00    -0.243 N 
HETATM   17  C15 UNK     1      18.447   3.672  30.899  1.00  0.00     0.272 C 
HETATM   18  O3  UNK     1      18.903   4.495  30.104  1.00  0.00    -0.266 OA
HETATM   19  H10 UNK     1      17.223   3.342  32.601  1.00  0.00     0.192 HD
BRANCH  17  20
HETATM   20  C10 UNK     1      18.817   2.251  30.826  1.00  0.00     0.041 A 
HETATM   21  C12 UNK     1      18.759   1.357  31.910  1.00  0.00     0.031 A 
HETATM   22  C11 UNK     1      19.167   0.096  31.535  1.00  0.00    -0.021 A 
HETATM   23  S1  UNK     1      19.607   0.030  29.881  1.00  0.00    -0.106 SA
HETATM   24  C16 UNK     1      19.257  -1.127  32.360  1.00  0.00     0.056 C 
HETATM   25  C14 UNK     1      19.253   1.691  29.664  1.00  0.00     0.067 A 
ENDBRANCH  17  20
ENDBRANCH  15  16
ENDBRANCH   8  14
TORSDOF 3
ENDMDL
MODEL 5
REMARK VINA RESULT:      -8.1      6.108      8.120
REMARK  3 active torsions:
REMARK  status: ('A' for Active; 'I' for Inactive)
REMARK       I    between atoms: C15_23  and  N1_7 
REMARK    1  A    between atoms: N1_7  and  N2_8 
REMARK    2  A    between atoms: C13_21  and  C4_12 
REMARK    3  A    between atoms: C10_18  and  C15_23 
ROOT
HETATM    1 Cl1  UNK     1      18.049   5.395  34.069  1.00  0.00    -0.081 Cl
HETATM    2 Cl2  UNK     1      18.561   3.449  29.079  1.00  0.00    -0.084 Cl
HETATM    3  O1  UNK     1      18.183   2.577  34.885  1.00  0.00    -0.319 OA
HETATM    4  O2  UNK     1      18.595  -0.698  32.481  1.00  0.00    -0.286 OA
HETATM    5  C1  UNK     1      18.419   1.652  32.650  1.00  0.00     0.052 A 
HETATM    6  C2  UNK     1      18.276   2.731  33.524  1.00  0.00     0.111 A 
HETATM    7  C3  UNK     1      18.471   0.285  33.201  1.00  0.00     0.198 A 
HETATM    8  C4  UNK     1      18.365   0.176  34.672  1.00  0.00     0.056 A 
HETATM    9  C5  UNK     1      18.506   1.869  31.272  1.00  0.00     0.042 A 
HETATM   10  C6  UNK     1      18.223   4.033  33.024  1.00  0.00     0.070 A 
HETATM   11  C7  UNK     1      18.233   1.298  35.386  1.00  0.00     0.159 A 
HETATM   12  C8  UNK     1      18.452   3.171  30.776  1.00  0.00     0.036 A 
HETATM   13  C9  UNK     1      18.312   4.252  31.649  1.00  0.00     0.050 A 
ENDROOT
BRANCH   8  14
HETATM   14  C13 UNK     1      18.397  -1.097  35.393  1.00  0.00     0.156 C 
HETATM   15  N2  UNK     1      19.306  -1.375  36.270  1.00  0.00    -0.183 NA
BRANCH  15  16
HETATM   16  N1  UNK     1      19.172  -2.601  36.833  1.00  0.00    -0.243 N 
HETATM   17  C15 UNK     1      19.866  -3.665  36.275  1.00  0.00     0.272 C 
HETATM   18  O3  UNK     1      20.598  -3.550  35.292  1.00  0.00    -0.266 OA
HETATM   19  H10 UNK     1      18.587  -2.684  37.657  1.00  0.00     0.192 HD
BRANCH  17  20
HETATM   20  C10 UNK     1      19.693  -4.957  36.955  1.00  0.00     0.041 A 
HETATM   21  C12 UNK     1      20.522  -5.430  37.989  1.00  0.00     0.031 A 
HETATM   22  C11 UNK     1      20.111  -6.670  38.425  1.00  0.00    -0.021 A 
HETATM   23  S1  UNK     1      18.734  -7.226  37.573  1.00  0.00    -0.106 SA
HETATM   24  C16 UNK     1      20.699  -7.514  39.486  1.00  0.00     0.056 C 
HETATM   25  C14 UNK     1      18.686  -5.808  36.616  1.00  0.00     0.067 A 
ENDBRANCH  17  20
ENDBRANCH  15  16
ENDBRANCH   8  14
TORSDOF 3
ENDMDL
MODEL 6
REMARK VINA RESULT:      -8.1      4.991      9.346
REMARK  3 active torsions:
REMARK  status: ('A' for Active; 'I' for Inactive)
REMARK       I    between atoms: C15_23  and  N1_7 
REMARK    1  A    between atoms: N1_7  and  N2_8 
REMARK    2  A    between atoms: C13_21  and  C4_12 
REMARK    3  A    between atoms: C10_18  and  C15_23 
ROOT
HETATM    1 Cl1  UNK     1      18.717  -0.993  33.571  1.00  0.00    -0.081 Cl
HETATM    2 Cl2  UNK     1      20.122  -0.820  28.380  1.00  0.00    -0.084 Cl
HETATM    3  O1  UNK     1      18.290   1.896  33.266  1.00  0.00    -0.319 OA
HETATM    4  O2  UNK     1      18.817   4.153  29.904  1.00  0.00    -0.286 OA
HETATM    5  C1  UNK     1      18.914   2.023  30.920  1.00  0.00     0.052 A 
HETATM    6  C2  UNK     1      18.716   1.306  32.101  1.00  0.00     0.111 A 
HETATM    7  C3  UNK     1      18.660   3.476  30.911  1.00  0.00     0.198 A 
HETATM    8  C4  UNK     1      18.205   4.061  32.191  1.00  0.00     0.056 A 
HETATM    9  C5  UNK     1      19.350   1.369  29.764  1.00  0.00     0.042 A 
HETATM   10  C6  UNK     1      18.951  -0.069  32.132  1.00  0.00     0.070 A 
HETATM   11  C7  UNK     1      18.058   3.251  33.245  1.00  0.00     0.159 A 
HETATM   12  C8  UNK     1      19.585  -0.006  29.799  1.00  0.00     0.036 A 
HETATM   13  C9  UNK     1      19.386  -0.724  30.979  1.00  0.00     0.050 A 
ENDROOT
BRANCH   8  14
HETATM   14  C13 UNK     1      17.906   5.481  32.371  1.00  0.00     0.156 C 
HETATM   15  N2  UNK     1      18.827   6.361  32.603  1.00  0.00    -0.183 NA
BRANCH  15  16
HETATM   16  N1  UNK     1      18.358   7.625  32.742  1.00  0.00    -0.243 N 
HETATM   17  C15 UNK     1      18.497   8.251  33.972  1.00  0.00     0.272 C 
HETATM   18  O3  UNK     1      19.024   7.713  34.945  1.00  0.00    -0.266 OA
HETATM   19  H10 UNK     1      17.946   8.071  31.930  1.00  0.00     0.192 HD
BRANCH  17  20
HETATM   20  C10 UNK     1      17.991   9.630  34.039  1.00  0.00     0.041 A 
HETATM   21  C12 UNK     1      16.630   9.975  34.128  1.00  0.00     0.031 A 
HETATM   22  C11 UNK     1      16.468  11.342  34.175  1.00  0.00    -0.021 A 
HETATM   23  S1  UNK     1      17.966  12.168  34.112  1.00  0.00    -0.106 SA
HETATM   24  C16 UNK     1      15.213  12.118  34.269  1.00  0.00     0.056 C 
HETATM   25  C14 UNK     1      18.836  10.697  34.020  1.00  0.00     0.067 A 
ENDBRANCH  17  20
ENDBRANCH  15  16
ENDBRANCH   8  14
TORSDOF 3
ENDMDL
MODEL 7
REMARK VINA RESULT:      -8.1     10.432     15.021
REMARK  3 active torsions:
REMARK  status: ('A' for Active; 'I' for Inactive)
REMARK       I    between atoms: C15_23  and  N1_7 
REMARK    1  A    between atoms: N1_7  and  N2_8 
REMARK    2  A    between atoms: C13_21  and  C4_12 
REMARK    3  A    between atoms: C10_18  and  C15_23 
ROOT
HETATM    1 Cl1  UNK     1      22.082 -10.888  35.052  1.00  0.00    -0.081 Cl
HETATM    2 Cl2  UNK     1      19.189 -11.953  39.462  1.00  0.00    -0.084 Cl
HETATM    3  O1  UNK     1      20.916  -8.201  35.273  1.00  0.00    -0.319 OA
HETATM    4  O2  UNK     1      18.304  -6.841  38.102  1.00  0.00    -0.286 OA
HETATM    5  C1  UNK     1      19.594  -8.635  37.267  1.00  0.00     0.052 A 
HETATM    6  C2  UNK     1      20.486  -9.040  36.271  1.00  0.00     0.111 A 
HETATM    7  C3  UNK     1      19.087  -7.250  37.254  1.00  0.00     0.198 A 
HETATM    8  C4  UNK     1      19.581  -6.390  36.158  1.00  0.00     0.056 A 
HETATM    9  C5  UNK     1      19.189  -9.534  38.257  1.00  0.00     0.042 A 
HETATM   10  C6  UNK     1      20.978 -10.345  36.263  1.00  0.00     0.070 A 
HETATM   11  C7  UNK     1      20.436  -6.913  35.273  1.00  0.00     0.159 A 
HETATM   12  C8  UNK     1      19.683 -10.839  38.245  1.00  0.00     0.036 A 
HETATM   13  C9  UNK     1      20.575 -11.244  37.252  1.00  0.00     0.050 A 
ENDROOT
BRANCH   8  14
HETATM   14  C13 UNK     1      19.186  -4.992  35.985  1.00  0.00     0.156 C 
HETATM   15  N2  UNK     1      20.049  -4.035  35.872  1.00  0.00    -0.183 NA
BRANCH  15  16
HETATM   16  N1  UNK     1      19.495  -2.807  35.721  1.00  0.00    -0.243 N 
HETATM   17  C15 UNK     1      19.206  -2.066  36.857  1.00  0.00     0.272 C 
HETATM   18  O3  UNK     1      19.429  -2.471  37.999  1.00  0.00    -0.266 OA
HETATM   19  H10 UNK     1      19.337  -2.471  34.777  1.00  0.00     0.192 HD
BRANCH  17  20
HETATM   20  C10 UNK     1      18.633  -0.735  36.615  1.00  0.00     0.041 A 
HETATM   21  C12 UNK     1      18.956   0.083  35.517  1.00  0.00     0.031 A 
HETATM   22  C11 UNK     1      18.259   1.270  35.561  1.00  0.00    -0.021 A 
HETATM   23  S1  UNK     1      17.233   1.361  36.929  1.00  0.00    -0.106 SA
HETATM   24  C16 UNK     1      18.304   2.401  34.610  1.00  0.00     0.056 C 
HETATM   25  C14 UNK     1      17.721  -0.190  37.466  1.00  0.00     0.067 A 
ENDBRANCH  17  20
ENDBRANCH  15  16
ENDBRANCH   8  14
TORSDOF 3
ENDMDL
MODEL 8
REMARK VINA RESULT:      -8.0      9.579     13.617
REMARK  3 active torsions:
REMARK  status: ('A' for Active; 'I' for Inactive)
REMARK       I    between atoms: C15_23  and  N1_7 
REMARK    1  A    between atoms: N1_7  and  N2_8 
REMARK    2  A    between atoms: C13_21  and  C4_12 
REMARK    3  A    between atoms: C10_18  and  C15_23 
ROOT
HETATM    1 Cl1  UNK     1      22.409  -7.337  40.530  1.00  0.00    -0.081 Cl
HETATM    2 Cl2  UNK     1      19.223 -11.204  38.569  1.00  0.00    -0.084 Cl
HETATM    3  O1  UNK     1      21.426  -5.758  38.258  1.00  0.00    -0.319 OA
HETATM    4  O2  UNK     1      18.768  -6.914  35.382  1.00  0.00    -0.286 OA
HETATM    5  C1  UNK     1      19.971  -7.473  37.336  1.00  0.00     0.052 A 
HETATM    6  C2  UNK     1      20.884  -7.019  38.289  1.00  0.00     0.111 A 
HETATM    7  C3  UNK     1      19.565  -6.568  36.245  1.00  0.00     0.198 A 
HETATM    8  C4  UNK     1      20.179  -5.223  36.257  1.00  0.00     0.056 A 
HETATM    9  C5  UNK     1      19.454  -8.769  37.418  1.00  0.00     0.042 A 
HETATM   10  C6  UNK     1      21.283  -7.858  39.330  1.00  0.00     0.070 A 
HETATM   11  C7  UNK     1      21.040  -4.924  37.235  1.00  0.00     0.159 A 
HETATM   12  C8  UNK     1      19.856  -9.606  38.459  1.00  0.00     0.036 A 
HETATM   13  C9  UNK     1      20.767  -9.152  39.414  1.00  0.00     0.050 A 
ENDROOT
BRANCH   8  14
HETATM   14  C13 UNK     1      19.896  -4.195  35.255  1.00  0.00     0.156 C 
HETATM   15  N2  UNK     1      20.590  -3.108  35.161  1.00  0.00    -0.183 NA
BRANCH  15  16
HETATM   16  N1  UNK     1      20.179  -2.275  34.173  1.00  0.00    -0.243 N 
HETATM   17  C15 UNK     1      20.690  -2.458  32.897  1.00  0.00     0.272 C 
HETATM   18  O3  UNK     1      21.500  -3.341  32.617  1.00  0.00    -0.266 OA
HETATM   19  H10 UNK     1      19.493  -1.565  34.406  1.00  0.00     0.192 HD
BRANCH  17  20
HETATM   20  C10 UNK     1      20.177  -1.535  31.873  1.00  0.00     0.041 A 
HETATM   21  C12 UNK     1      20.284  -1.746  30.486  1.00  0.00     0.031 A 
HETATM   22  C11 UNK     1      19.712  -0.710  29.783  1.00  0.00    -0.021 A 
HETATM   23  S1  UNK     1      19.060   0.487  30.820  1.00  0.00    -0.106 SA
HETATM   24  C16 UNK     1      19.608  -0.537  28.318  1.00  0.00     0.056 C 
HETATM   25  C14 UNK     1      19.545  -0.379  32.214  1.00  0.00     0.067 A 
ENDBRANCH  17  20
ENDBRANCH  15  16
ENDBRANCH   8  14
TORSDOF 3
ENDMDL
MODEL 9
REMARK VINA RESULT:      -7.9      7.976     10.502
REMARK  3 active torsions:
REMARK  status: ('A' for Active; 'I' for Inactive)
REMARK       I    between atoms: C15_23  and  N1_7 
REMARK    1  A    between atoms: N1_7  and  N2_8 
REMARK    2  A    between atoms: C13_21  and  C4_12 
REMARK    3  A    between atoms: C10_18  and  C15_23 
ROOT
HETATM    1 Cl1  UNK     1      16.950   1.852  37.893  1.00  0.00    -0.081 Cl
HETATM    2 Cl2  UNK     1      18.233   2.498  32.708  1.00  0.00    -0.084 Cl
HETATM    3  O1  UNK     1      18.151  -0.809  37.573  1.00  0.00    -0.319 OA
HETATM    4  O2  UNK     1      19.823  -2.401  34.205  1.00  0.00    -0.286 OA
HETATM    5  C1  UNK     1      18.752  -0.563  35.231  1.00  0.00     0.052 A 
HETATM    6  C2  UNK     1      18.194  -0.075  36.413  1.00  0.00     0.111 A 
HETATM    7  C3  UNK     1      19.322  -1.923  35.214  1.00  0.00     0.198 A 
HETATM    8  C4  UNK     1      19.248  -2.671  36.488  1.00  0.00     0.056 A 
HETATM    9  C5  UNK     1      18.766   0.230  34.079  1.00  0.00     0.042 A 
HETATM   10  C6  UNK     1      17.649   1.209  36.452  1.00  0.00     0.070 A 
HETATM   11  C7  UNK     1      18.684  -2.076  37.544  1.00  0.00     0.159 A 
HETATM   12  C8  UNK     1      18.220   1.513  34.121  1.00  0.00     0.036 A 
HETATM   13  C9  UNK     1      17.663   2.003  35.304  1.00  0.00     0.050 A 
ENDROOT
BRANCH   8  14
HETATM   14  C13 UNK     1      19.759  -4.031  36.659  1.00  0.00     0.156 C 
HETATM   15  N2  UNK     1      19.024  -5.078  36.467  1.00  0.00    -0.183 NA
BRANCH  15  16
HETATM   16  N1  UNK     1      19.671  -6.251  36.675  1.00  0.00    -0.243 N 
HETATM   17  C15 UNK     1      19.223  -7.381  36.008  1.00  0.00     0.272 C 
HETATM   18  O3  UNK     1      18.264  -7.372  35.236  1.00  0.00    -0.266 OA
HETATM   19  H10 UNK     1      20.475  -6.247  37.294  1.00  0.00     0.192 HD
BRANCH  17  20
HETATM   20  C10 UNK     1      19.990  -8.610  36.261  1.00  0.00     0.041 A 
HETATM   21  C12 UNK     1      21.153  -8.981  35.561  1.00  0.00     0.031 A 
HETATM   22  C11 UNK     1      21.646 -10.181  36.022  1.00  0.00    -0.021 A 
HETATM   23  S1  UNK     1      20.690 -10.824  37.289  1.00  0.00    -0.106 SA
HETATM   24  C16 UNK     1      22.840 -10.923  35.564  1.00  0.00     0.056 C 
HETATM   25  C14 UNK     1      19.612  -9.496  37.222  1.00  0.00     0.067 A 
ENDBRANCH  17  20
ENDBRANCH  15  16
ENDBRANCH   8  14
TORSDOF 3
ENDMDL
MODEL 10
REMARK VINA RESULT:      -7.9     16.981     21.243
REMARK  3 active torsions:
REMARK  status: ('A' for Active; 'I' for Inactive)
REMARK       I    between atoms: C15_23  and  N1_7 
REMARK    1  A    between atoms: N1_7  and  N2_8 
REMARK    2  A    between atoms: C13_21  and  C4_12 
REMARK    3  A    between atoms: C10_18  and  C15_23 
ROOT
HETATM    1 Cl1  UNK     1      17.460  -6.761  10.543  1.00  0.00    -0.081 Cl
HETATM    2 Cl2  UNK     1      21.589  -9.723  12.312  1.00  0.00    -0.084 Cl
HETATM    3  O1  UNK     1      18.365  -4.807  12.539  1.00  0.00    -0.319 OA
HETATM    4  O2  UNK     1      21.534  -5.137  15.093  1.00  0.00    -0.286 OA
HETATM    5  C1  UNK     1      20.244  -6.108  13.369  1.00  0.00     0.052 A 
HETATM    6  C2  UNK     1      19.147  -5.936  12.522  1.00  0.00     0.111 A 
HETATM    7  C3  UNK     1      20.584  -5.039  14.328  1.00  0.00     0.198 A 
HETATM    8  C4  UNK     1      19.709  -3.847  14.306  1.00  0.00     0.056 A 
HETATM    9  C5  UNK     1      21.003  -7.279  13.309  1.00  0.00     0.042 A 
HETATM   10  C6  UNK     1      18.806  -6.933  11.609  1.00  0.00     0.070 A 
HETATM   11  C7  UNK     1      18.693  -3.819  13.438  1.00  0.00     0.159 A 
HETATM   12  C8  UNK     1      20.659  -8.276  12.395  1.00  0.00     0.036 A 
HETATM   13  C9  UNK     1      19.564  -8.104  11.546  1.00  0.00     0.050 A 
ENDROOT
BRANCH   8  14
HETATM   14  C13 UNK     1      19.894  -2.692  15.184  1.00  0.00     0.156 C 
HETATM   15  N2  UNK     1      19.386  -2.635  16.372  1.00  0.00    -0.183 NA
BRANCH  15  16
HETATM   16  N1  UNK     1      19.663  -1.486  17.036  1.00  0.00    -0.243 N 
HETATM   17  C15 UNK     1      18.608  -0.752  17.557  1.00  0.00     0.272 C 
HETATM   18  O3  UNK     1      17.431  -1.093  17.446  1.00  0.00    -0.266 OA
HETATM   19  H10 UNK     1      20.637  -1.223  17.144  1.00  0.00     0.192 HD
BRANCH  17  20
HETATM   20  C10 UNK     1      18.987   0.467  18.286  1.00  0.00     0.041 A 
HETATM   21  C12 UNK     1      19.285   1.700  17.677  1.00  0.00     0.031 A 
HETATM   22  C11 UNK     1      19.605   2.653  18.618  1.00  0.00    -0.021 A 
HETATM   23  S1  UNK     1      19.534   2.031  20.211  1.00  0.00    -0.106 SA
HETATM   24  C16 UNK     1      19.978   4.068  18.405  1.00  0.00     0.056 C 
HETATM   25  C14 UNK     1      19.076   0.482  19.645  1.00  0.00     0.067 A 
ENDBRANCH  17  20
ENDBRANCH  15  16
ENDBRANCH   8  14
TORSDOF 3
ENDMDL
