MODEL 1
REMARK VINA RESULT:      -7.6      0.000      0.000
REMARK  9 active torsions:
REMARK  status: ('A' for Active; 'I' for Inactive)
REMARK    1  A    between atoms: C3_7  and  O1_1 
REMARK    2  A    between atoms: C5_9  and  O1_1 
REMARK    3  A    between atoms: C4_8  and  O2_2 
REMARK    4  A    between atoms: C7_11  and  O2_2 
REMARK    5  A    between atoms: C20_24  and  O3_3 
REMARK    6  A    between atoms: C6_10  and  O3_3 
REMARK    7  A    between atoms: C5_9  and  C7_11 
REMARK    8  A    between atoms: C17_21  and  C8_12 
REMARK    9  A    between atoms: C18_22  and  C19_23 
ROOT
HETATM    1  N1  UNK     1      30.235  -3.002  30.076  1.00  0.00    -0.191 NA
HETATM    2  C17 UNK     1      30.553  -5.137  32.766  1.00  0.00     0.035 C 
HETATM    3  C18 UNK     1      29.934  -5.119  31.555  1.00  0.00     0.055 C 
HETATM    4  C27 UNK     1      30.106  -3.942  30.744  1.00  0.00     0.100 C 
ENDROOT
BRANCH   3   5
HETATM    5  C19 UNK     1      29.126  -6.215  31.043  1.00  0.00    -0.015 A 
HETATM    6  C21 UNK     1      27.759  -6.262  31.320  1.00  0.00     0.013 A 
HETATM    7  C24 UNK     1      26.984  -7.314  30.830  1.00  0.00     0.001 A 
HETATM    8  C26 UNK     1      27.575  -8.317  30.062  1.00  0.00     0.000 A 
HETATM    9  C25 UNK     1      28.941  -8.270  29.785  1.00  0.00     0.001 A 
HETATM   10  C22 UNK     1      29.717  -7.219  30.275  1.00  0.00     0.013 A 
ENDBRANCH   3   5
BRANCH   2  11
HETATM   11  C8  UNK     1      30.484  -6.228  33.748  1.00  0.00    -0.032 A 
HETATM   12  C10 UNK     1      29.504  -6.214  34.739  1.00  0.00     0.051 A 
HETATM   13  C6  UNK     1      29.439  -7.250  35.671  1.00  0.00     0.102 A 
HETATM   14  C3  UNK     1      30.356  -8.300  35.611  1.00  0.00     0.102 A 
HETATM   15  C13 UNK     1      31.336  -8.314  34.620  1.00  0.00     0.040 A 
HETATM   16  C14 UNK     1      31.401  -7.278  33.688  1.00  0.00     0.014 A 
BRANCH  13  17
HETATM   17  O3  UNK     1      28.476  -7.226  36.635  1.00  0.00    -0.349 OA
BRANCH  17  18
HETATM   18  C20 UNK     1      28.644  -6.288  37.696  1.00  0.00     0.171 C 
HETATM   19  C23 UNK     1      28.221  -6.934  38.997  1.00  0.00     0.034 C 
ENDBRANCH  17  18
ENDBRANCH  13  17
BRANCH  14  20
HETATM   20  O1  UNK     1      30.301  -9.318  36.515  1.00  0.00    -0.346 OA
BRANCH  20  21
HETATM   21  C5  UNK     1      31.465  -9.544  37.308  1.00  0.00     0.202 C 
BRANCH  21  22
HETATM   22  C7  UNK     1      31.573  -8.449  38.351  1.00  0.00     0.202 C 
BRANCH  22  23
HETATM   23  O2  UNK     1      32.907  -7.955  38.369  1.00  0.00    -0.349 OA
BRANCH  23  24
HETATM   24  C4  UNK     1      33.212  -6.967  37.469  1.00  0.00     0.069 A 
HETATM   25  C12 UNK     1      34.289  -7.128  36.597  1.00  0.00     0.037 A 
HETATM   26  C11 UNK     1      34.598  -6.124  35.680  1.00  0.00     0.010 A 
HETATM   27  C2  UNK     1      33.831  -4.961  35.634  1.00  0.00    -0.056 A 
HETATM   28  C1  UNK     1      32.754  -4.800  36.506  1.00  0.00    -0.053 A 
HETATM   29  C16 UNK     1      34.181  -3.899  34.643  1.00  0.00     0.049 C 
HETATM   30  C9  UNK     1      32.445  -5.804  37.424  1.00  0.00     0.044 A 
HETATM   31  C15 UNK     1      31.918  -3.563  36.475  1.00  0.00     0.049 C 
ENDBRANCH  23  24
ENDBRANCH  22  23
ENDBRANCH  21  22
ENDBRANCH  20  21
ENDBRANCH  14  20
ENDBRANCH   2  11
TORSDOF 9
ENDMDL
MODEL 2
REMARK VINA RESULT:      -7.4      0.975      2.351
REMARK  9 active torsions:
REMARK  status: ('A' for Active; 'I' for Inactive)
REMARK    1  A    between atoms: C3_7  and  O1_1 
REMARK    2  A    between atoms: C5_9  and  O1_1 
REMARK    3  A    between atoms: C4_8  and  O2_2 
REMARK    4  A    between atoms: C7_11  and  O2_2 
REMARK    5  A    between atoms: C20_24  and  O3_3 
REMARK    6  A    between atoms: C6_10  and  O3_3 
REMARK    7  A    between atoms: C5_9  and  C7_11 
REMARK    8  A    between atoms: C17_21  and  C8_12 
REMARK    9  A    between atoms: C18_22  and  C19_23 
ROOT
HETATM    1  N1  UNK     1      30.279  -3.008  30.069  1.00  0.00    -0.191 NA
HETATM    2  C17 UNK     1      30.571  -5.157  32.750  1.00  0.00     0.035 C 
HETATM    3  C18 UNK     1      29.943  -5.122  31.545  1.00  0.00     0.055 C 
HETATM    4  C27 UNK     1      30.135  -3.947  30.735  1.00  0.00     0.100 C 
ENDROOT
BRANCH   3   5
HETATM    5  C19 UNK     1      29.107  -6.198  31.037  1.00  0.00    -0.015 A 
HETATM    6  C21 UNK     1      27.739  -6.206  31.309  1.00  0.00     0.013 A 
HETATM    7  C24 UNK     1      26.936  -7.239  30.822  1.00  0.00     0.001 A 
HETATM    8  C26 UNK     1      27.502  -8.263  30.064  1.00  0.00     0.000 A 
HETATM    9  C25 UNK     1      28.871  -8.256  29.792  1.00  0.00     0.001 A 
HETATM   10  C22 UNK     1      29.673  -7.224  30.278  1.00  0.00     0.013 A 
ENDBRANCH   3   5
BRANCH   2  11
HETATM   11  C8  UNK     1      30.487  -6.249  33.731  1.00  0.00    -0.032 A 
HETATM   12  C10 UNK     1      31.366  -7.328  33.651  1.00  0.00     0.051 A 
HETATM   13  C6  UNK     1      31.285  -8.364  34.581  1.00  0.00     0.102 A 
HETATM   14  C3  UNK     1      30.324  -8.320  35.591  1.00  0.00     0.102 A 
HETATM   15  C13 UNK     1      29.444  -7.242  35.671  1.00  0.00     0.040 A 
HETATM   16  C14 UNK     1      29.525  -6.205  34.741  1.00  0.00     0.014 A 
BRANCH  13  17
HETATM   17  O3  UNK     1      32.151  -9.413  34.494  1.00  0.00    -0.349 OA
BRANCH  17  18
HETATM   18  C20 UNK     1      32.952  -9.495  33.317  1.00  0.00     0.171 C 
HETATM   19  C23 UNK     1      34.410  -9.376  33.703  1.00  0.00     0.034 C 
ENDBRANCH  17  18
ENDBRANCH  13  17
BRANCH  14  20
HETATM   20  O1  UNK     1      30.237  -9.326  36.507  1.00  0.00    -0.346 OA
BRANCH  20  21
HETATM   21  C5  UNK     1      30.322  -8.959  37.883  1.00  0.00     0.202 C 
BRANCH  21  22
HETATM   22  C7  UNK     1      31.779  -8.936  38.299  1.00  0.00     0.202 C 
BRANCH  22  23
HETATM   23  O2  UNK     1      32.128  -7.615  38.698  1.00  0.00    -0.349 OA
BRANCH  23  24
HETATM   24  C4  UNK     1      32.655  -6.798  37.733  1.00  0.00     0.069 A 
HETATM   25  C12 UNK     1      33.703  -7.252  36.932  1.00  0.00     0.037 A 
HETATM   26  C11 UNK     1      34.238  -6.420  35.948  1.00  0.00     0.010 A 
HETATM   27  C2  UNK     1      33.727  -5.136  35.766  1.00  0.00    -0.056 A 
HETATM   28  C1  UNK     1      32.679  -4.682  36.567  1.00  0.00    -0.053 A 
HETATM   29  C16 UNK     1      34.316  -4.264  34.706  1.00  0.00     0.049 C 
HETATM   30  C9  UNK     1      32.143  -5.513  37.552  1.00  0.00     0.044 A 
HETATM   31  C15 UNK     1      32.115  -3.311  36.391  1.00  0.00     0.049 C 
ENDBRANCH  23  24
ENDBRANCH  22  23
ENDBRANCH  21  22
ENDBRANCH  20  21
ENDBRANCH  14  20
ENDBRANCH   2  11
TORSDOF 9
ENDMDL
MODEL 3
REMARK VINA RESULT:      -7.3      1.955      3.235
REMARK  9 active torsions:
REMARK  status: ('A' for Active; 'I' for Inactive)
REMARK    1  A    between atoms: C3_7  and  O1_1 
REMARK    2  A    between atoms: C5_9  and  O1_1 
REMARK    3  A    between atoms: C4_8  and  O2_2 
REMARK    4  A    between atoms: C7_11  and  O2_2 
REMARK    5  A    between atoms: C20_24  and  O3_3 
REMARK    6  A    between atoms: C6_10  and  O3_3 
REMARK    7  A    between atoms: C5_9  and  C7_11 
REMARK    8  A    between atoms: C17_21  and  C8_12 
REMARK    9  A    between atoms: C18_22  and  C19_23 
ROOT
HETATM    1  N1  UNK     1      31.993  -8.827  27.847  1.00  0.00    -0.191 NA
HETATM    2  C17 UNK     1      31.843  -8.032  31.199  1.00  0.00     0.035 C 
HETATM    3  C18 UNK     1      30.999  -8.097  30.136  1.00  0.00     0.055 C 
HETATM    4  C27 UNK     1      31.559  -8.502  28.872  1.00  0.00     0.100 C 
ENDROOT
BRANCH   3   5
HETATM    5  C19 UNK     1      29.579  -7.790  30.210  1.00  0.00    -0.015 A 
HETATM    6  C21 UNK     1      29.146  -6.466  30.130  1.00  0.00     0.013 A 
HETATM    7  C24 UNK     1      27.784  -6.172  30.202  1.00  0.00     0.001 A 
HETATM    8  C26 UNK     1      26.855  -7.201  30.353  1.00  0.00     0.000 A 
HETATM    9  C25 UNK     1      27.288  -8.525  30.433  1.00  0.00     0.001 A 
HETATM   10  C22 UNK     1      28.649  -8.820  30.361  1.00  0.00     0.013 A 
ENDBRANCH   3   5
BRANCH   2  11
HETATM   11  C8  UNK     1      31.476  -7.622  32.562  1.00  0.00    -0.032 A 
HETATM   12  C10 UNK     1      31.122  -8.582  33.509  1.00  0.00     0.051 A 
HETATM   13  C6  UNK     1      30.774  -8.192  34.802  1.00  0.00     0.102 A 
HETATM   14  C3  UNK     1      30.780  -6.840  35.147  1.00  0.00     0.102 A 
HETATM   15  C13 UNK     1      31.135  -5.880  34.201  1.00  0.00     0.040 A 
HETATM   16  C14 UNK     1      31.483  -6.270  32.908  1.00  0.00     0.014 A 
BRANCH  13  17
HETATM   17  O3  UNK     1      30.430  -9.139  35.719  1.00  0.00    -0.349 OA
BRANCH  17  18
HETATM   18  C20 UNK     1      31.496  -9.812  36.386  1.00  0.00     0.171 C 
HETATM   19  C23 UNK     1      31.172  -9.907  37.861  1.00  0.00     0.034 C 
ENDBRANCH  17  18
ENDBRANCH  13  17
BRANCH  14  20
HETATM   20  O1  UNK     1      30.444  -6.447  36.408  1.00  0.00    -0.346 OA
BRANCH  20  21
HETATM   21  C5  UNK     1      31.354  -5.578  37.081  1.00  0.00     0.202 C 
BRANCH  21  22
HETATM   22  C7  UNK     1      32.376  -6.413  37.826  1.00  0.00     0.202 C 
BRANCH  22  23
HETATM   23  O2  UNK     1      33.677  -5.907  37.554  1.00  0.00    -0.349 OA
BRANCH  23  24
HETATM   24  C4  UNK     1      34.144  -6.060  36.275  1.00  0.00     0.069 A 
HETATM   25  C12 UNK     1      34.519  -4.941  35.530  1.00  0.00     0.037 A 
HETATM   26  C11 UNK     1      34.996  -5.098  34.229  1.00  0.00     0.010 A 
HETATM   27  C2  UNK     1      35.100  -6.372  33.672  1.00  0.00    -0.056 A 
HETATM   28  C1  UNK     1      34.725  -7.491  34.417  1.00  0.00    -0.053 A 
HETATM   29  C16 UNK     1      35.613  -6.514  32.277  1.00  0.00     0.049 C 
HETATM   30  C9  UNK     1      34.247  -7.335  35.718  1.00  0.00     0.044 A 
HETATM   31  C15 UNK     1      34.826  -8.865  33.842  1.00  0.00     0.049 C 
ENDBRANCH  23  24
ENDBRANCH  22  23
ENDBRANCH  21  22
ENDBRANCH  20  21
ENDBRANCH  14  20
ENDBRANCH   2  11
TORSDOF 9
ENDMDL
MODEL 4
REMARK VINA RESULT:      -7.0      2.017      3.385
REMARK  9 active torsions:
REMARK  status: ('A' for Active; 'I' for Inactive)
REMARK    1  A    between atoms: C3_7  and  O1_1 
REMARK    2  A    between atoms: C5_9  and  O1_1 
REMARK    3  A    between atoms: C4_8  and  O2_2 
REMARK    4  A    between atoms: C7_11  and  O2_2 
REMARK    5  A    between atoms: C20_24  and  O3_3 
REMARK    6  A    between atoms: C6_10  and  O3_3 
REMARK    7  A    between atoms: C5_9  and  C7_11 
REMARK    8  A    between atoms: C17_21  and  C8_12 
REMARK    9  A    between atoms: C18_22  and  C19_23 
ROOT
HETATM    1  N1  UNK     1      33.024  -8.696  30.923  1.00  0.00    -0.191 NA
HETATM    2  C17 UNK     1      31.039  -8.236  33.704  1.00  0.00     0.035 C 
HETATM    3  C18 UNK     1      30.916  -8.174  32.352  1.00  0.00     0.055 C 
HETATM    4  C27 UNK     1      32.089  -8.464  31.569  1.00  0.00     0.100 C 
ENDROOT
BRANCH   3   5
HETATM    5  C19 UNK     1      29.677  -7.841  31.666  1.00  0.00    -0.015 A 
HETATM    6  C21 UNK     1      29.452  -6.537  31.226  1.00  0.00     0.013 A 
HETATM    7  C24 UNK     1      28.263  -6.218  30.569  1.00  0.00     0.001 A 
HETATM    8  C26 UNK     1      27.300  -7.203  30.352  1.00  0.00     0.000 A 
HETATM    9  C25 UNK     1      27.525  -8.508  30.793  1.00  0.00     0.001 A 
HETATM   10  C22 UNK     1      28.713  -8.827  31.449  1.00  0.00     0.013 A 
ENDBRANCH   3   5
BRANCH   2  11
HETATM   11  C8  UNK     1      29.973  -7.954  34.677  1.00  0.00    -0.032 A 
HETATM   12  C10 UNK     1      29.598  -8.927  35.602  1.00  0.00     0.051 A 
HETATM   13  C6  UNK     1      28.586  -8.659  36.524  1.00  0.00     0.102 A 
HETATM   14  C3  UNK     1      27.950  -7.418  36.520  1.00  0.00     0.102 A 
HETATM   15  C13 UNK     1      28.324  -6.445  35.594  1.00  0.00     0.040 A 
HETATM   16  C14 UNK     1      29.336  -6.713  34.672  1.00  0.00     0.014 A 
BRANCH  13  17
HETATM   17  O3  UNK     1      28.229  -9.617  37.425  1.00  0.00    -0.349 OA
BRANCH  17  18
HETATM   18  C20 UNK     1      28.972  -9.673  38.641  1.00  0.00     0.171 C 
HETATM   19  C23 UNK     1      28.040 -10.051  39.772  1.00  0.00     0.034 C 
ENDBRANCH  17  18
ENDBRANCH  13  17
BRANCH  14  20
HETATM   20  O1  UNK     1      26.961  -7.144  37.417  1.00  0.00    -0.346 OA
BRANCH  20  21
HETATM   21  C5  UNK     1      27.133  -5.992  38.240  1.00  0.00     0.202 C 
BRANCH  21  22
HETATM   22  C7  UNK     1      28.131  -6.310  39.335  1.00  0.00     0.202 C 
BRANCH  22  23
HETATM   23  O2  UNK     1      29.096  -5.266  39.403  1.00  0.00    -0.349 OA
BRANCH  23  24
HETATM   24  C4  UNK     1      30.133  -5.325  38.510  1.00  0.00     0.069 A 
HETATM   25  C12 UNK     1      30.412  -4.229  37.693  1.00  0.00     0.037 A 
HETATM   26  C11 UNK     1      31.469  -4.288  36.785  1.00  0.00     0.010 A 
HETATM   27  C2  UNK     1      32.247  -5.441  36.694  1.00  0.00    -0.056 A 
HETATM   28  C1  UNK     1      31.968  -6.537  37.511  1.00  0.00    -0.053 A 
HETATM   29  C16 UNK     1      33.373  -5.480  35.714  1.00  0.00     0.049 C 
HETATM   30  C9  UNK     1      30.910  -6.479  38.419  1.00  0.00     0.044 A 
HETATM   31  C15 UNK     1      32.788  -7.783  37.432  1.00  0.00     0.049 C 
ENDBRANCH  23  24
ENDBRANCH  22  23
ENDBRANCH  21  22
ENDBRANCH  20  21
ENDBRANCH  14  20
ENDBRANCH   2  11
TORSDOF 9
ENDMDL
MODEL 5
REMARK VINA RESULT:      -7.0      2.969      7.282
REMARK  9 active torsions:
REMARK  status: ('A' for Active; 'I' for Inactive)
REMARK    1  A    between atoms: C3_7  and  O1_1 
REMARK    2  A    between atoms: C5_9  and  O1_1 
REMARK    3  A    between atoms: C4_8  and  O2_2 
REMARK    4  A    between atoms: C7_11  and  O2_2 
REMARK    5  A    between atoms: C20_24  and  O3_3 
REMARK    6  A    between atoms: C6_10  and  O3_3 
REMARK    7  A    between atoms: C5_9  and  C7_11 
REMARK    8  A    between atoms: C17_21  and  C8_12 
REMARK    9  A    between atoms: C18_22  and  C19_23 
ROOT
HETATM    1  N1  UNK     1      29.485  -3.738  39.965  1.00  0.00    -0.191 NA
HETATM    2  C17 UNK     1      31.033  -4.500  36.978  1.00  0.00     0.035 C 
HETATM    3  C18 UNK     1      30.513  -5.161  38.046  1.00  0.00     0.055 C 
HETATM    4  C27 UNK     1      29.947  -4.364  39.104  1.00  0.00     0.100 C 
ENDROOT
BRANCH   3   5
HETATM    5  C19 UNK     1      30.493  -6.610  38.170  1.00  0.00    -0.015 A 
HETATM    6  C21 UNK     1      29.278  -7.296  38.149  1.00  0.00     0.013 A 
HETATM    7  C24 UNK     1      29.259  -8.686  38.269  1.00  0.00     0.001 A 
HETATM    8  C26 UNK     1      30.456  -9.390  38.407  1.00  0.00     0.000 A 
HETATM    9  C25 UNK     1      31.670  -8.705  38.428  1.00  0.00     0.001 A 
HETATM   10  C22 UNK     1      31.689  -7.315  38.309  1.00  0.00     0.013 A 
ENDBRANCH   3   5
BRANCH   2  11
HETATM   11  C8  UNK     1      31.674  -5.124  35.812  1.00  0.00    -0.032 A 
HETATM   12  C10 UNK     1      33.056  -5.041  35.648  1.00  0.00     0.051 A 
HETATM   13  C6  UNK     1      33.665  -5.633  34.541  1.00  0.00     0.102 A 
HETATM   14  C3  UNK     1      32.890  -6.308  33.599  1.00  0.00     0.102 A 
HETATM   15  C13 UNK     1      31.508  -6.392  33.763  1.00  0.00     0.040 A 
HETATM   16  C14 UNK     1      30.899  -5.799  34.869  1.00  0.00     0.014 A 
BRANCH  13  17
HETATM   17  O3  UNK     1      35.016  -5.546  34.393  1.00  0.00    -0.349 OA
BRANCH  17  18
HETATM   18  C20 UNK     1      35.817  -6.338  35.267  1.00  0.00     0.171 C 
HETATM   19  C23 UNK     1      36.669  -7.276  34.440  1.00  0.00     0.034 C 
ENDBRANCH  17  18
ENDBRANCH  13  17
BRANCH  14  20
HETATM   20  O1  UNK     1      33.473  -6.893  32.515  1.00  0.00    -0.346 OA
BRANCH  20  21
HETATM   21  C5  UNK     1      33.076  -8.228  32.206  1.00  0.00     0.202 C 
BRANCH  21  22
HETATM   22  C7  UNK     1      32.687  -8.302  30.743  1.00  0.00     0.202 C 
BRANCH  22  23
HETATM   23  O2  UNK     1      32.121  -7.058  30.348  1.00  0.00    -0.349 OA
BRANCH  23  24
HETATM   24  C4  UNK     1      30.753  -6.988  30.306  1.00  0.00     0.069 A 
HETATM   25  C12 UNK     1      30.103  -5.815  30.689  1.00  0.00     0.037 A 
HETATM   26  C11 UNK     1      28.711  -5.744  30.644  1.00  0.00     0.010 A 
HETATM   27  C2  UNK     1      27.969  -6.844  30.216  1.00  0.00    -0.056 A 
HETATM   28  C1  UNK     1      28.619  -8.017  29.833  1.00  0.00    -0.053 A 
HETATM   29  C16 UNK     1      26.480  -6.744  30.176  1.00  0.00     0.049 C 
HETATM   30  C9  UNK     1      30.012  -8.089  29.878  1.00  0.00     0.044 A 
HETATM   31  C15 UNK     1      27.847  -9.209  29.371  1.00  0.00     0.049 C 
ENDBRANCH  23  24
ENDBRANCH  22  23
ENDBRANCH  21  22
ENDBRANCH  20  21
ENDBRANCH  14  20
ENDBRANCH   2  11
TORSDOF 9
ENDMDL
MODEL 6
REMARK VINA RESULT:      -6.9      2.185      3.270
REMARK  9 active torsions:
REMARK  status: ('A' for Active; 'I' for Inactive)
REMARK    1  A    between atoms: C3_7  and  O1_1 
REMARK    2  A    between atoms: C5_9  and  O1_1 
REMARK    3  A    between atoms: C4_8  and  O2_2 
REMARK    4  A    between atoms: C7_11  and  O2_2 
REMARK    5  A    between atoms: C20_24  and  O3_3 
REMARK    6  A    between atoms: C6_10  and  O3_3 
REMARK    7  A    between atoms: C5_9  and  C7_11 
REMARK    8  A    between atoms: C17_21  and  C8_12 
REMARK    9  A    between atoms: C18_22  and  C19_23 
ROOT
HETATM    1  N1  UNK     1      35.530  -6.766  29.430  1.00  0.00    -0.191 NA
HETATM    2  C17 UNK     1      33.783  -7.181  32.373  1.00  0.00     0.035 C 
HETATM    3  C18 UNK     1      33.568  -7.331  31.039  1.00  0.00     0.055 C 
HETATM    4  C27 UNK     1      34.660  -7.015  30.156  1.00  0.00     0.100 C 
ENDROOT
BRANCH   3   5
HETATM    5  C19 UNK     1      32.313  -7.794  30.468  1.00  0.00    -0.015 A 
HETATM    6  C21 UNK     1      31.982  -9.149  30.516  1.00  0.00     0.013 A 
HETATM    7  C24 UNK     1      30.779  -9.593  29.967  1.00  0.00     0.001 A 
HETATM    8  C26 UNK     1      29.906  -8.683  29.371  1.00  0.00     0.000 A 
HETATM    9  C25 UNK     1      30.237  -7.328  29.323  1.00  0.00     0.001 A 
HETATM   10  C22 UNK     1      31.440  -6.884  29.871  1.00  0.00     0.013 A 
ENDBRANCH   3   5
BRANCH   2  11
HETATM   11  C8  UNK     1      32.795  -7.428  33.434  1.00  0.00    -0.032 A 
HETATM   12  C10 UNK     1      31.637  -6.654  33.502  1.00  0.00     0.051 A 
HETATM   13  C6  UNK     1      30.700  -6.888  34.508  1.00  0.00     0.102 A 
HETATM   14  C3  UNK     1      30.922  -7.896  35.447  1.00  0.00     0.102 A 
HETATM   15  C13 UNK     1      32.079  -8.670  35.379  1.00  0.00     0.040 A 
HETATM   16  C14 UNK     1      33.017  -8.436  34.372  1.00  0.00     0.014 A 
BRANCH  13  17
HETATM   17  O3  UNK     1      29.571  -6.126  34.564  1.00  0.00    -0.349 OA
BRANCH  17  18
HETATM   18  C20 UNK     1      28.431  -6.604  33.854  1.00  0.00     0.171 C 
HETATM   19  C23 UNK     1      28.277  -5.809  32.575  1.00  0.00     0.034 C 
ENDBRANCH  17  18
ENDBRANCH  13  17
BRANCH  14  20
HETATM   20  O1  UNK     1      30.012  -8.135  36.433  1.00  0.00    -0.346 OA
BRANCH  20  21
HETATM   21  C5  UNK     1      30.479  -8.052  37.778  1.00  0.00     0.202 C 
BRANCH  21  22
HETATM   22  C7  UNK     1      30.250  -6.646  38.295  1.00  0.00     0.202 C 
BRANCH  22  23
HETATM   23  O2  UNK     1      31.502  -6.072  38.654  1.00  0.00    -0.349 OA
BRANCH  23  24
HETATM   24  C4  UNK     1      32.236  -5.512  37.642  1.00  0.00     0.069 A 
HETATM   25  C12 UNK     1      31.731  -4.420  36.936  1.00  0.00     0.037 A 
HETATM   26  C11 UNK     1      32.480  -3.849  35.907  1.00  0.00     0.010 A 
HETATM   27  C2  UNK     1      33.732  -4.369  35.584  1.00  0.00    -0.056 A 
HETATM   28  C1  UNK     1      34.237  -5.462  36.289  1.00  0.00    -0.053 A 
HETATM   29  C16 UNK     1      34.515  -3.741  34.478  1.00  0.00     0.049 C 
HETATM   30  C9  UNK     1      33.488  -6.034  37.318  1.00  0.00     0.044 A 
HETATM   31  C15 UNK     1      35.575  -6.037  35.960  1.00  0.00     0.049 C 
ENDBRANCH  23  24
ENDBRANCH  22  23
ENDBRANCH  21  22
ENDBRANCH  20  21
ENDBRANCH  14  20
ENDBRANCH   2  11
TORSDOF 9
ENDMDL
MODEL 7
REMARK VINA RESULT:      -6.9      1.811      2.888
REMARK  9 active torsions:
REMARK  status: ('A' for Active; 'I' for Inactive)
REMARK    1  A    between atoms: C3_7  and  O1_1 
REMARK    2  A    between atoms: C5_9  and  O1_1 
REMARK    3  A    between atoms: C4_8  and  O2_2 
REMARK    4  A    between atoms: C7_11  and  O2_2 
REMARK    5  A    between atoms: C20_24  and  O3_3 
REMARK    6  A    between atoms: C6_10  and  O3_3 
REMARK    7  A    between atoms: C5_9  and  C7_11 
REMARK    8  A    between atoms: C17_21  and  C8_12 
REMARK    9  A    between atoms: C18_22  and  C19_23 
ROOT
HETATM    1  N1  UNK     1      32.697  -9.133  28.767  1.00  0.00    -0.191 NA
HETATM    2  C17 UNK     1      31.939  -8.097  31.968  1.00  0.00     0.035 C 
HETATM    3  C18 UNK     1      31.300  -8.260  30.779  1.00  0.00     0.055 C 
HETATM    4  C27 UNK     1      32.082  -8.744  29.671  1.00  0.00     0.100 C 
ENDROOT
BRANCH   3   5
HETATM    5  C19 UNK     1      29.887  -7.983  30.574  1.00  0.00    -0.015 A 
HETATM    6  C21 UNK     1      28.953  -9.014  30.669  1.00  0.00     0.013 A 
HETATM    7  C24 UNK     1      27.597  -8.748  30.471  1.00  0.00     0.001 A 
HETATM    8  C26 UNK     1      27.176  -7.451  30.180  1.00  0.00     0.000 A 
HETATM    9  C25 UNK     1      28.111  -6.419  30.086  1.00  0.00     0.001 A 
HETATM   10  C22 UNK     1      29.465  -6.685  30.283  1.00  0.00     0.013 A 
ENDBRANCH   3   5
BRANCH   2  11
HETATM   11  C8  UNK     1      31.328  -7.595  33.208  1.00  0.00    -0.032 A 
HETATM   12  C10 UNK     1      30.909  -8.491  34.191  1.00  0.00     0.051 A 
HETATM   13  C6  UNK     1      30.330  -8.014  35.367  1.00  0.00     0.102 A 
HETATM   14  C3  UNK     1      30.170  -6.642  35.559  1.00  0.00     0.102 A 
HETATM   15  C13 UNK     1      30.589  -5.747  34.576  1.00  0.00     0.040 A 
HETATM   16  C14 UNK     1      31.169  -6.223  33.400  1.00  0.00     0.014 A 
BRANCH  13  17
HETATM   17  O3  UNK     1      29.924  -8.899  36.321  1.00  0.00    -0.349 OA
BRANCH  17  18
HETATM   18  C20 UNK     1      30.886  -9.851  36.772  1.00  0.00     0.171 C 
HETATM   19  C23 UNK     1      31.105  -9.663  38.258  1.00  0.00     0.034 C 
ENDBRANCH  17  18
ENDBRANCH  13  17
BRANCH  14  20
HETATM   20  O1  UNK     1      29.607  -6.165  36.705  1.00  0.00    -0.346 OA
BRANCH  20  21
HETATM   21  C5  UNK     1      30.402  -5.289  37.501  1.00  0.00     0.202 C 
BRANCH  21  22
HETATM   22  C7  UNK     1      31.253  -6.114  38.446  1.00  0.00     0.202 C 
BRANCH  22  23
HETATM   23  O2  UNK     1      32.602  -5.670  38.366  1.00  0.00    -0.349 OA
BRANCH  23  24
HETATM   24  C4  UNK     1      33.255  -5.891  37.181  1.00  0.00     0.069 A 
HETATM   25  C12 UNK     1      33.564  -7.194  36.789  1.00  0.00     0.037 A 
HETATM   26  C11 UNK     1      34.227  -7.419  35.583  1.00  0.00     0.010 A 
HETATM   27  C2  UNK     1      34.579  -6.344  34.769  1.00  0.00    -0.056 A 
HETATM   28  C1  UNK     1      34.270  -5.041  35.161  1.00  0.00    -0.053 A 
HETATM   29  C16 UNK     1      35.289  -6.611  33.482  1.00  0.00     0.049 C 
HETATM   30  C9  UNK     1      33.608  -4.815  36.368  1.00  0.00     0.044 A 
HETATM   31  C15 UNK     1      34.638  -3.874  34.306  1.00  0.00     0.049 C 
ENDBRANCH  23  24
ENDBRANCH  22  23
ENDBRANCH  21  22
ENDBRANCH  20  21
ENDBRANCH  14  20
ENDBRANCH   2  11
TORSDOF 9
ENDMDL
MODEL 8
REMARK VINA RESULT:      -6.9      2.820      6.549
REMARK  9 active torsions:
REMARK  status: ('A' for Active; 'I' for Inactive)
REMARK    1  A    between atoms: C3_7  and  O1_1 
REMARK    2  A    between atoms: C5_9  and  O1_1 
REMARK    3  A    between atoms: C4_8  and  O2_2 
REMARK    4  A    between atoms: C7_11  and  O2_2 
REMARK    5  A    between atoms: C20_24  and  O3_3 
REMARK    6  A    between atoms: C6_10  and  O3_3 
REMARK    7  A    between atoms: C5_9  and  C7_11 
REMARK    8  A    between atoms: C17_21  and  C8_12 
REMARK    9  A    between atoms: C18_22  and  C19_23 
ROOT
HETATM    1  N1  UNK     1      35.284  -5.414  36.240  1.00  0.00    -0.191 NA
HETATM    2  C17 UNK     1      32.477  -5.925  34.304  1.00  0.00     0.035 C 
HETATM    3  C18 UNK     1      32.774  -5.607  35.592  1.00  0.00     0.055 C 
HETATM    4  C27 UNK     1      34.167  -5.503  35.941  1.00  0.00     0.100 C 
ENDROOT
BRANCH   3   5
HETATM    5  C19 UNK     1      31.771  -5.364  36.617  1.00  0.00    -0.015 A 
HETATM    6  C21 UNK     1      31.228  -4.089  36.773  1.00  0.00     0.013 A 
HETATM    7  C24 UNK     1      30.267  -3.855  37.757  1.00  0.00     0.001 A 
HETATM    8  C26 UNK     1      29.849  -4.897  38.585  1.00  0.00     0.000 A 
HETATM    9  C25 UNK     1      30.393  -6.172  38.430  1.00  0.00     0.001 A 
HETATM   10  C22 UNK     1      31.353  -6.406  37.446  1.00  0.00     0.013 A 
ENDBRANCH   3   5
BRANCH   2  11
HETATM   11  C8  UNK     1      31.125  -6.101  33.753  1.00  0.00    -0.032 A 
HETATM   12  C10 UNK     1      30.333  -7.168  34.176  1.00  0.00     0.051 A 
HETATM   13  C6  UNK     1      29.051  -7.335  33.654  1.00  0.00     0.102 A 
HETATM   14  C3  UNK     1      28.561  -6.434  32.709  1.00  0.00     0.102 A 
HETATM   15  C13 UNK     1      29.352  -5.367  32.286  1.00  0.00     0.040 A 
HETATM   16  C14 UNK     1      30.635  -5.200  32.808  1.00  0.00     0.014 A 
BRANCH  13  17
HETATM   17  O3  UNK     1      28.286  -8.381  34.076  1.00  0.00    -0.349 OA
BRANCH  17  18
HETATM   18  C20 UNK     1      28.972  -9.517  34.597  1.00  0.00     0.171 C 
HETATM   19  C23 UNK     1      28.993 -10.606  33.546  1.00  0.00     0.034 C 
ENDBRANCH  17  18
ENDBRANCH  13  17
BRANCH  14  20
HETATM   20  O1  UNK     1      27.308  -6.586  32.193  1.00  0.00    -0.346 OA
BRANCH  20  21
HETATM   21  C5  UNK     1      27.208  -6.799  30.786  1.00  0.00     0.202 C 
BRANCH  21  22
HETATM   22  C7  UNK     1      27.568  -8.238  30.477  1.00  0.00     0.202 C 
BRANCH  22  23
HETATM   23  O2  UNK     1      28.539  -8.262  29.437  1.00  0.00    -0.349 OA
BRANCH  23  24
HETATM   24  C4  UNK     1      29.844  -8.067  29.807  1.00  0.00     0.069 A 
HETATM   25  C12 UNK     1      30.579  -7.021  29.247  1.00  0.00     0.037 A 
HETATM   26  C11 UNK     1      31.906  -6.822  29.625  1.00  0.00     0.010 A 
HETATM   27  C2  UNK     1      32.499  -7.666  30.562  1.00  0.00    -0.056 A 
HETATM   28  C1  UNK     1      31.765  -8.712  31.122  1.00  0.00    -0.053 A 
HETATM   29  C16 UNK     1      33.922  -7.433  30.951  1.00  0.00     0.049 C 
HETATM   30  C9  UNK     1      30.437  -8.913  30.743  1.00  0.00     0.044 A 
HETATM   31  C15 UNK     1      32.379  -9.630  32.127  1.00  0.00     0.049 C 
ENDBRANCH  23  24
ENDBRANCH  22  23
ENDBRANCH  21  22
ENDBRANCH  20  21
ENDBRANCH  14  20
ENDBRANCH   2  11
TORSDOF 9
ENDMDL
MODEL 9
REMARK VINA RESULT:      -6.8      2.017      3.619
REMARK  9 active torsions:
REMARK  status: ('A' for Active; 'I' for Inactive)
REMARK    1  A    between atoms: C3_7  and  O1_1 
REMARK    2  A    between atoms: C5_9  and  O1_1 
REMARK    3  A    between atoms: C4_8  and  O2_2 
REMARK    4  A    between atoms: C7_11  and  O2_2 
REMARK    5  A    between atoms: C20_24  and  O3_3 
REMARK    6  A    between atoms: C6_10  and  O3_3 
REMARK    7  A    between atoms: C5_9  and  C7_11 
REMARK    8  A    between atoms: C17_21  and  C8_12 
REMARK    9  A    between atoms: C18_22  and  C19_23 
ROOT
HETATM    1  N1  UNK     1      25.332  -6.143  29.702  1.00  0.00    -0.191 NA
HETATM    2  C17 UNK     1      27.640  -7.112  32.073  1.00  0.00     0.035 C 
HETATM    3  C18 UNK     1      27.443  -7.253  30.736  1.00  0.00     0.055 C 
HETATM    4  C27 UNK     1      26.271  -6.635  30.173  1.00  0.00     0.100 C 
ENDROOT
BRANCH   3   5
HETATM    5  C19 UNK     1      28.346  -7.980  29.857  1.00  0.00    -0.015 A 
HETATM    6  C21 UNK     1      29.584  -7.431  29.521  1.00  0.00     0.013 A 
HETATM    7  C24 UNK     1      30.450  -8.127  28.677  1.00  0.00     0.001 A 
HETATM    8  C26 UNK     1      30.078  -9.373  28.170  1.00  0.00     0.000 A 
HETATM    9  C25 UNK     1      28.840  -9.921  28.505  1.00  0.00     0.001 A 
HETATM   10  C22 UNK     1      27.974  -9.225  29.349  1.00  0.00     0.013 A 
ENDBRANCH   3   5
BRANCH   2  11
HETATM   11  C8  UNK     1      28.756  -7.683  32.841  1.00  0.00    -0.032 A 
HETATM   12  C10 UNK     1      29.701  -6.842  33.428  1.00  0.00     0.051 A 
HETATM   13  C6  UNK     1      30.760  -7.384  34.156  1.00  0.00     0.102 A 
HETATM   14  C3  UNK     1      30.874  -8.767  34.297  1.00  0.00     0.102 A 
HETATM   15  C13 UNK     1      29.930  -9.608  33.709  1.00  0.00     0.040 A 
HETATM   16  C14 UNK     1      28.870  -9.066  32.981  1.00  0.00     0.014 A 
BRANCH  13  17
HETATM   17  O3  UNK     1      31.677  -6.552  34.726  1.00  0.00    -0.349 OA
BRANCH  17  18
HETATM   18  C20 UNK     1      31.768  -5.230  34.199  1.00  0.00     0.171 C 
HETATM   19  C23 UNK     1      32.817  -4.462  34.975  1.00  0.00     0.034 C 
ENDBRANCH  17  18
ENDBRANCH  13  17
BRANCH  14  20
HETATM   20  O1  UNK     1      31.903  -9.307  35.007  1.00  0.00    -0.346 OA
BRANCH  20  21
HETATM   21  C5  UNK     1      31.599 -10.422  35.843  1.00  0.00     0.202 C 
BRANCH  21  22
HETATM   22  C7  UNK     1      31.188  -9.917  37.212  1.00  0.00     0.202 C 
BRANCH  22  23
HETATM   23  O2  UNK     1      32.058  -8.858  37.596  1.00  0.00    -0.349 OA
BRANCH  23  24
HETATM   24  C4  UNK     1      31.466  -7.682  37.979  1.00  0.00     0.069 A 
HETATM   25  C12 UNK     1      32.232  -6.522  38.092  1.00  0.00     0.037 A 
HETATM   26  C11 UNK     1      31.631  -5.325  38.480  1.00  0.00     0.010 A 
HETATM   27  C2  UNK     1      30.264  -5.288  38.755  1.00  0.00    -0.056 A 
HETATM   28  C1  UNK     1      29.498  -6.449  38.642  1.00  0.00    -0.053 A 
HETATM   29  C16 UNK     1      29.642  -3.995  39.169  1.00  0.00     0.049 C 
HETATM   30  C9  UNK     1      30.100  -7.646  38.255  1.00  0.00     0.044 A 
HETATM   31  C15 UNK     1      28.033  -6.434  38.932  1.00  0.00     0.049 C 
ENDBRANCH  23  24
ENDBRANCH  22  23
ENDBRANCH  21  22
ENDBRANCH  20  21
ENDBRANCH  14  20
ENDBRANCH   2  11
TORSDOF 9
ENDMDL
MODEL 10
REMARK VINA RESULT:      -6.8      3.014      7.090
REMARK  9 active torsions:
REMARK  status: ('A' for Active; 'I' for Inactive)
REMARK    1  A    between atoms: C3_7  and  O1_1 
REMARK    2  A    between atoms: C5_9  and  O1_1 
REMARK    3  A    between atoms: C4_8  and  O2_2 
REMARK    4  A    between atoms: C7_11  and  O2_2 
REMARK    5  A    between atoms: C20_24  and  O3_3 
REMARK    6  A    between atoms: C6_10  and  O3_3 
REMARK    7  A    between atoms: C5_9  and  C7_11 
REMARK    8  A    between atoms: C17_21  and  C8_12 
REMARK    9  A    between atoms: C18_22  and  C19_23 
ROOT
HETATM    1  N1  UNK     1      29.574  -3.961  39.638  1.00  0.00    -0.191 NA
HETATM    2  C17 UNK     1      30.948  -5.059  36.672  1.00  0.00     0.035 C 
HETATM    3  C18 UNK     1      30.448  -5.597  37.816  1.00  0.00     0.055 C 
HETATM    4  C27 UNK     1      29.967  -4.683  38.819  1.00  0.00     0.100 C 
ENDROOT
BRANCH   3   5
HETATM    5  C19 UNK     1      30.368  -7.027  38.071  1.00  0.00    -0.015 A 
HETATM    6  C21 UNK     1      31.536  -7.772  38.233  1.00  0.00     0.013 A 
HETATM    7  C24 UNK     1      31.459  -9.144  38.477  1.00  0.00     0.001 A 
HETATM    8  C26 UNK     1      30.215  -9.770  38.559  1.00  0.00     0.000 A 
HETATM    9  C25 UNK     1      29.048  -9.024  38.397  1.00  0.00     0.001 A 
HETATM   10  C22 UNK     1      29.124  -7.653  38.153  1.00  0.00     0.013 A 
ENDBRANCH   3   5
BRANCH   2  11
HETATM   11  C8  UNK     1      31.507  -5.815  35.542  1.00  0.00    -0.032 A 
HETATM   12  C10 UNK     1      30.668  -6.575  34.728  1.00  0.00     0.051 A 
HETATM   13  C6  UNK     1      31.198  -7.292  33.655  1.00  0.00     0.102 A 
HETATM   14  C3  UNK     1      32.568  -7.249  33.398  1.00  0.00     0.102 A 
HETATM   15  C13 UNK     1      33.408  -6.490  34.212  1.00  0.00     0.040 A 
HETATM   16  C14 UNK     1      32.877  -5.772  35.284  1.00  0.00     0.014 A 
BRANCH  13  17
HETATM   17  O3  UNK     1      30.368  -8.030  32.866  1.00  0.00    -0.349 OA
BRANCH  17  18
HETATM   18  C20 UNK     1      29.101  -8.389  33.415  1.00  0.00     0.171 C 
HETATM   19  C23 UNK     1      28.881  -9.873  33.216  1.00  0.00     0.034 C 
ENDBRANCH  17  18
ENDBRANCH  13  17
BRANCH  14  20
HETATM   20  O1  UNK     1      33.098  -7.944  32.352  1.00  0.00    -0.346 OA
BRANCH  20  21
HETATM   21  C5  UNK     1      33.566  -7.184  31.240  1.00  0.00     0.202 C 
BRANCH  21  22
HETATM   22  C7  UNK     1      32.931  -7.720  29.972  1.00  0.00     0.202 C 
BRANCH  22  23
HETATM   23  O2  UNK     1      32.111  -6.708  29.399  1.00  0.00    -0.349 OA
BRANCH  23  24
HETATM   24  C4  UNK     1      30.776  -6.748  29.705  1.00  0.00     0.069 A 
HETATM   25  C12 UNK     1      30.174  -5.661  30.339  1.00  0.00     0.037 A 
HETATM   26  C11 UNK     1      28.815  -5.701  30.648  1.00  0.00     0.010 A 
HETATM   27  C2  UNK     1      28.058  -6.826  30.325  1.00  0.00    -0.056 A 
HETATM   28  C1  UNK     1      28.660  -7.913  29.691  1.00  0.00    -0.053 A 
HETATM   29  C16 UNK     1      26.604  -6.845  30.667  1.00  0.00     0.049 C 
HETATM   30  C9  UNK     1      30.020  -7.874  29.381  1.00  0.00     0.044 A 
HETATM   31  C15 UNK     1      27.870  -9.129  29.335  1.00  0.00     0.049 C 
ENDBRANCH  23  24
ENDBRANCH  22  23
ENDBRANCH  21  22
ENDBRANCH  20  21
ENDBRANCH  14  20
ENDBRANCH   2  11
TORSDOF 9
ENDMDL
