MODEL 1
REMARK VINA RESULT:      -7.2      0.000      0.000
REMARK  2 active torsions:
REMARK  status: ('A' for Active; 'I' for Inactive)
REMARK    1  A    between atoms: C8_12  and  O2_2 
REMARK    2  A    between atoms: C10_14  and  C4_8 
ROOT
HETATM    1  O1  UNK     1      19.330   0.997  15.249  1.00  0.00    -0.274 OA
HETATM    2  O3  UNK     1      19.209  -0.603  13.622  1.00  0.00    -0.259 OA
HETATM    3  C1  UNK     1      18.984   0.371  17.573  1.00  0.00    -0.001 A 
HETATM    4  C2  UNK     1      19.253   1.341  16.614  1.00  0.00     0.092 A 
HETATM    5  C3  UNK     1      18.783  -1.005  17.147  1.00  0.00     0.035 A 
HETATM    6  C4  UNK     1      18.857  -1.326  15.851  1.00  0.00     0.086 A 
HETATM    7  C5  UNK     1      18.915   0.754  18.916  1.00  0.00     0.017 A 
HETATM    8  C6  UNK     1      19.456   2.677  16.956  1.00  0.00     0.074 A 
HETATM    9  C7  UNK     1      19.143  -0.311  14.811  1.00  0.00     0.302 A 
HETATM   10  C8  UNK     1      19.386   3.048  18.297  1.00  0.00     0.068 A 
HETATM   11  C9  UNK     1      19.116   2.089  19.275  1.00  0.00     0.037 A 
ENDROOT
BRANCH   6  12
HETATM   12  C10 UNK     1      18.638  -2.739  15.520  1.00  0.00     0.161 C 
HETATM   13  O4  UNK     1      17.506  -3.158  15.277  1.00  0.00    -0.293 OA
HETATM   14  C11 UNK     1      19.839  -3.649  15.478  1.00  0.00     0.097 C 
ENDBRANCH   6  12
BRANCH  10  15
HETATM   15  O2  UNK     1      19.582   4.347  18.654  1.00  0.00    -0.361 OA
HETATM   16  H8  UNK     1      19.774   4.869  17.855  1.00  0.00     0.217 HD
ENDBRANCH  10  15
TORSDOF 2
ENDMDL
MODEL 2
REMARK VINA RESULT:      -7.2     13.259     15.545
REMARK  2 active torsions:
REMARK  status: ('A' for Active; 'I' for Inactive)
REMARK    1  A    between atoms: C8_12  and  O2_2 
REMARK    2  A    between atoms: C10_14  and  C4_8 
ROOT
HETATM    1  O1  UNK     1      18.803   0.681  32.622  1.00  0.00    -0.274 OA
HETATM    2  O3  UNK     1      17.943   2.468  33.757  1.00  0.00    -0.259 OA
HETATM    3  C1  UNK     1      19.428   0.934  30.286  1.00  0.00    -0.001 A 
HETATM    4  C2  UNK     1      19.317   0.144  31.426  1.00  0.00     0.092 A 
HETATM    5  C3  UNK     1      19.006   2.324  30.349  1.00  0.00     0.035 A 
HETATM    6  C4  UNK     1      18.518   2.829  31.488  1.00  0.00     0.086 A 
HETATM    7  C5  UNK     1      19.942   0.363  29.119  1.00  0.00     0.017 A 
HETATM    8  C6  UNK     1      19.704  -1.195  31.432  1.00  0.00     0.074 A 
HETATM    9  C7  UNK     1      18.391   2.008  32.713  1.00  0.00     0.302 A 
HETATM   10  C8  UNK     1      20.216  -1.755  30.264  1.00  0.00     0.068 A 
HETATM   11  C9  UNK     1      20.335  -0.979  29.109  1.00  0.00     0.037 A 
ENDROOT
BRANCH   6  12
HETATM   12  C10 UNK     1      18.117   4.241  31.451  1.00  0.00     0.161 C 
HETATM   13  O4  UNK     1      17.137   4.630  32.086  1.00  0.00    -0.293 OA
HETATM   14  C11 UNK     1      18.948   5.189  30.625  1.00  0.00     0.097 C 
ENDBRANCH   6  12
BRANCH  10  15
HETATM   15  O2  UNK     1      20.602  -3.061  30.247  1.00  0.00    -0.361 OA
HETATM   16  H8  UNK     1      21.402  -3.160  30.792  1.00  0.00     0.217 HD
ENDBRANCH  10  15
TORSDOF 2
ENDMDL
MODEL 3
REMARK VINA RESULT:      -6.9     15.441     17.879
REMARK  2 active torsions:
REMARK  status: ('A' for Active; 'I' for Inactive)
REMARK    1  A    between atoms: C8_12  and  O2_2 
REMARK    2  A    between atoms: C10_14  and  C4_8 
ROOT
HETATM    1  O1  UNK     1      18.884   7.034  34.006  1.00  0.00    -0.274 OA
HETATM    2  O3  UNK     1      17.138   7.676  35.333  1.00  0.00    -0.259 OA
HETATM    3  C1  UNK     1      18.478   6.486  31.673  1.00  0.00    -0.001 A 
HETATM    4  C2  UNK     1      19.355   6.621  32.744  1.00  0.00     0.092 A 
HETATM    5  C3  UNK     1      17.068   6.776  31.876  1.00  0.00     0.035 A 
HETATM    6  C4  UNK     1      16.626   7.168  33.077  1.00  0.00     0.086 A 
HETATM    7  C5  UNK     1      18.984   6.073  30.437  1.00  0.00     0.017 A 
HETATM    8  C6  UNK     1      20.717   6.359  32.616  1.00  0.00     0.074 A 
HETATM    9  C7  UNK     1      17.541   7.320  34.231  1.00  0.00     0.302 A 
HETATM   10  C8  UNK     1      21.212   5.949  31.380  1.00  0.00     0.068 A 
HETATM   11  C9  UNK     1      20.348   5.806  30.292  1.00  0.00     0.037 A 
ENDROOT
BRANCH   6  12
HETATM   12  C10 UNK     1      15.187   7.436  33.183  1.00  0.00     0.161 C 
HETATM   13  O4  UNK     1      14.715   7.921  34.212  1.00  0.00    -0.293 OA
HETATM   14  C11 UNK     1      14.319   7.111  31.995  1.00  0.00     0.097 C 
ENDBRANCH   6  12
BRANCH  10  15
HETATM   15  O2  UNK     1      22.540   5.688  31.231  1.00  0.00    -0.361 OA
HETATM   16  H8  UNK     1      22.808   5.028  31.895  1.00  0.00     0.217 HD
ENDBRANCH  10  15
TORSDOF 2
ENDMDL
MODEL 4
REMARK VINA RESULT:      -6.8     13.189     15.863
REMARK  2 active torsions:
REMARK  status: ('A' for Active; 'I' for Inactive)
REMARK    1  A    between atoms: C8_12  and  O2_2 
REMARK    2  A    between atoms: C10_14  and  C4_8 
ROOT
HETATM    1  O1  UNK     1      18.107   3.163  33.166  1.00  0.00    -0.274 OA
HETATM    2  O3  UNK     1      18.235   0.972  32.530  1.00  0.00    -0.259 OA
HETATM    3  C1  UNK     1      18.494   4.913  31.522  1.00  0.00    -0.001 A 
HETATM    4  C2  UNK     1      18.195   4.528  32.825  1.00  0.00     0.092 A 
HETATM    5  C3  UNK     1      18.714   3.886  30.517  1.00  0.00     0.035 A 
HETATM    6  C4  UNK     1      18.629   2.591  30.846  1.00  0.00     0.086 A 
HETATM    7  C5  UNK     1      18.573   6.276  31.225  1.00  0.00     0.017 A 
HETATM    8  C6  UNK     1      17.973   5.462  33.834  1.00  0.00     0.074 A 
HETATM    9  C7  UNK     1      18.311   2.157  32.225  1.00  0.00     0.302 A 
HETATM   10  C8  UNK     1      18.053   6.819  33.529  1.00  0.00     0.068 A 
HETATM   11  C9  UNK     1      18.353   7.225  32.227  1.00  0.00     0.037 A 
ENDROOT
BRANCH   6  12
HETATM   12  C10 UNK     1      18.868   1.630  29.763  1.00  0.00     0.161 C 
HETATM   13  O4  UNK     1      19.823   0.854  29.814  1.00  0.00    -0.293 OA
HETATM   14  C11 UNK     1      17.907   1.621  28.602  1.00  0.00     0.097 C 
ENDBRANCH   6  12
BRANCH  10  15
HETATM   15  O2  UNK     1      17.839   7.749  34.499  1.00  0.00    -0.361 OA
HETATM   16  H8  UNK     1      16.966   7.592  34.899  1.00  0.00     0.217 HD
ENDBRANCH  10  15
TORSDOF 2
ENDMDL
MODEL 5
REMARK VINA RESULT:      -6.7     13.921     16.532
REMARK  2 active torsions:
REMARK  status: ('A' for Active; 'I' for Inactive)
REMARK    1  A    between atoms: C8_12  and  O2_2 
REMARK    2  A    between atoms: C10_14  and  C4_8 
ROOT
HETATM    1  O1  UNK     1      18.751   1.494  32.012  1.00  0.00    -0.274 OA
HETATM    2  O3  UNK     1      17.715   2.506  33.780  1.00  0.00    -0.259 OA
HETATM    3  C1  UNK     1      19.230  -0.888  32.108  1.00  0.00    -0.001 A 
HETATM    4  C2  UNK     1      19.277   0.324  31.427  1.00  0.00     0.092 A 
HETATM    5  C3  UNK     1      18.630  -0.931  33.431  1.00  0.00     0.035 A 
HETATM    6  C4  UNK     1      18.131   0.183  33.982  1.00  0.00     0.086 A 
HETATM    7  C5  UNK     1      19.764  -2.025  31.494  1.00  0.00     0.017 A 
HETATM    8  C6  UNK     1      19.838   0.433  30.157  1.00  0.00     0.074 A 
HETATM    9  C7  UNK     1      18.169   1.484  33.277  1.00  0.00     0.302 A 
HETATM   10  C8  UNK     1      20.367  -0.706  29.553  1.00  0.00     0.068 A 
HETATM   11  C9  UNK     1      20.330  -1.932  30.220  1.00  0.00     0.037 A 
ENDROOT
BRANCH   6  12
HETATM   12  C10 UNK     1      17.548   0.039  35.321  1.00  0.00     0.161 C 
HETATM   13  O4  UNK     1      18.266   0.048  36.321  1.00  0.00    -0.293 OA
HETATM   14  C11 UNK     1      16.051  -0.108  35.426  1.00  0.00     0.097 C 
ENDBRANCH   6  12
BRANCH  10  15
HETATM   15  O2  UNK     1      20.919  -0.624  28.312  1.00  0.00    -0.361 OA
HETATM   16  H8  UNK     1      21.606   0.066  28.317  1.00  0.00     0.217 HD
ENDBRANCH  10  15
TORSDOF 2
ENDMDL
MODEL 6
REMARK VINA RESULT:      -6.6     10.720     11.914
REMARK  2 active torsions:
REMARK  status: ('A' for Active; 'I' for Inactive)
REMARK    1  A    between atoms: C8_12  and  O2_2 
REMARK    2  A    between atoms: C10_14  and  C4_8 
ROOT
HETATM    1  O1  UNK     1      14.127   5.121   8.940  1.00  0.00    -0.274 OA
HETATM    2  O3  UNK     1      12.202   4.182   8.142  1.00  0.00    -0.259 OA
HETATM    3  C1  UNK     1      14.332   7.542   9.026  1.00  0.00    -0.001 A 
HETATM    4  C2  UNK     1      14.870   6.278   9.248  1.00  0.00     0.092 A 
HETATM    5  C3  UNK     1      12.992   7.651   8.472  1.00  0.00     0.035 A 
HETATM    6  C4  UNK     1      12.291   6.549   8.182  1.00  0.00     0.086 A 
HETATM    7  C5  UNK     1      15.102   8.665   9.344  1.00  0.00     0.017 A 
HETATM    8  C6  UNK     1      16.147   6.105   9.776  1.00  0.00     0.074 A 
HETATM    9  C7  UNK     1      12.842   5.193   8.409  1.00  0.00     0.302 A 
HETATM   10  C8  UNK     1      16.906   7.230  10.090  1.00  0.00     0.068 A 
HETATM   11  C9  UNK     1      16.385   8.508   9.874  1.00  0.00     0.037 A 
ENDROOT
BRANCH   6  12
HETATM   12  C10 UNK     1      10.950   6.761   7.626  1.00  0.00     0.161 C 
HETATM   13  O4  UNK     1       9.984   6.932   8.370  1.00  0.00    -0.293 OA
HETATM   14  C11 UNK     1      10.800   6.773   6.127  1.00  0.00     0.097 C 
ENDBRANCH   6  12
BRANCH  10  15
HETATM   15  O2  UNK     1      18.156   7.085  10.608  1.00  0.00    -0.361 OA
HETATM   16  H8  UNK     1      18.083   6.775  11.528  1.00  0.00     0.217 HD
ENDBRANCH  10  15
TORSDOF 2
ENDMDL
MODEL 7
REMARK VINA RESULT:      -6.6     14.663     17.799
REMARK  2 active torsions:
REMARK  status: ('A' for Active; 'I' for Inactive)
REMARK    1  A    between atoms: C8_12  and  O2_2 
REMARK    2  A    between atoms: C10_14  and  C4_8 
ROOT
HETATM    1  O1  UNK     1      18.962   7.344  33.807  1.00  0.00    -0.274 OA
HETATM    2  O3  UNK     1      20.745   6.204  32.946  1.00  0.00    -0.259 OA
HETATM    3  C1  UNK     1      16.950   7.612  32.468  1.00  0.00    -0.001 A 
HETATM    4  C2  UNK     1      17.650   7.834  33.650  1.00  0.00     0.092 A 
HETATM    5  C3  UNK     1      17.592   6.866  31.399  1.00  0.00     0.035 A 
HETATM    6  C4  UNK     1      18.838   6.402  31.554  1.00  0.00     0.086 A 
HETATM    7  C5  UNK     1      15.652   8.116  32.351  1.00  0.00     0.017 A 
HETATM    8  C6  UNK     1      17.092   8.542  34.712  1.00  0.00     0.074 A 
HETATM    9  C7  UNK     1      19.603   6.626  32.802  1.00  0.00     0.302 A 
HETATM   10  C8  UNK     1      15.797   9.040  34.586  1.00  0.00     0.068 A 
HETATM   11  C9  UNK     1      15.078   8.827  33.408  1.00  0.00     0.037 A 
ENDROOT
BRANCH   6  12
HETATM   12  C10 UNK     1      19.401   5.662  30.418  1.00  0.00     0.161 C 
HETATM   13  O4  UNK     1      20.175   6.212  29.634  1.00  0.00    -0.293 OA
HETATM   14  C11 UNK     1      19.008   4.216  30.253  1.00  0.00     0.097 C 
ENDBRANCH   6  12
BRANCH  10  15
HETATM   15  O2  UNK     1      15.231   9.733  35.612  1.00  0.00    -0.361 OA
HETATM   16  H8  UNK     1      14.430   9.264  35.906  1.00  0.00     0.217 HD
ENDBRANCH  10  15
TORSDOF 2
ENDMDL
MODEL 8
REMARK VINA RESULT:      -6.5     14.379     16.315
REMARK  2 active torsions:
REMARK  status: ('A' for Active; 'I' for Inactive)
REMARK    1  A    between atoms: C8_12  and  O2_2 
REMARK    2  A    between atoms: C10_14  and  C4_8 
ROOT
HETATM    1  O1  UNK     1      18.806   1.981  31.117  1.00  0.00    -0.274 OA
HETATM    2  O3  UNK     1      18.724  -0.129  31.992  1.00  0.00    -0.259 OA
HETATM    3  C1  UNK     1      18.351   3.891  32.551  1.00  0.00    -0.001 A 
HETATM    4  C2  UNK     1      18.679   3.372  31.302  1.00  0.00     0.092 A 
HETATM    5  C3  UNK     1      18.143   2.977  33.662  1.00  0.00     0.035 A 
HETATM    6  C4  UNK     1      18.265   1.657  33.480  1.00  0.00     0.086 A 
HETATM    7  C5  UNK     1      18.233   5.277  32.693  1.00  0.00     0.017 A 
HETATM    8  C6  UNK     1      18.891   4.194  30.198  1.00  0.00     0.074 A 
HETATM    9  C7  UNK     1      18.614   1.081  32.161  1.00  0.00     0.302 A 
HETATM   10  C8  UNK     1      18.772   5.574  30.349  1.00  0.00     0.068 A 
HETATM   11  C9  UNK     1      18.443   6.114  31.594  1.00  0.00     0.037 A 
ENDROOT
BRANCH   6  12
HETATM   12  C10 UNK     1      18.035   0.816  34.661  1.00  0.00     0.161 C 
HETATM   13  O4  UNK     1      18.975   0.474  35.379  1.00  0.00    -0.293 OA
HETATM   14  C11 UNK     1      16.619   0.398  34.965  1.00  0.00     0.097 C 
ENDBRANCH   6  12
BRANCH  10  15
HETATM   15  O2  UNK     1      18.976   6.396  29.284  1.00  0.00    -0.361 OA
HETATM   16  H8  UNK     1      18.516   6.029  28.509  1.00  0.00     0.217 HD
ENDBRANCH  10  15
TORSDOF 2
ENDMDL
MODEL 9
REMARK VINA RESULT:      -6.5     10.711     12.394
REMARK  2 active torsions:
REMARK  status: ('A' for Active; 'I' for Inactive)
REMARK    1  A    between atoms: C8_12  and  O2_2 
REMARK    2  A    between atoms: C10_14  and  C4_8 
ROOT
HETATM    1  O1  UNK     1      14.139   5.028   8.544  1.00  0.00    -0.274 OA
HETATM    2  O3  UNK     1      16.166   4.744   9.560  1.00  0.00    -0.259 OA
HETATM    3  C1  UNK     1      13.118   7.235   8.501  1.00  0.00    -0.001 A 
HETATM    4  C2  UNK     1      13.081   5.883   8.175  1.00  0.00     0.092 A 
HETATM    5  C3  UNK     1      14.266   7.753   9.228  1.00  0.00     0.035 A 
HETATM    6  C4  UNK     1      15.268   6.937   9.577  1.00  0.00     0.086 A 
HETATM    7  C5  UNK     1      12.049   8.049   8.117  1.00  0.00     0.017 A 
HETATM    8  C6  UNK     1      12.011   5.324   7.479  1.00  0.00     0.074 A 
HETATM    9  C7  UNK     1      15.250   5.495   9.240  1.00  0.00     0.302 A 
HETATM   10  C8  UNK     1      10.950   6.144   7.100  1.00  0.00     0.068 A 
HETATM   11  C9  UNK     1      10.969   7.504   7.419  1.00  0.00     0.037 A 
ENDROOT
BRANCH   6  12
HETATM   12  C10 UNK     1      16.381   7.552  10.309  1.00  0.00     0.161 C 
HETATM   13  O4  UNK     1      17.507   7.600   9.813  1.00  0.00    -0.293 OA
HETATM   14  C11 UNK     1      16.096   8.127  11.673  1.00  0.00     0.097 C 
ENDBRANCH   6  12
BRANCH  10  15
HETATM   15  O2  UNK     1       9.895   5.620   6.419  1.00  0.00    -0.361 OA
HETATM   16  H8  UNK     1       9.111   6.175   6.575  1.00  0.00     0.217 HD
ENDBRANCH  10  15
TORSDOF 2
ENDMDL
MODEL 10
REMARK VINA RESULT:      -6.5     12.114     13.457
REMARK  2 active torsions:
REMARK  status: ('A' for Active; 'I' for Inactive)
REMARK    1  A    between atoms: C8_12  and  O2_2 
REMARK    2  A    between atoms: C10_14  and  C4_8 
ROOT
HETATM    1  O1  UNK     1      11.261   7.657   9.819  1.00  0.00    -0.274 OA
HETATM    2  O3  UNK     1      13.088   7.937  11.163  1.00  0.00    -0.259 OA
HETATM    3  C1  UNK     1      11.475   6.392   7.753  1.00  0.00    -0.001 A 
HETATM    4  C2  UNK     1      10.696   7.126   8.642  1.00  0.00     0.092 A 
HETATM    5  C3  UNK     1      12.881   6.180   8.058  1.00  0.00     0.035 A 
HETATM    6  C4  UNK     1      13.412   6.686   9.177  1.00  0.00     0.086 A 
HETATM    7  C5  UNK     1      10.878   5.883   6.597  1.00  0.00     0.017 A 
HETATM    8  C6  UNK     1       9.344   7.364   8.409  1.00  0.00     0.074 A 
HETATM    9  C7  UNK     1      12.603   7.470  10.138  1.00  0.00     0.302 A 
HETATM   10  C8  UNK     1       8.757   6.853   7.254  1.00  0.00     0.068 A 
HETATM   11  C9  UNK     1       9.522   6.114   6.349  1.00  0.00     0.037 A 
ENDROOT
BRANCH   6  12
HETATM   12  C10 UNK     1      14.839   6.420   9.395  1.00  0.00     0.161 C 
HETATM   13  O4  UNK     1      15.663   7.333   9.330  1.00  0.00    -0.293 OA
HETATM   14  C11 UNK     1      15.254   5.006   9.708  1.00  0.00     0.097 C 
ENDBRANCH   6  12
BRANCH  10  15
HETATM   15  O2  UNK     1       7.436   7.072   7.007  1.00  0.00    -0.361 OA
HETATM   16  H8  UNK     1       7.177   6.575   6.212  1.00  0.00     0.217 HD
ENDBRANCH  10  15
TORSDOF 2
ENDMDL
