MODEL 1
REMARK VINA RESULT:      -9.9      0.000      0.000
REMARK  5 active torsions:
REMARK  status: ('A' for Active; 'I' for Inactive)
REMARK    1  A    between atoms: C5_13  and  N1_6 
REMARK    2  A    between atoms: C6_14  and  N2_7 
REMARK    3  A    between atoms: C17_25  and  N3_8 
REMARK       I    between atoms: C9_17  and  N3_8 
REMARK    4  A    between atoms: C5_13  and  C7_15 
REMARK    5  A    between atoms: C6_14  and  C9_17 
ROOT
HETATM    1  N1  UNK     1      19.444  -3.390  36.513  1.00  0.00     0.096 N 
HETATM    2  N2  UNK     1      18.450  -0.718  36.037  1.00  0.00     0.100 N 
HETATM    3  C1  UNK     1      18.799  -2.615  37.581  1.00  0.00     0.303 C 
HETATM    4  C2  UNK     1      20.098  -2.493  35.552  1.00  0.00     0.303 C 
HETATM    5  C3  UNK     1      17.796  -1.614  36.998  1.00  0.00     0.303 C 
HETATM    6  C4  UNK     1      19.094  -1.493  34.969  1.00  0.00     0.303 C 
ENDROOT
BRANCH   1   7
HETATM    7  C5  UNK     1      20.404  -4.343  37.070  1.00  0.00     0.312 C 
BRANCH   7   8
HETATM    8  C7  UNK     1      20.299  -5.684  36.432  1.00  0.00    -0.011 A 
HETATM    9  C10 UNK     1      20.401  -5.829  35.103  1.00  0.00     0.092 A 
HETATM   10  C13 UNK     1      20.304  -7.134  34.428  1.00  0.00     0.288 A 
HETATM   11  O1  UNK     1      20.098  -8.240  35.238  1.00  0.00    -0.275 OA
HETATM   12  O3  UNK     1      20.403  -7.229  33.210  1.00  0.00    -0.260 OA
HETATM   13  C11 UNK     1      19.987  -8.119  36.637  1.00  0.00     0.090 A 
HETATM   14  C8  UNK     1      20.081  -6.875  37.263  1.00  0.00     0.006 A 
HETATM   15  C14 UNK     1      19.780  -9.300  37.352  1.00  0.00     0.045 A 
HETATM   16  C12 UNK     1      19.959  -6.839  38.659  1.00  0.00     0.015 A 
HETATM   17  C16 UNK     1      19.751  -8.015  39.390  1.00  0.00     0.007 A 
HETATM   18  C15 UNK     1      19.662  -9.243  38.737  1.00  0.00    -0.059 A 
HETATM   19  C18 UNK     1      19.440 -10.492  39.521  1.00  0.00     0.048 C 
ENDBRANCH   7   8
ENDBRANCH   1   7
BRANCH   2  20
HETATM   20  C6  UNK     1      17.493   0.235  35.481  1.00  0.00     0.375 C 
BRANCH  20  21
HETATM   21  C9  UNK     1      18.243   1.397  34.851  1.00  0.00     0.250 C 
HETATM   22  O2  UNK     1      19.181   1.958  35.409  1.00  0.00    -0.271 OA
HETATM   23  N3  UNK     1      17.711   1.691  33.597  1.00  0.00    -0.323 N 
HETATM   24  H15 UNK     1      16.925   1.133  33.271  1.00  0.00     0.169 HD
BRANCH  23  25
HETATM   25  C17 UNK     1      18.129   2.699  32.697  1.00  0.00     0.073 A 
HETATM   26  C19 UNK     1      18.548   2.360  31.410  1.00  0.00     0.144 A 
HETATM   27  F1  UNK     1      18.559   1.079  31.014  1.00  0.00    -0.204 F 
HETATM   28  C21 UNK     1      18.959   3.357  30.525  1.00  0.00     0.063 A 
HETATM   29  C23 UNK     1      18.951   4.692  30.926  1.00  0.00     0.014 A 
HETATM   30 Br1  UNK     1      19.508   6.043  29.727  1.00  0.00    -0.051 Br
HETATM   31  C22 UNK     1      18.532   5.032  32.213  1.00  0.00     0.021 A 
HETATM   32  C20 UNK     1      18.121   4.035  33.098  1.00  0.00     0.034 A 
ENDBRANCH  23  25
ENDBRANCH  20  21
ENDBRANCH   2  20
TORSDOF 5
ENDMDL
MODEL 2
REMARK VINA RESULT:      -9.6      4.889     12.691
REMARK  5 active torsions:
REMARK  status: ('A' for Active; 'I' for Inactive)
REMARK    1  A    between atoms: C5_13  and  N1_6 
REMARK    2  A    between atoms: C6_14  and  N2_7 
REMARK    3  A    between atoms: C17_25  and  N3_8 
REMARK       I    between atoms: C9_17  and  N3_8 
REMARK    4  A    between atoms: C5_13  and  C7_15 
REMARK    5  A    between atoms: C6_14  and  C9_17 
ROOT
HETATM    1  N1  UNK     1      18.066   5.355  31.600  1.00  0.00     0.096 N 
HETATM    2  N2  UNK     1      19.025   2.700  30.979  1.00  0.00     0.100 N 
HETATM    3  C1  UNK     1      18.938   5.111  30.445  1.00  0.00     0.303 C 
HETATM    4  C2  UNK     1      18.329   4.373  32.658  1.00  0.00     0.303 C 
HETATM    5  C3  UNK     1      18.762   3.682  29.921  1.00  0.00     0.303 C 
HETATM    6  C4  UNK     1      18.152   2.944  32.134  1.00  0.00     0.303 C 
ENDROOT
BRANCH   1   7
HETATM    7  C5  UNK     1      18.238   6.718  32.102  1.00  0.00     0.312 C 
BRANCH   7   8
HETATM    8  C7  UNK     1      16.935   7.384  32.379  1.00  0.00    -0.011 A 
HETATM    9  C10 UNK     1      15.776   6.820  32.009  1.00  0.00     0.092 A 
HETATM   10  C13 UNK     1      14.465   7.440  32.261  1.00  0.00     0.288 A 
HETATM   11  O1  UNK     1      14.470   8.663  32.914  1.00  0.00    -0.275 OA
HETATM   12  O3  UNK     1      13.425   6.895  31.908  1.00  0.00    -0.260 OA
HETATM   13  C11 UNK     1      15.671   9.280  33.315  1.00  0.00     0.090 A 
HETATM   14  C8  UNK     1      16.907   8.680  33.069  1.00  0.00     0.006 A 
HETATM   15  C14 UNK     1      15.555  10.511  33.964  1.00  0.00     0.045 A 
HETATM   16  C12 UNK     1      18.056   9.358  33.499  1.00  0.00     0.015 A 
HETATM   17  C16 UNK     1      17.956  10.593  34.151  1.00  0.00     0.007 A 
HETATM   18  C15 UNK     1      16.708  11.167  34.383  1.00  0.00    -0.059 A 
HETATM   19  C18 UNK     1      16.608  12.483  35.079  1.00  0.00     0.048 C 
ENDBRANCH   7   8
ENDBRANCH   1   7
BRANCH   2  20
HETATM   20  C6  UNK     1      18.855   1.338  30.478  1.00  0.00     0.375 C 
BRANCH  20  21
HETATM   21  C9  UNK     1      19.612   0.372  31.373  1.00  0.00     0.250 C 
HETATM   22  O2  UNK     1      20.778   0.052  31.164  1.00  0.00    -0.271 OA
HETATM   23  N3  UNK     1      18.796  -0.058  32.418  1.00  0.00    -0.323 N 
HETATM   24  H15 UNK     1      17.843   0.298  32.454  1.00  0.00     0.169 HD
BRANCH  23  25
HETATM   25  C17 UNK     1      19.127  -0.956  33.459  1.00  0.00     0.073 A 
HETATM   26  C19 UNK     1      18.594  -0.777  34.736  1.00  0.00     0.144 A 
HETATM   27  F1  UNK     1      17.764   0.245  34.989  1.00  0.00    -0.204 F 
HETATM   28  C21 UNK     1      18.922  -1.665  35.760  1.00  0.00     0.063 A 
HETATM   29  C23 UNK     1      19.784  -2.733  35.508  1.00  0.00     0.014 A 
HETATM   30 Br1  UNK     1      20.229  -3.936  36.896  1.00  0.00    -0.051 Br
HETATM   31  C22 UNK     1      20.318  -2.912  34.231  1.00  0.00     0.021 A 
HETATM   32  C20 UNK     1      19.989  -2.024  33.208  1.00  0.00     0.034 A 
ENDBRANCH  23  25
ENDBRANCH  20  21
ENDBRANCH   2  20
TORSDOF 5
ENDMDL
MODEL 3
REMARK VINA RESULT:      -9.4      6.853      9.709
REMARK  5 active torsions:
REMARK  status: ('A' for Active; 'I' for Inactive)
REMARK    1  A    between atoms: C5_13  and  N1_6 
REMARK    2  A    between atoms: C6_14  and  N2_7 
REMARK    3  A    between atoms: C17_25  and  N3_8 
REMARK       I    between atoms: C9_17  and  N3_8 
REMARK    4  A    between atoms: C5_13  and  C7_15 
REMARK    5  A    between atoms: C6_14  and  C9_17 
ROOT
HETATM    1  N1  UNK     1      18.501   4.909  32.554  1.00  0.00     0.096 N 
HETATM    2  N2  UNK     1      18.658   7.708  33.258  1.00  0.00     0.100 N 
HETATM    3  C1  UNK     1      19.567   5.769  32.025  1.00  0.00     0.303 C 
HETATM    4  C2  UNK     1      17.292   5.697  32.822  1.00  0.00     0.303 C 
HETATM    5  C3  UNK     1      19.868   6.921  32.991  1.00  0.00     0.303 C 
HETATM    6  C4  UNK     1      17.593   6.848  33.788  1.00  0.00     0.303 C 
ENDROOT
BRANCH   1   7
HETATM    7  C5  UNK     1      18.212   3.813  31.630  1.00  0.00     0.312 C 
BRANCH   7   8
HETATM    8  C7  UNK     1      18.403   2.479  32.263  1.00  0.00    -0.011 A 
HETATM    9  C10 UNK     1      18.071   2.267  33.545  1.00  0.00     0.092 A 
HETATM   10  C13 UNK     1      18.241   0.966  34.214  1.00  0.00     0.288 A 
HETATM   11  O1  UNK     1      18.771  -0.062  33.450  1.00  0.00    -0.275 OA
HETATM   12  O3  UNK     1      17.927   0.809  35.388  1.00  0.00    -0.260 OA
HETATM   13  C11 UNK     1      19.128   0.130  32.101  1.00  0.00     0.090 A 
HETATM   14  C8  UNK     1      18.961   1.370  31.480  1.00  0.00     0.006 A 
HETATM   15  C14 UNK     1      19.652  -0.976  31.429  1.00  0.00     0.045 A 
HETATM   16  C12 UNK     1      19.342   1.480  30.136  1.00  0.00     0.015 A 
HETATM   17  C16 UNK     1      19.869   0.379  29.449  1.00  0.00     0.007 A 
HETATM   18  C15 UNK     1      20.024  -0.846  30.094  1.00  0.00    -0.059 A 
HETATM   19  C18 UNK     1      20.585  -2.014  29.357  1.00  0.00     0.048 C 
ENDBRANCH   7   8
ENDBRANCH   1   7
BRANCH   2  20
HETATM   20  C6  UNK     1      18.946   8.804  34.180  1.00  0.00     0.375 C 
BRANCH  20  21
HETATM   21  C9  UNK     1      17.977   9.946  33.926  1.00  0.00     0.250 C 
HETATM   22  O2  UNK     1      18.326  11.011  33.426  1.00  0.00    -0.271 OA
HETATM   23  N3  UNK     1      16.693   9.589  34.333  1.00  0.00    -0.323 N 
HETATM   24  H15 UNK     1      16.562   8.664  34.736  1.00  0.00     0.169 HD
BRANCH  23  25
HETATM   25  C17 UNK     1      15.516  10.371  34.265  1.00  0.00     0.073 A 
HETATM   26  C19 UNK     1      14.696  10.307  33.139  1.00  0.00     0.144 A 
HETATM   27  F1  UNK     1      15.012   9.505  32.112  1.00  0.00    -0.204 F 
HETATM   28  C21 UNK     1      13.536  11.079  33.075  1.00  0.00     0.063 A 
HETATM   29  C23 UNK     1      13.197  11.916  34.138  1.00  0.00     0.014 A 
HETATM   30 Br1  UNK     1      11.625  12.964  34.052  1.00  0.00    -0.051 Br
HETATM   31  C22 UNK     1      14.018  11.981  35.265  1.00  0.00     0.021 A 
HETATM   32  C20 UNK     1      15.177  11.209  35.328  1.00  0.00     0.034 A 
ENDBRANCH  23  25
ENDBRANCH  20  21
ENDBRANCH   2  20
TORSDOF 5
ENDMDL
MODEL 4
REMARK VINA RESULT:      -9.3      5.395      8.503
REMARK  5 active torsions:
REMARK  status: ('A' for Active; 'I' for Inactive)
REMARK    1  A    between atoms: C5_13  and  N1_6 
REMARK    2  A    between atoms: C6_14  and  N2_7 
REMARK    3  A    between atoms: C17_25  and  N3_8 
REMARK       I    between atoms: C9_17  and  N3_8 
REMARK    4  A    between atoms: C5_13  and  C7_15 
REMARK    5  A    between atoms: C6_14  and  C9_17 
ROOT
HETATM    1  N1  UNK     1      18.882   3.658  31.394  1.00  0.00     0.096 N 
HETATM    2  N2  UNK     1      19.282   6.321  32.444  1.00  0.00     0.100 N 
HETATM    3  C1  UNK     1      19.353   4.752  30.536  1.00  0.00     0.303 C 
HETATM    4  C2  UNK     1      18.048   4.182  32.482  1.00  0.00     0.303 C 
HETATM    5  C3  UNK     1      20.116   5.798  31.356  1.00  0.00     0.303 C 
HETATM    6  C4  UNK     1      18.812   5.226  33.302  1.00  0.00     0.303 C 
ENDROOT
BRANCH   1   7
HETATM    7  C5  UNK     1      18.150   2.663  30.611  1.00  0.00     0.312 C 
BRANCH   7   8
HETATM    8  C7  UNK     1      18.865   1.358  30.550  1.00  0.00    -0.011 A 
HETATM    9  C10 UNK     1      19.453   0.942  29.419  1.00  0.00     0.092 A 
HETATM   10  C13 UNK     1      20.171  -0.339  29.312  1.00  0.00     0.288 A 
HETATM   11  O1  UNK     1      20.220  -1.123  30.454  1.00  0.00    -0.275 OA
HETATM   12  O3  UNK     1      20.697  -0.687  28.260  1.00  0.00    -0.260 OA
HETATM   13  C11 UNK     1      19.612  -0.713  31.656  1.00  0.00     0.090 A 
HETATM   14  C8  UNK     1      18.935   0.505  31.743  1.00  0.00     0.006 A 
HETATM   15  C14 UNK     1      19.725  -1.583  32.742  1.00  0.00     0.045 A 
HETATM   16  C12 UNK     1      18.356   0.840  32.976  1.00  0.00     0.015 A 
HETATM   17  C16 UNK     1      18.461  -0.022  34.074  1.00  0.00     0.007 A 
HETATM   18  C15 UNK     1      19.144  -1.231  33.957  1.00  0.00    -0.059 A 
HETATM   19  C18 UNK     1      19.252  -2.145  35.130  1.00  0.00     0.048 C 
ENDBRANCH   7   8
ENDBRANCH   1   7
BRANCH   2  20
HETATM   20  C6  UNK     1      20.012   7.316  33.226  1.00  0.00     0.375 C 
BRANCH  20  21
HETATM   21  C9  UNK     1      19.052   8.021  34.169  1.00  0.00     0.250 C 
HETATM   22  O2  UNK     1      19.183   7.991  35.389  1.00  0.00    -0.271 OA
HETATM   23  N3  UNK     1      18.058   8.677  33.445  1.00  0.00    -0.323 N 
HETATM   24  H15 UNK     1      18.084   8.605  32.430  1.00  0.00     0.169 HD
BRANCH  23  25
HETATM   25  C17 UNK     1      16.982   9.442  33.953  1.00  0.00     0.073 A 
HETATM   26  C19 UNK     1      15.768   8.827  34.259  1.00  0.00     0.144 A 
HETATM   27  F1  UNK     1      15.609   7.509  34.078  1.00  0.00    -0.204 F 
HETATM   28  C21 UNK     1      14.709   9.585  34.760  1.00  0.00     0.063 A 
HETATM   29  C23 UNK     1      14.864  10.958  34.953  1.00  0.00     0.014 A 
HETATM   30 Br1  UNK     1      13.429  11.985  35.631  1.00  0.00    -0.051 Br
HETATM   31  C22 UNK     1      16.078  11.573  34.646  1.00  0.00     0.021 A 
HETATM   32  C20 UNK     1      17.137  10.815  34.146  1.00  0.00     0.034 A 
ENDBRANCH  23  25
ENDBRANCH  20  21
ENDBRANCH   2  20
TORSDOF 5
ENDMDL
MODEL 5
REMARK VINA RESULT:      -9.2      7.116     10.257
REMARK  5 active torsions:
REMARK  status: ('A' for Active; 'I' for Inactive)
REMARK    1  A    between atoms: C5_13  and  N1_6 
REMARK    2  A    between atoms: C6_14  and  N2_7 
REMARK    3  A    between atoms: C17_25  and  N3_8 
REMARK       I    between atoms: C9_17  and  N3_8 
REMARK    4  A    between atoms: C5_13  and  C7_15 
REMARK    5  A    between atoms: C6_14  and  C9_17 
ROOT
HETATM    1  N1  UNK     1      18.399   5.014  32.588  1.00  0.00     0.096 N 
HETATM    2  N2  UNK     1      18.636   7.813  33.272  1.00  0.00     0.100 N 
HETATM    3  C1  UNK     1      19.506   5.833  32.077  1.00  0.00     0.303 C 
HETATM    4  C2  UNK     1      17.212   5.845  32.821  1.00  0.00     0.303 C 
HETATM    5  C3  UNK     1      19.823   6.982  33.040  1.00  0.00     0.303 C 
HETATM    6  C4  UNK     1      17.530   6.994  33.784  1.00  0.00     0.303 C 
ENDROOT
BRANCH   1   7
HETATM    7  C5  UNK     1      18.095   3.920  31.667  1.00  0.00     0.312 C 
BRANCH   7   8
HETATM    8  C7  UNK     1      18.337   2.585  32.280  1.00  0.00    -0.011 A 
HETATM    9  C10 UNK     1      18.056   2.354  33.571  1.00  0.00     0.092 A 
HETATM   10  C13 UNK     1      18.278   1.052  34.221  1.00  0.00     0.288 A 
HETATM   11  O1  UNK     1      18.803   0.042  33.429  1.00  0.00    -0.275 OA
HETATM   12  O3  UNK     1      18.009   0.877  35.404  1.00  0.00    -0.260 OA
HETATM   13  C11 UNK     1      19.108   0.255  32.070  1.00  0.00     0.090 A 
HETATM   14  C8  UNK     1      18.891   1.495  31.468  1.00  0.00     0.006 A 
HETATM   15  C14 UNK     1      19.632  -0.833  31.370  1.00  0.00     0.045 A 
HETATM   16  C12 UNK     1      19.221   1.626  30.111  1.00  0.00     0.015 A 
HETATM   17  C16 UNK     1      19.748   0.544  29.396  1.00  0.00     0.007 A 
HETATM   18  C15 UNK     1      19.952  -0.683  30.024  1.00  0.00    -0.059 A 
HETATM   19  C18 UNK     1      20.513  -1.832  29.256  1.00  0.00     0.048 C 
ENDBRANCH   7   8
ENDBRANCH   1   7
BRANCH   2  20
HETATM   20  C6  UNK     1      18.940   8.907  34.191  1.00  0.00     0.375 C 
BRANCH  20  21
HETATM   21  C9  UNK     1      18.124  10.130  33.808  1.00  0.00     0.250 C 
HETATM   22  O2  UNK     1      16.997  10.050  33.330  1.00  0.00    -0.271 OA
HETATM   23  N3  UNK     1      18.840  11.294  34.084  1.00  0.00    -0.323 N 
HETATM   24  H15 UNK     1      19.773  11.195  34.480  1.00  0.00     0.169 HD
BRANCH  23  25
HETATM   25  C17 UNK     1      18.431  12.631  33.872  1.00  0.00     0.073 A 
HETATM   26  C19 UNK     1      17.501  13.223  34.726  1.00  0.00     0.144 A 
HETATM   27  F1  UNK     1      16.987  12.534  35.755  1.00  0.00    -0.204 F 
HETATM   28  C21 UNK     1      17.100  14.542  34.514  1.00  0.00     0.063 A 
HETATM   29  C23 UNK     1      17.628  15.269  33.447  1.00  0.00     0.014 A 
HETATM   30 Br1  UNK     1      17.084  17.057  33.159  1.00  0.00    -0.051 Br
HETATM   31  C22 UNK     1      18.558  14.677  32.592  1.00  0.00     0.021 A 
HETATM   32  C20 UNK     1      18.959  13.358  32.805  1.00  0.00     0.034 A 
ENDBRANCH  23  25
ENDBRANCH  20  21
ENDBRANCH   2  20
TORSDOF 5
ENDMDL
MODEL 6
REMARK VINA RESULT:      -9.1     14.489     17.108
REMARK  5 active torsions:
REMARK  status: ('A' for Active; 'I' for Inactive)
REMARK    1  A    between atoms: C5_13  and  N1_6 
REMARK    2  A    between atoms: C6_14  and  N2_7 
REMARK    3  A    between atoms: C17_25  and  N3_8 
REMARK       I    between atoms: C9_17  and  N3_8 
REMARK    4  A    between atoms: C5_13  and  C7_15 
REMARK    5  A    between atoms: C6_14  and  C9_17 
ROOT
HETATM    1  N1  UNK     1      32.172  -6.047  35.948  1.00  0.00     0.096 N 
HETATM    2  N2  UNK     1      34.796  -6.568  34.852  1.00  0.00     0.100 N 
HETATM    3  C1  UNK     1      32.442  -7.254  35.156  1.00  0.00     0.303 C 
HETATM    4  C2  UNK     1      33.055  -4.952  35.529  1.00  0.00     0.303 C 
HETATM    5  C3  UNK     1      33.914  -7.664  35.270  1.00  0.00     0.303 C 
HETATM    6  C4  UNK     1      34.526  -5.362  35.645  1.00  0.00     0.303 C 
ENDROOT
BRANCH   1   7
HETATM    7  C5  UNK     1      30.768  -5.656  35.835  1.00  0.00     0.312 C 
BRANCH   7   8
HETATM    8  C7  UNK     1      30.084  -5.626  37.157  1.00  0.00    -0.011 A 
HETATM    9  C10 UNK     1      30.115  -4.530  37.929  1.00  0.00     0.092 A 
HETATM   10  C13 UNK     1      29.454  -4.454  39.242  1.00  0.00     0.288 A 
HETATM   11  O1  UNK     1      28.779  -5.588  39.667  1.00  0.00    -0.275 OA
HETATM   12  O3  UNK     1      29.503  -3.434  39.921  1.00  0.00    -0.260 OA
HETATM   13  C11 UNK     1      28.730  -6.755  38.878  1.00  0.00     0.090 A 
HETATM   14  C8  UNK     1      29.361  -6.812  37.634  1.00  0.00     0.006 A 
HETATM   15  C14 UNK     1      28.022  -7.836  39.406  1.00  0.00     0.045 A 
HETATM   16  C12 UNK     1      29.266  -8.009  36.911  1.00  0.00     0.015 A 
HETATM   17  C16 UNK     1      28.560  -9.102  37.427  1.00  0.00     0.007 A 
HETATM   18  C15 UNK     1      27.939  -9.016  38.672  1.00  0.00    -0.059 A 
HETATM   19  C18 UNK     1      27.189 -10.184  39.216  1.00  0.00     0.048 C 
ENDBRANCH   7   8
ENDBRANCH   1   7
BRANCH   2  20
HETATM   20  C6  UNK     1      36.199  -6.959  34.963  1.00  0.00     0.375 C 
BRANCH  20  21
HETATM   21  C9  UNK     1      36.600  -7.756  33.733  1.00  0.00     0.250 C 
HETATM   22  O2  UNK     1      36.644  -7.263  32.611  1.00  0.00    -0.271 OA
HETATM   23  N3  UNK     1      36.900  -9.071  34.087  1.00  0.00    -0.323 N 
HETATM   24  H15 UNK     1      36.813  -9.331  35.067  1.00  0.00     0.169 HD
BRANCH  23  25
HETATM   25  C17 UNK     1      37.311 -10.122  33.235  1.00  0.00     0.073 A 
HETATM   26  C19 UNK     1      36.407 -11.117  32.863  1.00  0.00     0.144 A 
HETATM   27  F1  UNK     1      35.142 -11.087  33.306  1.00  0.00    -0.204 F 
HETATM   28  C21 UNK     1      36.816 -12.153  32.022  1.00  0.00     0.063 A 
HETATM   29  C23 UNK     1      38.129 -12.194  31.554  1.00  0.00     0.014 A 
HETATM   30 Br1  UNK     1      38.684 -13.597  30.415  1.00  0.00    -0.051 Br
HETATM   31  C22 UNK     1      39.034 -11.199  31.927  1.00  0.00     0.021 A 
HETATM   32  C20 UNK     1      38.625 -10.164  32.767  1.00  0.00     0.034 A 
ENDBRANCH  23  25
ENDBRANCH  20  21
ENDBRANCH   2  20
TORSDOF 5
ENDMDL
MODEL 7
REMARK VINA RESULT:      -9.0      1.688      2.245
REMARK  5 active torsions:
REMARK  status: ('A' for Active; 'I' for Inactive)
REMARK    1  A    between atoms: C5_13  and  N1_6 
REMARK    2  A    between atoms: C6_14  and  N2_7 
REMARK    3  A    between atoms: C17_25  and  N3_8 
REMARK       I    between atoms: C9_17  and  N3_8 
REMARK    4  A    between atoms: C5_13  and  C7_15 
REMARK    5  A    between atoms: C6_14  and  C9_17 
ROOT
HETATM    1  N1  UNK     1      19.481  -3.436  36.574  1.00  0.00     0.096 N 
HETATM    2  N2  UNK     1      18.338  -0.791  36.340  1.00  0.00     0.100 N 
HETATM    3  C1  UNK     1      19.995  -2.466  35.598  1.00  0.00     0.303 C 
HETATM    4  C2  UNK     1      18.057  -3.195  36.834  1.00  0.00     0.303 C 
HETATM    5  C3  UNK     1      19.762  -1.031  36.080  1.00  0.00     0.303 C 
HETATM    6  C4  UNK     1      17.825  -1.759  37.317  1.00  0.00     0.303 C 
ENDROOT
BRANCH   1   7
HETATM    7  C5  UNK     1      19.700  -4.805  36.110  1.00  0.00     0.312 C 
BRANCH   7   8
HETATM    8  C7  UNK     1      20.551  -5.587  37.049  1.00  0.00    -0.011 A 
HETATM    9  C10 UNK     1      21.645  -5.046  37.606  1.00  0.00     0.092 A 
HETATM   10  C13 UNK     1      22.516  -5.780  38.539  1.00  0.00     0.288 A 
HETATM   11  O1  UNK     1      22.157  -7.087  38.831  1.00  0.00    -0.275 OA
HETATM   12  O3  UNK     1      23.509  -5.253  39.030  1.00  0.00    -0.260 OA
HETATM   13  C11 UNK     1      21.014  -7.681  38.261  1.00  0.00     0.090 A 
HETATM   14  C8  UNK     1      20.197  -6.973  37.378  1.00  0.00     0.006 A 
HETATM   15  C14 UNK     1      20.749  -9.002  38.626  1.00  0.00     0.045 A 
HETATM   16  C12 UNK     1      19.078  -7.636  36.853  1.00  0.00     0.015 A 
HETATM   17  C16 UNK     1      18.799  -8.961  37.210  1.00  0.00     0.007 A 
HETATM   18  C15 UNK     1      19.633  -9.642  38.095  1.00  0.00    -0.059 A 
HETATM   19  C18 UNK     1      19.330 -11.053  38.471  1.00  0.00     0.048 C 
ENDBRANCH   7   8
ENDBRANCH   1   7
BRANCH   2  20
HETATM   20  C6  UNK     1      18.118   0.578  36.802  1.00  0.00     0.375 C 
BRANCH  20  21
HETATM   21  C9  UNK     1      18.782   1.549  35.840  1.00  0.00     0.250 C 
HETATM   22  O2  UNK     1      19.907   2.001  36.029  1.00  0.00    -0.271 OA
HETATM   23  N3  UNK     1      17.939   1.814  34.763  1.00  0.00    -0.323 N 
HETATM   24  H15 UNK     1      17.028   1.361  34.750  1.00  0.00     0.169 HD
BRANCH  23  25
HETATM   25  C17 UNK     1      18.188   2.664  33.659  1.00  0.00     0.073 A 
HETATM   26  C19 UNK     1      18.486   2.119  32.410  1.00  0.00     0.144 A 
HETATM   27  F1  UNK     1      18.538   0.791  32.242  1.00  0.00    -0.204 F 
HETATM   28  C21 UNK     1      18.731   2.960  31.324  1.00  0.00     0.063 A 
HETATM   29  C23 UNK     1      18.678   4.344  31.487  1.00  0.00     0.014 A 
HETATM   30 Br1  UNK     1      19.011   5.483  30.015  1.00  0.00    -0.051 Br
HETATM   31  C22 UNK     1      18.381   4.888  32.737  1.00  0.00     0.021 A 
HETATM   32  C20 UNK     1      18.136   4.048  33.823  1.00  0.00     0.034 A 
ENDBRANCH  23  25
ENDBRANCH  20  21
ENDBRANCH   2  20
TORSDOF 5
ENDMDL
MODEL 8
REMARK VINA RESULT:      -8.8     27.534     29.397
REMARK  5 active torsions:
REMARK  status: ('A' for Active; 'I' for Inactive)
REMARK    1  A    between atoms: C5_13  and  N1_6 
REMARK    2  A    between atoms: C6_14  and  N2_7 
REMARK    3  A    between atoms: C17_25  and  N3_8 
REMARK       I    between atoms: C9_17  and  N3_8 
REMARK    4  A    between atoms: C5_13  and  C7_15 
REMARK    5  A    between atoms: C6_14  and  C9_17 
ROOT
HETATM    1  N1  UNK     1      15.495   9.377   9.279  1.00  0.00     0.096 N 
HETATM    2  N2  UNK     1      17.270  11.584   8.702  1.00  0.00     0.100 N 
HETATM    3  C1  UNK     1      14.973  10.700   8.913  1.00  0.00     0.303 C 
HETATM    4  C2  UNK     1      16.794   9.506   9.949  1.00  0.00     0.303 C 
HETATM    5  C3  UNK     1      15.971  11.455   8.030  1.00  0.00     0.303 C 
HETATM    6  C4  UNK     1      17.792  10.261   9.065  1.00  0.00     0.303 C 
ENDROOT
BRANCH   1   7
HETATM    7  C5  UNK     1      14.542   8.659  10.124  1.00  0.00     0.312 C 
BRANCH   7   8
HETATM    8  C7  UNK     1      14.283   7.278   9.632  1.00  0.00    -0.011 A 
HETATM    9  C10 UNK     1      15.065   6.252  10.001  1.00  0.00     0.092 A 
HETATM   10  C13 UNK     1      14.848   4.871   9.540  1.00  0.00     0.288 A 
HETATM   11  O1  UNK     1      13.776   4.661   8.686  1.00  0.00    -0.275 OA
HETATM   12  O3  UNK     1      15.583   3.958   9.898  1.00  0.00    -0.260 OA
HETATM   13  C11 UNK     1      12.938   5.718   8.280  1.00  0.00     0.090 A 
HETATM   14  C8  UNK     1      13.156   7.023   8.726  1.00  0.00     0.006 A 
HETATM   15  C14 UNK     1      11.890   5.389   7.419  1.00  0.00     0.045 A 
HETATM   16  C12 UNK     1      12.277   8.018   8.277  1.00  0.00     0.015 A 
HETATM   17  C16 UNK     1      11.222   7.704   7.413  1.00  0.00     0.007 A 
HETATM   18  C15 UNK     1      11.028   6.392   6.985  1.00  0.00    -0.059 A 
HETATM   19  C18 UNK     1       9.902   6.064   6.065  1.00  0.00     0.048 C 
ENDBRANCH   7   8
ENDBRANCH   1   7
BRANCH   2  20
HETATM   20  C6  UNK     1      18.222  12.303   7.858  1.00  0.00     0.375 C 
BRANCH  20  21
HETATM   21  C9  UNK     1      19.634  12.040   8.351  1.00  0.00     0.250 C 
HETATM   22  O2  UNK     1      20.357  11.178   7.861  1.00  0.00    -0.271 OA
HETATM   23  N3  UNK     1      19.949  12.906   9.397  1.00  0.00    -0.323 N 
HETATM   24  H15 UNK     1      19.237  13.569   9.696  1.00  0.00     0.169 HD
BRANCH  23  25
HETATM   25  C17 UNK     1      21.161  12.980  10.123  1.00  0.00     0.073 A 
HETATM   26  C19 UNK     1      22.283  13.583   9.555  1.00  0.00     0.144 A 
HETATM   27  F1  UNK     1      22.225  14.100   8.319  1.00  0.00    -0.204 F 
HETATM   28  C21 UNK     1      23.476  13.654  10.274  1.00  0.00     0.063 A 
HETATM   29  C23 UNK     1      23.548  13.120  11.560  1.00  0.00     0.014 A 
HETATM   30 Br1  UNK     1      25.165  13.215  12.535  1.00  0.00    -0.051 Br
HETATM   31  C22 UNK     1      22.426  12.516  12.129  1.00  0.00     0.021 A 
HETATM   32  C20 UNK     1      21.233  12.446  11.409  1.00  0.00     0.034 A 
ENDBRANCH  23  25
ENDBRANCH  20  21
ENDBRANCH   2  20
TORSDOF 5
ENDMDL
MODEL 9
REMARK VINA RESULT:      -8.8      7.799     10.878
REMARK  5 active torsions:
REMARK  status: ('A' for Active; 'I' for Inactive)
REMARK    1  A    between atoms: C5_13  and  N1_6 
REMARK    2  A    between atoms: C6_14  and  N2_7 
REMARK    3  A    between atoms: C17_25  and  N3_8 
REMARK       I    between atoms: C9_17  and  N3_8 
REMARK    4  A    between atoms: C5_13  and  C7_15 
REMARK    5  A    between atoms: C6_14  and  C9_17 
ROOT
HETATM    1  N1  UNK     1      17.080   6.004  32.901  1.00  0.00     0.096 N 
HETATM    2  N2  UNK     1      15.581   8.324  33.753  1.00  0.00     0.100 N 
HETATM    3  C1  UNK     1      17.659   6.990  33.823  1.00  0.00     0.303 C 
HETATM    4  C2  UNK     1      16.098   6.644  32.018  1.00  0.00     0.303 C 
HETATM    5  C3  UNK     1      16.563   7.685  34.637  1.00  0.00     0.303 C 
HETATM    6  C4  UNK     1      15.002   7.339  32.832  1.00  0.00     0.303 C 
ENDROOT
BRANCH   1   7
HETATM    7  C5  UNK     1      18.127   5.344  32.122  1.00  0.00     0.312 C 
BRANCH   7   8
HETATM    8  C7  UNK     1      18.269   3.905  32.478  1.00  0.00    -0.011 A 
HETATM    9  C10 UNK     1      18.155   3.491  33.748  1.00  0.00     0.092 A 
HETATM   10  C13 UNK     1      18.288   2.080  34.148  1.00  0.00     0.288 A 
HETATM   11  O1  UNK     1      18.543   1.168  33.136  1.00  0.00    -0.275 OA
HETATM   12  O3  UNK     1      18.178   1.738  35.320  1.00  0.00    -0.260 OA
HETATM   13  C11 UNK     1      18.668   1.573  31.792  1.00  0.00     0.090 A 
HETATM   14  C8  UNK     1      18.539   2.915  31.429  1.00  0.00     0.006 A 
HETATM   15  C14 UNK     1      18.924   0.568  30.858  1.00  0.00     0.045 A 
HETATM   16  C12 UNK     1      18.677   3.236  30.071  1.00  0.00     0.015 A 
HETATM   17  C16 UNK     1      18.935   2.240  29.122  1.00  0.00     0.007 A 
HETATM   18  C15 UNK     1      19.058   0.908  29.515  1.00  0.00    -0.059 A 
HETATM   19  C18 UNK     1      19.332  -0.149  28.500  1.00  0.00     0.048 C 
ENDBRANCH   7   8
ENDBRANCH   1   7
BRANCH   2  20
HETATM   20  C6  UNK     1      14.536   8.986  34.531  1.00  0.00     0.375 C 
BRANCH  20  21
HETATM   21  C9  UNK     1      15.039  10.338  35.007  1.00  0.00     0.250 C 
HETATM   22  O2  UNK     1      14.903  10.723  36.165  1.00  0.00    -0.271 OA
HETATM   23  N3  UNK     1      15.653  11.021  33.960  1.00  0.00    -0.323 N 
HETATM   24  H15 UNK     1      15.685  10.567  33.050  1.00  0.00     0.169 HD
BRANCH  23  25
HETATM   25  C17 UNK     1      16.247  12.305  33.996  1.00  0.00     0.073 A 
HETATM   26  C19 UNK     1      17.627  12.434  34.149  1.00  0.00     0.144 A 
HETATM   27  F1  UNK     1      18.404  11.347  34.263  1.00  0.00    -0.204 F 
HETATM   28  C21 UNK     1      18.209  13.701  34.184  1.00  0.00     0.063 A 
HETATM   29  C23 UNK     1      17.411  14.839  34.066  1.00  0.00     0.014 A 
HETATM   30 Br1  UNK     1      18.200  16.557  34.113  1.00  0.00    -0.051 Br
HETATM   31  C22 UNK     1      16.030  14.710  33.913  1.00  0.00     0.021 A 
HETATM   32  C20 UNK     1      15.449  13.442  33.878  1.00  0.00     0.034 A 
ENDBRANCH  23  25
ENDBRANCH  20  21
ENDBRANCH   2  20
TORSDOF 5
ENDMDL
MODEL 10
REMARK VINA RESULT:      -8.6     14.436     16.886
REMARK  5 active torsions:
REMARK  status: ('A' for Active; 'I' for Inactive)
REMARK    1  A    between atoms: C5_13  and  N1_6 
REMARK    2  A    between atoms: C6_14  and  N2_7 
REMARK    3  A    between atoms: C17_25  and  N3_8 
REMARK       I    between atoms: C9_17  and  N3_8 
REMARK    4  A    between atoms: C5_13  and  C7_15 
REMARK    5  A    between atoms: C6_14  and  C9_17 
ROOT
HETATM    1  N1  UNK     1      32.442  -6.634  36.397  1.00  0.00     0.096 N 
HETATM    2  N2  UNK     1      33.744  -7.061  33.852  1.00  0.00     0.100 N 
HETATM    3  C1  UNK     1      33.382  -5.649  35.847  1.00  0.00     0.303 C 
HETATM    4  C2  UNK     1      32.783  -7.984  35.931  1.00  0.00     0.303 C 
HETATM    5  C3  UNK     1      33.403  -5.711  34.316  1.00  0.00     0.303 C 
HETATM    6  C4  UNK     1      32.803  -8.044  34.401  1.00  0.00     0.303 C 
ENDROOT
BRANCH   1   7
HETATM    7  C5  UNK     1      32.425  -6.577  37.858  1.00  0.00     0.312 C 
BRANCH   7   8
HETATM    8  C7  UNK     1      31.084  -6.211  38.391  1.00  0.00    -0.011 A 
HETATM    9  C10 UNK     1      30.787  -4.942  38.708  1.00  0.00     0.092 A 
HETATM   10  C13 UNK     1      29.476  -4.533  39.238  1.00  0.00     0.288 A 
HETATM   11  O1  UNK     1      28.531  -5.534  39.402  1.00  0.00    -0.275 OA
HETATM   12  O3  UNK     1      29.239  -3.362  39.517  1.00  0.00    -0.260 OA
HETATM   13  C11 UNK     1      28.813  -6.875  39.078  1.00  0.00     0.090 A 
HETATM   14  C8  UNK     1      30.062  -7.248  38.577  1.00  0.00     0.006 A 
HETATM   15  C14 UNK     1      27.786  -7.798  39.285  1.00  0.00     0.045 A 
HETATM   16  C12 UNK     1      30.264  -8.603  38.279  1.00  0.00     0.015 A 
HETATM   17  C16 UNK     1      29.244  -9.540  38.481  1.00  0.00     0.007 A 
HETATM   18  C15 UNK     1      28.008  -9.138  38.983  1.00  0.00    -0.059 A 
HETATM   19  C18 UNK     1      26.925 -10.141  39.195  1.00  0.00     0.048 C 
ENDBRANCH   7   8
ENDBRANCH   1   7
BRANCH   2  20
HETATM   20  C6  UNK     1      33.762  -7.118  32.392  1.00  0.00     0.375 C 
BRANCH  20  21
HETATM   21  C9  UNK     1      35.165  -7.458  31.917  1.00  0.00     0.250 C 
HETATM   22  O2  UNK     1      35.923  -6.619  31.439  1.00  0.00    -0.271 OA
HETATM   23  N3  UNK     1      35.426  -8.812  32.114  1.00  0.00    -0.323 N 
HETATM   24  H15 UNK     1      34.689  -9.384  32.522  1.00  0.00     0.169 HD
BRANCH  23  25
HETATM   25  C17 UNK     1      36.613  -9.518  31.804  1.00  0.00     0.073 A 
HETATM   26  C19 UNK     1      37.587  -9.713  32.782  1.00  0.00     0.144 A 
HETATM   27  F1  UNK     1      37.411  -9.238  34.023  1.00  0.00    -0.204 F 
HETATM   28  C21 UNK     1      38.756 -10.409  32.473  1.00  0.00     0.063 A 
HETATM   29  C23 UNK     1      38.950 -10.909  31.186  1.00  0.00     0.014 A 
HETATM   30 Br1  UNK     1      40.534 -11.852  30.767  1.00  0.00    -0.051 Br
HETATM   31  C22 UNK     1      37.975 -10.713  30.207  1.00  0.00     0.021 A 
HETATM   32  C20 UNK     1      36.807 -10.017  30.517  1.00  0.00     0.034 A 
ENDBRANCH  23  25
ENDBRANCH  20  21
ENDBRANCH   2  20
TORSDOF 5
ENDMDL
