MODEL 1
REMARK VINA RESULT:      -9.8      0.000      0.000
REMARK  1 active torsions:
REMARK  status: ('A' for Active; 'I' for Inactive)
REMARK    1  A    between atoms: C12_19  and  N1_7 
ROOT
HETATM    1 Cl1  UNK     1      17.987   1.167  36.741  1.00  0.00    -0.084 Cl
HETATM    2  O1  UNK     1      16.963   5.009  32.292  1.00  0.00    -0.309 OA
HETATM    3  O2  UNK     1      18.818   0.446  30.950  1.00  0.00    -0.275 OA
HETATM    4  O3  UNK     1      18.992   1.317  28.844  1.00  0.00    -0.260 OA
HETATM    5  C1  UNK     1      18.397   3.093  31.897  1.00  0.00     0.017 A 
HETATM    6  C2  UNK     1      18.199   4.444  32.255  1.00  0.00     0.088 A 
HETATM    7  C3  UNK     1      18.478   6.578  32.879  1.00  0.00     0.003 A 
HETATM    8  C4  UNK     1      18.406   1.950  32.826  1.00  0.00     0.013 A 
HETATM    9  C5  UNK     1      17.129   6.307  32.671  1.00  0.00     0.086 A 
HETATM   10  C6  UNK     1      19.162   5.364  32.606  1.00  0.00     0.052 A 
HETATM   11  C7  UNK     1      18.615   0.666  32.325  1.00  0.00     0.090 A 
HETATM   12  C8  UNK     1      18.849   7.875  33.276  1.00  0.00     0.050 A 
HETATM   13  C9  UNK     1      18.594   2.846  30.590  1.00  0.00     0.097 A 
HETATM   14  C10 UNK     1      16.110   7.244  32.833  1.00  0.00     0.040 A 
HETATM   15  C11 UNK     1      18.211   2.090  34.208  1.00  0.00     0.039 A 
HETATM   16  C12 UNK     1      17.845   8.838  33.446  1.00  0.00     0.103 A 
HETATM   17  C13 UNK     1      16.501   8.526  33.229  1.00  0.00     0.039 A 
HETATM   18  C14 UNK     1      18.635  -0.459  33.150  1.00  0.00     0.040 A 
HETATM   19  C15 UNK     1      18.817   1.495  30.044  1.00  0.00     0.289 A 
HETATM   20  C16 UNK     1      18.228   0.971  35.047  1.00  0.00     0.035 A 
HETATM   21  C17 UNK     1      18.440  -0.301  34.519  1.00  0.00     0.026 A 
ENDROOT
BRANCH  16  22
HETATM   22  N1  UNK     1      18.203  10.153  33.849  1.00  0.00    -0.116 N 
HETATM   23  O4  UNK     1      17.330  11.054  33.825  1.00  0.00    -0.532 OA
HETATM   24  O5  UNK     1      19.381  10.376  34.217  1.00  0.00    -0.532 OA
ENDBRANCH  16  22
TORSDOF 1
ENDMDL
MODEL 2
REMARK VINA RESULT:      -8.8      7.150     11.492
REMARK  1 active torsions:
REMARK  status: ('A' for Active; 'I' for Inactive)
REMARK    1  A    between atoms: C12_19  and  N1_7 
ROOT
HETATM    1 Cl1  UNK     1      20.580  -2.410  31.307  1.00  0.00    -0.084 Cl
HETATM    2  O1  UNK     1      18.857  -4.373  36.671  1.00  0.00    -0.309 OA
HETATM    3  O2  UNK     1      17.649   0.457  35.541  1.00  0.00    -0.275 OA
HETATM    4  O3  UNK     1      16.937   0.616  37.707  1.00  0.00    -0.260 OA
HETATM    5  C1  UNK     1      18.921  -1.985  36.246  1.00  0.00     0.017 A 
HETATM    6  C2  UNK     1      19.512  -3.181  36.707  1.00  0.00     0.088 A 
HETATM    7  C3  UNK     1      20.908  -4.717  37.552  1.00  0.00     0.003 A 
HETATM    8  C4  UNK     1      18.997  -1.463  34.871  1.00  0.00     0.013 A 
HETATM    9  C5  UNK     1      19.704  -5.308  37.185  1.00  0.00     0.086 A 
HETATM   10  C6  UNK     1      20.773  -3.339  37.239  1.00  0.00     0.052 A 
HETATM   11  C7  UNK     1      18.360  -0.262  34.562  1.00  0.00     0.090 A 
HETATM   12  C8  UNK     1      21.913  -5.529  38.107  1.00  0.00     0.050 A 
HETATM   13  C9  UNK     1      18.233  -1.273  37.156  1.00  0.00     0.097 A 
HETATM   14  C10 UNK     1      19.423  -6.666  37.329  1.00  0.00     0.040 A 
HETATM   15  C11 UNK     1      19.686  -2.122  33.843  1.00  0.00     0.039 A 
HETATM   16  C12 UNK     1      21.660  -6.899  38.265  1.00  0.00     0.103 A 
HETATM   17  C13 UNK     1      20.437  -7.455  37.881  1.00  0.00     0.039 A 
HETATM   18  C14 UNK     1      18.394   0.288  33.280  1.00  0.00     0.040 A 
HETATM   19  C15 UNK     1      17.554  -0.001  36.846  1.00  0.00     0.289 A 
HETATM   20  C16 UNK     1      19.728  -1.584  32.553  1.00  0.00     0.035 A 
HETATM   21  C17 UNK     1      19.082  -0.380  32.273  1.00  0.00     0.026 A 
ENDROOT
BRANCH  16  22
HETATM   22  N1  UNK     1      22.666  -7.733  38.822  1.00  0.00    -0.116 N 
HETATM   23  O4  UNK     1      23.772  -7.823  38.237  1.00  0.00    -0.532 OA
HETATM   24  O5  UNK     1      22.419  -8.356  39.882  1.00  0.00    -0.532 OA
ENDBRANCH  16  22
TORSDOF 1
ENDMDL
MODEL 3
REMARK VINA RESULT:      -8.4      6.549      9.724
REMARK  1 active torsions:
REMARK  status: ('A' for Active; 'I' for Inactive)
REMARK    1  A    between atoms: C12_19  and  N1_7 
ROOT
HETATM    1 Cl1  UNK     1      16.961  -8.324  35.318  1.00  0.00    -0.084 Cl
HETATM    2  O1  UNK     1      20.345  -3.419  35.020  1.00  0.00    -0.309 OA
HETATM    3  O2  UNK     1      21.841  -6.994  38.344  1.00  0.00    -0.275 OA
HETATM    4  O3  UNK     1      23.395  -5.468  39.038  1.00  0.00    -0.260 OA
HETATM    5  C1  UNK     1      20.549  -4.885  36.942  1.00  0.00     0.017 A 
HETATM    6  C2  UNK     1      19.992  -3.765  36.287  1.00  0.00     0.088 A 
HETATM    7  C3  UNK     1      18.812  -1.935  35.761  1.00  0.00     0.003 A 
HETATM    8  C4  UNK     1      20.012  -6.256  36.908  1.00  0.00     0.013 A 
HETATM    9  C5  UNK     1      19.629  -2.305  34.698  1.00  0.00     0.086 A 
HETATM   10  C6  UNK     1      19.055  -2.887  36.785  1.00  0.00     0.052 A 
HETATM   11  C7  UNK     1      20.673  -7.264  37.608  1.00  0.00     0.090 A 
HETATM   12  C8  UNK     1      17.993  -0.801  35.615  1.00  0.00     0.050 A 
HETATM   13  C9  UNK     1      21.667  -4.662  37.655  1.00  0.00     0.097 A 
HETATM   14  C10 UNK     1      19.691  -1.622  33.485  1.00  0.00     0.040 A 
HETATM   15  C11 UNK     1      18.854  -6.603  36.197  1.00  0.00     0.039 A 
HETATM   16  C12 UNK     1      18.035  -0.093  34.406  1.00  0.00     0.103 A 
HETATM   17  C13 UNK     1      18.868  -0.499  33.361  1.00  0.00     0.039 A 
HETATM   18  C14 UNK     1      20.217  -8.584  37.617  1.00  0.00     0.040 A 
HETATM   19  C15 UNK     1      22.378  -5.716  38.400  1.00  0.00     0.289 A 
HETATM   20  C16 UNK     1      18.385  -7.920  36.197  1.00  0.00     0.035 A 
HETATM   21  C17 UNK     1      19.066  -8.909  36.907  1.00  0.00     0.026 A 
ENDROOT
BRANCH  16  22
HETATM   22  N1  UNK     1      17.212   1.054  34.242  1.00  0.00    -0.116 N 
HETATM   23  O4  UNK     1      17.753   2.155  33.981  1.00  0.00    -0.532 OA
HETATM   24  O5  UNK     1      15.970   0.933  34.363  1.00  0.00    -0.532 OA
ENDBRANCH  16  22
TORSDOF 1
ENDMDL
MODEL 4
REMARK VINA RESULT:      -8.4     15.345     17.226
REMARK  1 active torsions:
REMARK  status: ('A' for Active; 'I' for Inactive)
REMARK    1  A    between atoms: C12_19  and  N1_7 
ROOT
HETATM    1 Cl1  UNK     1      33.076  -4.283  35.617  1.00  0.00    -0.084 Cl
HETATM    2  O1  UNK     1      27.860  -6.416  33.657  1.00  0.00    -0.309 OA
HETATM    3  O2  UNK     1      28.543  -6.425  38.716  1.00  0.00    -0.275 OA
HETATM    4  O3  UNK     1      26.575  -7.585  38.817  1.00  0.00    -0.260 OA
HETATM    5  C1  UNK     1      28.575  -6.926  35.919  1.00  0.00     0.017 A 
HETATM    6  C2  UNK     1      28.489  -7.234  34.544  1.00  0.00     0.088 A 
HETATM    7  C3  UNK     1      28.657  -8.206  32.531  1.00  0.00     0.003 A 
HETATM    8  C4  UNK     1      29.655  -6.159  36.561  1.00  0.00     0.013 A 
HETATM    9  C5  UNK     1      27.960  -7.005  32.432  1.00  0.00     0.086 A 
HETATM   10  C6  UNK     1      28.994  -8.344  33.903  1.00  0.00     0.052 A 
HETATM   11  C7  UNK     1      29.605  -5.933  37.936  1.00  0.00     0.090 A 
HETATM   12  C8  UNK     1      28.861  -8.961  31.363  1.00  0.00     0.050 A 
HETATM   13  C9  UNK     1      27.575  -7.381  36.693  1.00  0.00     0.097 A 
HETATM   14  C10 UNK     1      27.448  -6.495  31.241  1.00  0.00     0.040 A 
HETATM   15  C11 UNK     1      30.746  -5.637  35.851  1.00  0.00     0.039 A 
HETATM   16  C12 UNK     1      28.356  -8.473  30.150  1.00  0.00     0.103 A 
HETATM   17  C13 UNK     1      27.664  -7.262  30.092  1.00  0.00     0.039 A 
HETATM   18  C14 UNK     1      30.596  -5.214  38.607  1.00  0.00     0.040 A 
HETATM   19  C15 UNK     1      27.507  -7.151  38.148  1.00  0.00     0.289 A 
HETATM   20  C16 UNK     1      31.746  -4.915  36.510  1.00  0.00     0.035 A 
HETATM   21  C17 UNK     1      31.671  -4.704  37.886  1.00  0.00     0.026 A 
ENDROOT
BRANCH  16  22
HETATM   22  N1  UNK     1      28.556  -9.225  28.960  1.00  0.00    -0.116 N 
HETATM   23  O4  UNK     1      29.669  -9.165  28.385  1.00  0.00    -0.532 OA
HETATM   24  O5  UNK     1      27.614  -9.925  28.519  1.00  0.00    -0.532 OA
ENDBRANCH  16  22
TORSDOF 1
ENDMDL
MODEL 5
REMARK VINA RESULT:      -8.2     16.415     18.813
REMARK  1 active torsions:
REMARK  status: ('A' for Active; 'I' for Inactive)
REMARK    1  A    between atoms: C12_19  and  N1_7 
ROOT
HETATM    1 Cl1  UNK     1      30.861  -7.388  30.295  1.00  0.00    -0.084 Cl
HETATM    2  O1  UNK     1      33.166  -4.720  35.108  1.00  0.00    -0.309 OA
HETATM    3  O2  UNK     1      36.354  -7.659  32.413  1.00  0.00    -0.275 OA
HETATM    4  O3  UNK     1      37.853  -7.301  34.102  1.00  0.00    -0.260 OA
HETATM    5  C1  UNK     1      34.341  -6.596  34.115  1.00  0.00     0.017 A 
HETATM    6  C2  UNK     1      33.426  -6.054  35.043  1.00  0.00     0.088 A 
HETATM    7  C3  UNK     1      31.916  -5.763  36.673  1.00  0.00     0.003 A 
HETATM    8  C4  UNK     1      34.015  -7.060  32.756  1.00  0.00     0.013 A 
HETATM    9  C5  UNK     1      32.249  -4.541  36.099  1.00  0.00     0.086 A 
HETATM   10  C6  UNK     1      32.685  -6.736  35.982  1.00  0.00     0.052 A 
HETATM   11  C7  UNK     1      35.028  -7.575  31.950  1.00  0.00     0.090 A 
HETATM   12  C8  UNK     1      30.978  -5.780  37.721  1.00  0.00     0.050 A 
HETATM   13  C9  UNK     1      35.618  -6.691  34.526  1.00  0.00     0.097 A 
HETATM   14  C10 UNK     1      31.708  -3.318  36.495  1.00  0.00     0.040 A 
HETATM   15  C11 UNK     1      32.718  -7.008  32.225  1.00  0.00     0.039 A 
HETATM   16  C12 UNK     1      30.418  -4.566  38.141  1.00  0.00     0.103 A 
HETATM   17  C13 UNK     1      30.777  -3.358  37.537  1.00  0.00     0.039 A 
HETATM   18  C14 UNK     1      34.787  -8.032  30.653  1.00  0.00     0.040 A 
HETATM   19  C15 UNK     1      36.701  -7.233  33.686  1.00  0.00     0.289 A 
HETATM   20  C16 UNK     1      32.461  -7.461  30.927  1.00  0.00     0.035 A 
HETATM   21  C17 UNK     1      33.494  -7.973  30.143  1.00  0.00     0.026 A 
ENDROOT
BRANCH  16  22
HETATM   22  N1  UNK     1      29.468  -4.566  39.198  1.00  0.00    -0.116 N 
HETATM   23  O4  UNK     1      29.524  -3.660  40.064  1.00  0.00    -0.532 OA
HETATM   24  O5  UNK     1      28.601  -5.471  39.234  1.00  0.00    -0.532 OA
ENDBRANCH  16  22
TORSDOF 1
ENDMDL
MODEL 6
REMARK VINA RESULT:      -8.2     16.223     18.046
REMARK  1 active torsions:
REMARK  status: ('A' for Active; 'I' for Inactive)
REMARK    1  A    between atoms: C12_19  and  N1_7 
ROOT
HETATM    1 Cl1  UNK     1      33.843  -3.995  35.167  1.00  0.00    -0.084 Cl
HETATM    2  O1  UNK     1      29.175  -6.598  32.514  1.00  0.00    -0.309 OA
HETATM    3  O2  UNK     1      28.808  -5.911  37.559  1.00  0.00    -0.275 OA
HETATM    4  O3  UNK     1      26.882  -7.134  37.423  1.00  0.00    -0.260 OA
HETATM    5  C1  UNK     1      29.420  -6.774  34.921  1.00  0.00     0.017 A 
HETATM    6  C2  UNK     1      29.623  -7.263  33.613  1.00  0.00     0.088 A 
HETATM    7  C3  UNK     1      30.216  -8.482  31.828  1.00  0.00     0.003 A 
HETATM    8  C4  UNK     1      30.333  -5.881  35.656  1.00  0.00     0.013 A 
HETATM    9  C5  UNK     1      29.534  -7.338  31.427  1.00  0.00     0.086 A 
HETATM   10  C6  UNK     1      30.267  -8.424  33.246  1.00  0.00     0.052 A 
HETATM   11  C7  UNK     1      30.000  -5.479  36.948  1.00  0.00     0.090 A 
HETATM   12  C8  UNK     1      30.668  -9.375  30.841  1.00  0.00     0.050 A 
HETATM   13  C9  UNK     1      28.291  -7.167  35.535  1.00  0.00     0.097 A 
HETATM   14  C10 UNK     1      29.268  -7.012  30.099  1.00  0.00     0.040 A 
HETATM   15  C11 UNK     1      31.537  -5.409  35.113  1.00  0.00     0.039 A 
HETATM   16  C12 UNK     1      30.414  -9.074  29.495  1.00  0.00     0.103 A 
HETATM   17  C13 UNK     1      29.727  -7.913  29.133  1.00  0.00     0.039 A 
HETATM   18  C14 UNK     1      30.820  -4.635  37.698  1.00  0.00     0.040 A 
HETATM   19  C15 UNK     1      27.923  -6.751  36.901  1.00  0.00     0.289 A 
HETATM   20  C16 UNK     1      32.369  -4.562  35.853  1.00  0.00     0.035 A 
HETATM   21  C17 UNK     1      32.010  -4.176  37.144  1.00  0.00     0.026 A 
ENDROOT
BRANCH  16  22
HETATM   22  N1  UNK     1      30.865  -9.965  28.485  1.00  0.00    -0.116 N 
HETATM   23  O4  UNK     1      31.480 -11.005  28.824  1.00  0.00    -0.532 OA
HETATM   24  O5  UNK     1      30.636  -9.688  27.284  1.00  0.00    -0.532 OA
ENDBRANCH  16  22
TORSDOF 1
ENDMDL
MODEL 7
REMARK VINA RESULT:      -8.1     16.223     18.455
REMARK  1 active torsions:
REMARK  status: ('A' for Active; 'I' for Inactive)
REMARK    1  A    between atoms: C12_19  and  N1_7 
ROOT
HETATM    1 Cl1  UNK     1      27.251  -9.964  36.060  1.00  0.00    -0.084 Cl
HETATM    2  O1  UNK     1      32.348  -6.977  36.897  1.00  0.00    -0.309 OA
HETATM    3  O2  UNK     1      28.256  -5.198  39.380  1.00  0.00    -0.275 OA
HETATM    4  O3  UNK     1      29.586  -3.439  39.980  1.00  0.00    -0.260 OA
HETATM    5  C1  UNK     1      30.244  -5.918  37.479  1.00  0.00     0.017 A 
HETATM    6  C2  UNK     1      31.293  -6.181  36.572  1.00  0.00     0.088 A 
HETATM    7  C3  UNK     1      32.635  -6.247  34.779  1.00  0.00     0.003 A 
HETATM    8  C4  UNK     1      29.011  -6.712  37.622  1.00  0.00     0.013 A 
HETATM    9  C5  UNK     1      33.166  -7.018  35.808  1.00  0.00     0.086 A 
HETATM   10  C6  UNK     1      31.422  -5.710  35.285  1.00  0.00     0.052 A 
HETATM   11  C7  UNK     1      28.059  -6.329  38.565  1.00  0.00     0.090 A 
HETATM   12  C8  UNK     1      33.343  -6.166  33.567  1.00  0.00     0.050 A 
HETATM   13  C9  UNK     1      30.400  -4.845  38.273  1.00  0.00     0.097 A 
HETATM   14  C10 UNK     1      34.364  -7.724  35.718  1.00  0.00     0.040 A 
HETATM   15  C11 UNK     1      28.745  -7.850  36.847  1.00  0.00     0.039 A 
HETATM   16  C12 UNK     1      34.552  -6.866  33.447  1.00  0.00     0.103 A 
HETATM   17  C13 UNK     1      35.051  -7.631  34.504  1.00  0.00     0.039 A 
HETATM   18  C14 UNK     1      26.871  -7.037  38.751  1.00  0.00     0.040 A 
HETATM   19  C15 UNK     1      29.403  -4.426  39.275  1.00  0.00     0.289 A 
HETATM   20  C16 UNK     1      27.558  -8.570  37.022  1.00  0.00     0.035 A 
HETATM   21  C17 UNK     1      26.623  -8.163  37.973  1.00  0.00     0.026 A 
ENDROOT
BRANCH  16  22
HETATM   22  N1  UNK     1      35.279  -6.796  32.228  1.00  0.00    -0.116 N 
HETATM   23  O4  UNK     1      34.670  -6.981  31.147  1.00  0.00    -0.532 OA
HETATM   24  O5  UNK     1      36.508  -6.551  32.267  1.00  0.00    -0.532 OA
ENDBRANCH  16  22
TORSDOF 1
ENDMDL
MODEL 8
REMARK VINA RESULT:      -8.0     23.916     25.992
REMARK  1 active torsions:
REMARK  status: ('A' for Active; 'I' for Inactive)
REMARK    1  A    between atoms: C12_19  and  N1_7 
ROOT
HETATM    1 Cl1  UNK     1      15.042  13.481   6.646  1.00  0.00    -0.084 Cl
HETATM    2  O1  UNK     1      12.962   8.835   9.759  1.00  0.00    -0.309 OA
HETATM    3  O2  UNK     1      18.032   9.438   9.721  1.00  0.00    -0.275 OA
HETATM    4  O3  UNK     1      18.117   7.426  10.802  1.00  0.00    -0.260 OA
HETATM    5  C1  UNK     1      15.306   8.889   9.133  1.00  0.00     0.017 A 
HETATM    6  C2  UNK     1      13.965   8.513   8.898  1.00  0.00     0.088 A 
HETATM    7  C3  UNK     1      12.075   7.675   8.035  1.00  0.00     0.003 A 
HETATM    8  C4  UNK     1      15.939  10.140   8.682  1.00  0.00     0.013 A 
HETATM    9  C5  UNK     1      11.811   8.325   9.237  1.00  0.00     0.086 A 
HETATM   10  C6  UNK     1      13.473   7.803   7.826  1.00  0.00     0.052 A 
HETATM   11  C7  UNK     1      17.278  10.375   8.989  1.00  0.00     0.090 A 
HETATM   12  C8  UNK     1      11.004   7.082   7.344  1.00  0.00     0.050 A 
HETATM   13  C9  UNK     1      16.054   8.017   9.830  1.00  0.00     0.097 A 
HETATM   14  C10 UNK     1      10.544   8.431   9.807  1.00  0.00     0.040 A 
HETATM   15  C11 UNK     1      15.254  11.120   7.949  1.00  0.00     0.039 A 
HETATM   16  C12 UNK     1       9.717   7.171   7.894  1.00  0.00     0.103 A 
HETATM   17  C13 UNK     1       9.494   7.835   9.103  1.00  0.00     0.039 A 
HETATM   18  C14 UNK     1      17.939  11.539   8.593  1.00  0.00     0.040 A 
HETATM   19  C15 UNK     1      17.471   8.250  10.163  1.00  0.00     0.289 A 
HETATM   20  C16 UNK     1      15.902  12.291   7.545  1.00  0.00     0.035 A 
HETATM   21  C17 UNK     1      17.243  12.500   7.866  1.00  0.00     0.026 A 
ENDROOT
BRANCH  16  22
HETATM   22  N1  UNK     1       8.624   6.578   7.208  1.00  0.00    -0.116 N 
HETATM   23  O4  UNK     1       7.490   7.106   7.301  1.00  0.00    -0.532 OA
HETATM   24  O5  UNK     1       8.823   5.543   6.528  1.00  0.00    -0.532 OA
ENDBRANCH  16  22
TORSDOF 1
ENDMDL
MODEL 9
REMARK VINA RESULT:      -7.9     24.752     25.834
REMARK  1 active torsions:
REMARK  status: ('A' for Active; 'I' for Inactive)
REMARK    1  A    between atoms: C12_19  and  N1_7 
ROOT
HETATM    1 Cl1  UNK     1       5.454   8.326  13.108  1.00  0.00    -0.084 Cl
HETATM    2  O1  UNK     1       7.602   5.460   8.337  1.00  0.00    -0.309 OA
HETATM    3  O2  UNK     1       4.499   2.775  11.374  1.00  0.00    -0.275 OA
HETATM    4  O3  UNK     1       5.048   0.976  10.074  1.00  0.00    -0.260 OA
HETATM    5  C1  UNK     1       6.656   4.176  10.165  1.00  0.00     0.017 A 
HETATM    6  C2  UNK     1       7.750   4.773   9.502  1.00  0.00     0.088 A 
HETATM    7  C3  UNK     1       9.787   5.494   8.908  1.00  0.00     0.003 A 
HETATM    8  C4  UNK     1       5.814   4.821  11.187  1.00  0.00     0.013 A 
HETATM    9  C5  UNK     1       8.840   5.899   7.973  1.00  0.00     0.086 A 
HETATM   10  C6  UNK     1       9.070   4.766   9.894  1.00  0.00     0.052 A 
HETATM   11  C7  UNK     1       4.765   4.102  11.757  1.00  0.00     0.090 A 
HETATM   12  C8  UNK     1      11.130   5.855   8.702  1.00  0.00     0.050 A 
HETATM   13  C9  UNK     1       6.375   2.906   9.823  1.00  0.00     0.097 A 
HETATM   14  C10 UNK     1       9.135   6.647   6.835  1.00  0.00     0.040 A 
HETATM   15  C11 UNK     1       6.017   6.139  11.619  1.00  0.00     0.039 A 
HETATM   16  C12 UNK     1      11.457   6.607   7.565  1.00  0.00     0.103 A 
HETATM   17  C13 UNK     1      10.476   6.996   6.650  1.00  0.00     0.039 A 
HETATM   18  C14 UNK     1       3.929   4.654  12.729  1.00  0.00     0.040 A 
HETATM   19  C15 UNK     1       5.269   2.133  10.417  1.00  0.00     0.289 A 
HETATM   20  C16 UNK     1       5.187   6.706  12.592  1.00  0.00     0.035 A 
HETATM   21  C17 UNK     1       4.145   5.963  13.146  1.00  0.00     0.026 A 
ENDROOT
BRANCH  16  22
HETATM   22  N1  UNK     1      12.810   6.981   7.343  1.00  0.00    -0.116 N 
HETATM   23  O4  UNK     1      13.355   6.670   6.257  1.00  0.00    -0.532 OA
HETATM   24  O5  UNK     1      13.421   7.610   8.239  1.00  0.00    -0.532 OA
ENDBRANCH  16  22
TORSDOF 1
ENDMDL
MODEL 10
REMARK VINA RESULT:      -7.9     16.727     18.096
REMARK  1 active torsions:
REMARK  status: ('A' for Active; 'I' for Inactive)
REMARK    1  A    between atoms: C12_19  and  N1_7 
ROOT
HETATM    1 Cl1  UNK     1      31.387  -4.350  36.687  1.00  0.00    -0.084 Cl
HETATM    2  O1  UNK     1      28.389  -7.906  32.949  1.00  0.00    -0.309 OA
HETATM    3  O2  UNK     1      27.560  -8.656  37.931  1.00  0.00    -0.275 OA
HETATM    4  O3  UNK     1      26.348 -10.485  37.288  1.00  0.00    -0.260 OA
HETATM    5  C1  UNK     1      28.588  -8.537  35.284  1.00  0.00     0.017 A 
HETATM    6  C2  UNK     1      29.033  -8.574  33.944  1.00  0.00     0.088 A 
HETATM    7  C3  UNK     1      30.161  -8.981  32.051  1.00  0.00     0.003 A 
HETATM    8  C4  UNK     1      29.002  -7.555  36.300  1.00  0.00     0.013 A 
HETATM    9  C5  UNK     1      29.073  -8.152  31.797  1.00  0.00     0.086 A 
HETATM   10  C6  UNK     1      30.125  -9.248  33.445  1.00  0.00     0.052 A 
HETATM   11  C7  UNK     1      28.476  -7.645  37.588  1.00  0.00     0.090 A 
HETATM   12  C8  UNK     1      30.990  -9.348  30.977  1.00  0.00     0.050 A 
HETATM   13  C9  UNK     1      27.711  -9.490  35.645  1.00  0.00     0.097 A 
HETATM   14  C10 UNK     1      28.747  -7.655  30.536  1.00  0.00     0.040 A 
HETATM   15  C11 UNK     1      29.910  -6.520  36.034  1.00  0.00     0.039 A 
HETATM   16  C12 UNK     1      30.686  -8.864  29.697  1.00  0.00     0.103 A 
HETATM   17  C13 UNK     1      29.585  -8.032  29.483  1.00  0.00     0.039 A 
HETATM   18  C14 UNK     1      28.827  -6.747  38.598  1.00  0.00     0.040 A 
HETATM   19  C15 UNK     1      27.146  -9.599  37.002  1.00  0.00     0.289 A 
HETATM   20  C16 UNK     1      30.270  -5.613  37.036  1.00  0.00     0.035 A 
HETATM   21  C17 UNK     1      29.729  -5.727  38.316  1.00  0.00     0.026 A 
ENDROOT
BRANCH  16  22
HETATM   22  N1  UNK     1      31.516  -9.225  28.601  1.00  0.00    -0.116 N 
HETATM   23  O4  UNK     1      30.985  -9.452  27.488  1.00  0.00    -0.532 OA
HETATM   24  O5  UNK     1      32.754  -9.307  28.778  1.00  0.00    -0.532 OA
ENDBRANCH  16  22
TORSDOF 1
ENDMDL
