MODEL 1
REMARK VINA RESULT:      -9.6      0.000      0.000
REMARK  8 active torsions:
REMARK  status: ('A' for Active; 'I' for Inactive)
REMARK    1  A    between atoms: C18_26  and  O3_3 
REMARK    2  A    between atoms: C24_32  and  O3_3 
REMARK    3  A    between atoms: C21_29  and  O5_5 
REMARK    4  A    between atoms: C5_13  and  N1_6 
REMARK    5  A    between atoms: C6_14  and  N2_7 
REMARK    6  A    between atoms: C5_13  and  C7_15 
REMARK    7  A    between atoms: C6_14  and  C8_16 
REMARK    8  A    between atoms: C14_22  and  C19_27 
ROOT
HETATM    1  N1  UNK     1      19.260  -3.209  36.074  1.00  0.00     0.096 N 
HETATM    2  N2  UNK     1      18.098  -0.662  35.351  1.00  0.00     0.097 N 
HETATM    3  C1  UNK     1      18.492  -2.418  37.044  1.00  0.00     0.303 C 
HETATM    4  C2  UNK     1      19.905  -2.329  35.093  1.00  0.00     0.303 C 
HETATM    5  C3  UNK     1      17.454  -1.542  36.334  1.00  0.00     0.303 C 
HETATM    6  C4  UNK     1      18.867  -1.452  34.382  1.00  0.00     0.303 C 
ENDROOT
BRANCH   1   7
HETATM    7  C5  UNK     1      20.249  -4.043  36.752  1.00  0.00     0.312 C 
BRANCH   7   8
HETATM    8  C7  UNK     1      19.913  -5.492  36.673  1.00  0.00    -0.011 A 
HETATM    9  C11 UNK     1      18.785  -5.910  36.084  1.00  0.00     0.092 A 
HETATM   10  C15 UNK     1      18.411  -7.331  35.982  1.00  0.00     0.288 A 
HETATM   11  O2  UNK     1      19.292  -8.248  36.533  1.00  0.00    -0.275 OA
HETATM   12  O4  UNK     1      17.370  -7.677  35.434  1.00  0.00    -0.260 OA
HETATM   13  C12 UNK     1      20.486  -7.838  37.161  1.00  0.00     0.090 A 
HETATM   14  C9  UNK     1      20.827  -6.488  37.250  1.00  0.00     0.009 A 
HETATM   15  C17 UNK     1      21.296  -8.848  37.682  1.00  0.00     0.041 A 
HETATM   16  C13 UNK     1      22.030  -6.163  37.890  1.00  0.00     0.051 A 
HETATM   17  C18 UNK     1      22.854  -7.164  38.418  1.00  0.00     0.069 A 
HETATM   18  C20 UNK     1      22.488  -8.505  38.313  1.00  0.00     0.039 A 
BRANCH  17  19
HETATM   19  O3  UNK     1      24.019  -6.827  39.036  1.00  0.00    -0.351 OA
BRANCH  19  20
HETATM   20  C24 UNK     1      25.093  -7.762  38.949  1.00  0.00     0.171 C 
HETATM   21  C27 UNK     1      26.360  -7.023  38.575  1.00  0.00     0.034 C 
ENDBRANCH  19  20
ENDBRANCH  17  19
ENDBRANCH   7   8
ENDBRANCH   1   7
BRANCH   2  22
HETATM   22  C6  UNK     1      17.107   0.170  34.672  1.00  0.00     0.334 C 
BRANCH  22  23
HETATM   23  C8  UNK     1      17.722   1.489  34.329  1.00  0.00     0.095 A 
HETATM   24  C10 UNK     1      18.493   2.312  35.109  1.00  0.00     0.078 A 
HETATM   25  C16 UNK     1      18.999   2.261  36.485  1.00  0.00     0.079 C 
HETATM   26  O1  UNK     1      18.826   3.405  34.366  1.00  0.00    -0.294 OA
HETATM   27  C14 UNK     1      18.226   3.168  33.168  1.00  0.00     0.183 A 
HETATM   28  N3  UNK     1      17.554   2.042  33.084  1.00  0.00    -0.224 NA
BRANCH  27  29
HETATM   29  C19 UNK     1      18.420   4.188  32.175  1.00  0.00     0.051 A 
HETATM   30  C21 UNK     1      18.805   3.859  30.875  1.00  0.00     0.082 A 
HETATM   31  C23 UNK     1      18.988   4.864  29.926  1.00  0.00     0.038 A 
HETATM   32  C26 UNK     1      18.786   6.200  30.277  1.00  0.00     0.003 A 
HETATM   33  C25 UNK     1      18.401   6.529  31.576  1.00  0.00     0.001 A 
HETATM   34  C22 UNK     1      18.218   5.524  32.525  1.00  0.00     0.018 A 
BRANCH  30  35
HETATM   35  O5  UNK     1      19.010   2.562  30.506  1.00  0.00    -0.355 OA
HETATM   36  C28 UNK     1      18.279   2.088  29.379  1.00  0.00     0.210 C 
ENDBRANCH  30  35
ENDBRANCH  27  29
ENDBRANCH  22  23
ENDBRANCH   2  22
TORSDOF 8
ENDMDL
MODEL 2
REMARK VINA RESULT:      -9.3      4.517     12.891
REMARK  8 active torsions:
REMARK  status: ('A' for Active; 'I' for Inactive)
REMARK    1  A    between atoms: C18_26  and  O3_3 
REMARK    2  A    between atoms: C24_32  and  O3_3 
REMARK    3  A    between atoms: C21_29  and  O5_5 
REMARK    4  A    between atoms: C5_13  and  N1_6 
REMARK    5  A    between atoms: C6_14  and  N2_7 
REMARK    6  A    between atoms: C5_13  and  C7_15 
REMARK    7  A    between atoms: C6_14  and  C8_16 
REMARK    8  A    between atoms: C14_22  and  C19_27 
ROOT
HETATM    1  N1  UNK     1      17.968   5.658  31.761  1.00  0.00     0.096 N 
HETATM    2  N2  UNK     1      18.996   3.084  30.940  1.00  0.00     0.097 N 
HETATM    3  C1  UNK     1      19.110   5.550  30.844  1.00  0.00     0.303 C 
HETATM    4  C2  UNK     1      17.921   4.498  32.658  1.00  0.00     0.303 C 
HETATM    5  C3  UNK     1      19.045   4.245  30.044  1.00  0.00     0.303 C 
HETATM    6  C4  UNK     1      17.855   3.192  31.858  1.00  0.00     0.303 C 
ENDROOT
BRANCH   1   7
HETATM    7  C5  UNK     1      18.031   6.902  32.524  1.00  0.00     0.312 C 
BRANCH   7   8
HETATM    8  C7  UNK     1      16.692   7.537  32.679  1.00  0.00    -0.011 A 
HETATM    9  C11 UNK     1      15.574   6.889  32.324  1.00  0.00     0.092 A 
HETATM   10  C15 UNK     1      14.230   7.476  32.458  1.00  0.00     0.288 A 
HETATM   11  O2  UNK     1      14.159   8.759  32.979  1.00  0.00    -0.275 OA
HETATM   12  O4  UNK     1      13.228   6.853  32.124  1.00  0.00    -0.260 OA
HETATM   13  C12 UNK     1      15.318   9.465  33.359  1.00  0.00     0.090 A 
HETATM   14  C9  UNK     1      16.586   8.897  33.226  1.00  0.00     0.009 A 
HETATM   15  C17 UNK     1      15.127  10.751  33.869  1.00  0.00     0.041 A 
HETATM   16  C13 UNK     1      17.687   9.665  33.626  1.00  0.00     0.051 A 
HETATM   17  C18 UNK     1      17.513  10.955  34.139  1.00  0.00     0.069 A 
HETATM   18  C20 UNK     1      16.234  11.497  34.262  1.00  0.00     0.039 A 
BRANCH  17  19
HETATM   19  O3  UNK     1      18.596  11.684  34.522  1.00  0.00    -0.351 OA
BRANCH  19  20
HETATM   20  C24 UNK     1      18.474  13.105  34.464  1.00  0.00     0.171 C 
HETATM   21  C27 UNK     1      18.735  13.565  33.046  1.00  0.00     0.034 C 
ENDBRANCH  19  20
ENDBRANCH  17  19
ENDBRANCH   7   8
ENDBRANCH   1   7
BRANCH   2  22
HETATM   22  C6  UNK     1      18.931   1.840  30.176  1.00  0.00     0.334 C 
BRANCH  22  23
HETATM   23  C8  UNK     1      19.219   0.687  31.083  1.00  0.00     0.095 A 
HETATM   24  C10 UNK     1      19.973  -0.433  30.843  1.00  0.00     0.078 A 
HETATM   25  C16 UNK     1      20.748  -0.938  29.705  1.00  0.00     0.079 C 
HETATM   26  O1  UNK     1      19.948  -1.204  31.967  1.00  0.00    -0.294 OA
HETATM   27  C14 UNK     1      19.170  -0.490  32.825  1.00  0.00     0.183 A 
HETATM   28  N3  UNK     1      18.706   0.646  32.355  1.00  0.00    -0.224 NA
BRANCH  27  29
HETATM   29  C19 UNK     1      18.973  -1.089  34.116  1.00  0.00     0.051 A 
HETATM   30  C21 UNK     1      17.823  -0.827  34.859  1.00  0.00     0.082 A 
HETATM   31  C23 UNK     1      17.651  -1.418  36.111  1.00  0.00     0.038 A 
HETATM   32  C26 UNK     1      18.631  -2.272  36.619  1.00  0.00     0.003 A 
HETATM   33  C25 UNK     1      19.782  -2.534  35.876  1.00  0.00     0.001 A 
HETATM   34  C22 UNK     1      19.953  -1.943  34.624  1.00  0.00     0.018 A 
BRANCH  30  35
HETATM   35  O5  UNK     1      16.850   0.004  34.387  1.00  0.00    -0.355 OA
HETATM   36  C28 UNK     1      15.785   0.325  35.278  1.00  0.00     0.210 C 
ENDBRANCH  30  35
ENDBRANCH  27  29
ENDBRANCH  22  23
ENDBRANCH   2  22
TORSDOF 8
ENDMDL
MODEL 3
REMARK VINA RESULT:      -9.1      5.470      8.514
REMARK  8 active torsions:
REMARK  status: ('A' for Active; 'I' for Inactive)
REMARK    1  A    between atoms: C18_26  and  O3_3 
REMARK    2  A    between atoms: C24_32  and  O3_3 
REMARK    3  A    between atoms: C21_29  and  O5_5 
REMARK    4  A    between atoms: C5_13  and  N1_6 
REMARK    5  A    between atoms: C6_14  and  N2_7 
REMARK    6  A    between atoms: C5_13  and  C7_15 
REMARK    7  A    between atoms: C6_14  and  C8_16 
REMARK    8  A    between atoms: C14_22  and  C19_27 
ROOT
HETATM    1  N1  UNK     1      18.854   3.564  31.523  1.00  0.00     0.096 N 
HETATM    2  N2  UNK     1      19.197   6.174  32.718  1.00  0.00     0.097 N 
HETATM    3  C1  UNK     1      19.181   4.739  30.706  1.00  0.00     0.303 C 
HETATM    4  C2  UNK     1      18.092   3.963  32.712  1.00  0.00     0.303 C 
HETATM    5  C3  UNK     1      19.957   5.775  31.527  1.00  0.00     0.303 C 
HETATM    6  C4  UNK     1      18.868   4.999  33.534  1.00  0.00     0.303 C 
ENDROOT
BRANCH   1   7
HETATM    7  C5  UNK     1      18.113   2.578  30.740  1.00  0.00     0.312 C 
BRANCH   7   8
HETATM    8  C7  UNK     1      18.849   1.288  30.619  1.00  0.00    -0.011 A 
HETATM    9  C11 UNK     1      19.447   0.936  29.474  1.00  0.00     0.092 A 
HETATM   10  C15 UNK     1      20.185  -0.328  29.308  1.00  0.00     0.288 A 
HETATM   11  O2  UNK     1      20.240  -1.166  30.411  1.00  0.00    -0.275 OA
HETATM   12  O4  UNK     1      20.721  -0.617  28.244  1.00  0.00    -0.260 OA
HETATM   13  C12 UNK     1      19.619  -0.824  31.628  1.00  0.00     0.090 A 
HETATM   14  C9  UNK     1      18.923   0.378  31.771  1.00  0.00     0.009 A 
HETATM   15  C17 UNK     1      19.738  -1.745  32.671  1.00  0.00     0.041 A 
HETATM   16  C13 UNK     1      18.333   0.644  33.014  1.00  0.00     0.051 A 
HETATM   17  C18 UNK     1      18.443  -0.270  34.069  1.00  0.00     0.069 A 
HETATM   18  C20 UNK     1      19.145  -1.462  33.898  1.00  0.00     0.039 A 
BRANCH  17  19
HETATM   19  O3  UNK     1      17.863   0.008  35.268  1.00  0.00    -0.351 OA
BRANCH  19  20
HETATM   20  C24 UNK     1      17.880   1.369  35.698  1.00  0.00     0.171 C 
HETATM   21  C27 UNK     1      17.623   1.417  37.189  1.00  0.00     0.034 C 
ENDBRANCH  19  20
ENDBRANCH  17  19
ENDBRANCH   7   8
ENDBRANCH   1   7
BRANCH   2  22
HETATM   22  C6  UNK     1      19.939   7.160  33.501  1.00  0.00     0.334 C 
BRANCH  22  23
HETATM   23  C8  UNK     1      19.061   8.340  33.768  1.00  0.00     0.095 A 
HETATM   24  C10 UNK     1      19.405   9.587  34.224  1.00  0.00     0.078 A 
HETATM   25  C16 UNK     1      20.661  10.240  34.610  1.00  0.00     0.079 C 
HETATM   26  O1  UNK     1      18.267  10.331  34.311  1.00  0.00    -0.294 OA
HETATM   27  C14 UNK     1      17.295   9.474  33.897  1.00  0.00     0.183 A 
HETATM   28  N3  UNK     1      17.706   8.273  33.560  1.00  0.00    -0.224 NA
BRANCH  27  29
HETATM   29  C19 UNK     1      15.964  10.015  33.892  1.00  0.00     0.051 A 
HETATM   30  C21 UNK     1      15.025   9.597  32.949  1.00  0.00     0.082 A 
HETATM   31  C23 UNK     1      13.738  10.134  32.960  1.00  0.00     0.038 A 
HETATM   32  C26 UNK     1      13.390  11.091  33.915  1.00  0.00     0.003 A 
HETATM   33  C25 UNK     1      14.329  11.509  34.858  1.00  0.00     0.001 A 
HETATM   34  C22 UNK     1      15.616  10.971  34.847  1.00  0.00     0.018 A 
BRANCH  30  35
HETATM   35  O5  UNK     1      15.338   8.665  32.004  1.00  0.00    -0.355 OA
HETATM   36  C28 UNK     1      14.678   7.405  32.095  1.00  0.00     0.210 C 
ENDBRANCH  30  35
ENDBRANCH  27  29
ENDBRANCH  22  23
ENDBRANCH   2  22
TORSDOF 8
ENDMDL
MODEL 4
REMARK VINA RESULT:      -9.1      5.328      8.859
REMARK  8 active torsions:
REMARK  status: ('A' for Active; 'I' for Inactive)
REMARK    1  A    between atoms: C18_26  and  O3_3 
REMARK    2  A    between atoms: C24_32  and  O3_3 
REMARK    3  A    between atoms: C21_29  and  O5_5 
REMARK    4  A    between atoms: C5_13  and  N1_6 
REMARK    5  A    between atoms: C6_14  and  N2_7 
REMARK    6  A    between atoms: C5_13  and  C7_15 
REMARK    7  A    between atoms: C6_14  and  C8_16 
REMARK    8  A    between atoms: C14_22  and  C19_27 
ROOT
HETATM    1  N1  UNK     1      18.764   3.251  31.374  1.00  0.00     0.096 N 
HETATM    2  N2  UNK     1      18.755   5.912  32.504  1.00  0.00     0.097 N 
HETATM    3  C1  UNK     1      18.941   4.438  30.529  1.00  0.00     0.303 C 
HETATM    4  C2  UNK     1      17.948   3.576  32.550  1.00  0.00     0.303 C 
HETATM    5  C3  UNK     1      19.569   5.586  31.326  1.00  0.00     0.303 C 
HETATM    6  C4  UNK     1      18.575   4.724  33.348  1.00  0.00     0.303 C 
ENDROOT
BRANCH   1   7
HETATM    7  C5  UNK     1      18.164   2.157  30.613  1.00  0.00     0.312 C 
BRANCH   7   8
HETATM    8  C7  UNK     1      19.058   0.968  30.537  1.00  0.00    -0.011 A 
HETATM    9  C11 UNK     1      19.791   0.721  29.443  1.00  0.00     0.092 A 
HETATM   10  C15 UNK     1      20.689  -0.441  29.322  1.00  0.00     0.288 A 
HETATM   11  O2  UNK     1      20.750  -1.296  30.412  1.00  0.00    -0.275 OA
HETATM   12  O4  UNK     1      21.344  -0.634  28.304  1.00  0.00    -0.260 OA
HETATM   13  C12 UNK     1      19.991  -1.063  31.575  1.00  0.00     0.090 A 
HETATM   14  C9  UNK     1      19.144   0.042  31.676  1.00  0.00     0.009 A 
HETATM   15  C17 UNK     1      20.132  -1.990  32.609  1.00  0.00     0.041 A 
HETATM   16  C13 UNK     1      18.422   0.202  32.866  1.00  0.00     0.051 A 
HETATM   17  C18 UNK     1      18.552  -0.719  33.912  1.00  0.00     0.069 A 
HETATM   18  C20 UNK     1      19.407  -1.813  33.784  1.00  0.00     0.039 A 
BRANCH  17  19
HETATM   19  O3  UNK     1      17.842  -0.545  35.059  1.00  0.00    -0.351 OA
BRANCH  19  20
HETATM   20  C24 UNK     1      16.424  -0.682  34.972  1.00  0.00     0.171 C 
HETATM   21  C27 UNK     1      15.774   0.340  35.880  1.00  0.00     0.034 C 
ENDBRANCH  19  20
ENDBRANCH  17  19
ENDBRANCH   7   8
ENDBRANCH   1   7
BRANCH   2  22
HETATM   22  C6  UNK     1      19.356   7.005  33.265  1.00  0.00     0.334 C 
BRANCH  22  23
HETATM   23  C8  UNK     1      18.419   8.170  33.279  1.00  0.00     0.095 A 
HETATM   24  C10 UNK     1      17.198   8.304  32.669  1.00  0.00     0.078 A 
HETATM   25  C16 UNK     1      16.363   7.446  31.821  1.00  0.00     0.079 C 
HETATM   26  O1  UNK     1      16.714   9.543  32.966  1.00  0.00    -0.294 OA
HETATM   27  C14 UNK     1      17.688  10.085  33.747  1.00  0.00     0.183 A 
HETATM   28  N3  UNK     1      18.728   9.315  33.970  1.00  0.00    -0.224 NA
BRANCH  27  29
HETATM   29  C19 UNK     1      17.428  11.420  34.211  1.00  0.00     0.051 A 
HETATM   30  C21 UNK     1      16.360  11.685  35.069  1.00  0.00     0.082 A 
HETATM   31  C23 UNK     1      16.124  12.988  35.507  1.00  0.00     0.038 A 
HETATM   32  C26 UNK     1      16.956  14.026  35.086  1.00  0.00     0.003 A 
HETATM   33  C25 UNK     1      18.023  13.762  34.228  1.00  0.00     0.001 A 
HETATM   34  C22 UNK     1      18.259  12.459  33.790  1.00  0.00     0.018 A 
BRANCH  30  35
HETATM   35  O5  UNK     1      15.532  10.689  35.494  1.00  0.00    -0.355 OA
HETATM   36  C28 UNK     1      14.230  11.073  35.929  1.00  0.00     0.210 C 
ENDBRANCH  30  35
ENDBRANCH  27  29
ENDBRANCH  22  23
ENDBRANCH   2  22
TORSDOF 8
ENDMDL
MODEL 5
REMARK VINA RESULT:      -9.0      4.145      7.680
REMARK  8 active torsions:
REMARK  status: ('A' for Active; 'I' for Inactive)
REMARK    1  A    between atoms: C18_26  and  O3_3 
REMARK    2  A    between atoms: C24_32  and  O3_3 
REMARK    3  A    between atoms: C21_29  and  O5_5 
REMARK    4  A    between atoms: C5_13  and  N1_6 
REMARK    5  A    between atoms: C6_14  and  N2_7 
REMARK    6  A    between atoms: C5_13  and  C7_15 
REMARK    7  A    between atoms: C6_14  and  C8_16 
REMARK    8  A    between atoms: C14_22  and  C19_27 
ROOT
HETATM    1  N1  UNK     1      18.434   1.688  33.962  1.00  0.00     0.096 N 
HETATM    2  N2  UNK     1      18.617   4.571  33.844  1.00  0.00     0.097 N 
HETATM    3  C1  UNK     1      17.833   2.445  32.857  1.00  0.00     0.303 C 
HETATM    4  C2  UNK     1      18.460   2.500  35.184  1.00  0.00     0.303 C 
HETATM    5  C3  UNK     1      18.588   3.758  32.621  1.00  0.00     0.303 C 
HETATM    6  C4  UNK     1      19.216   3.813  34.950  1.00  0.00     0.303 C 
ENDROOT
BRANCH   1   7
HETATM    7  C5  UNK     1      17.713   0.437  34.186  1.00  0.00     0.312 C 
BRANCH   7   8
HETATM    8  C7  UNK     1      18.635  -0.715  34.392  1.00  0.00    -0.011 A 
HETATM    9  C11 UNK     1      18.834  -1.233  35.611  1.00  0.00     0.092 A 
HETATM   10  C15 UNK     1      19.736  -2.370  35.864  1.00  0.00     0.288 A 
HETATM   11  O2  UNK     1      20.391  -2.902  34.763  1.00  0.00    -0.275 OA
HETATM   12  O4  UNK     1      19.893  -2.818  36.994  1.00  0.00    -0.260 OA
HETATM   13  C12 UNK     1      20.202  -2.377  33.469  1.00  0.00     0.090 A 
HETATM   14  C9  UNK     1      19.345  -1.299  33.245  1.00  0.00     0.009 A 
HETATM   15  C17 UNK     1      20.914  -2.991  32.437  1.00  0.00     0.041 A 
HETATM   16  C13 UNK     1      19.213  -0.836  31.929  1.00  0.00     0.051 A 
HETATM   17  C18 UNK     1      19.920  -1.440  30.883  1.00  0.00     0.069 A 
HETATM   18  C20 UNK     1      20.769  -2.517  31.137  1.00  0.00     0.039 A 
BRANCH  17  19
HETATM   19  O3  UNK     1      19.778  -0.975  29.612  1.00  0.00    -0.351 OA
BRANCH  19  20
HETATM   20  C24 UNK     1      19.961   0.426  29.410  1.00  0.00     0.171 C 
HETATM   21  C27 UNK     1      18.704   1.002  28.794  1.00  0.00     0.034 C 
ENDBRANCH  19  20
ENDBRANCH  17  19
ENDBRANCH   7   8
ENDBRANCH   1   7
BRANCH   2  22
HETATM   22  C6  UNK     1      19.339   5.821  33.619  1.00  0.00     0.334 C 
BRANCH  22  23
HETATM   23  C8  UNK     1      18.362   6.902  33.285  1.00  0.00     0.095 A 
HETATM   24  C10 UNK     1      17.835   7.242  32.065  1.00  0.00     0.078 A 
HETATM   25  C16 UNK     1      17.985   6.742  30.694  1.00  0.00     0.079 C 
HETATM   26  O1  UNK     1      16.987   8.292  32.253  1.00  0.00    -0.294 OA
HETATM   27  C14 UNK     1      17.058   8.522  33.592  1.00  0.00     0.183 A 
HETATM   28  N3  UNK     1      17.861   7.726  34.261  1.00  0.00    -0.224 NA
BRANCH  27  29
HETATM   29  C19 UNK     1      16.241   9.603  34.072  1.00  0.00     0.051 A 
HETATM   30  C21 UNK     1      16.746  10.901  34.149  1.00  0.00     0.082 A 
HETATM   31  C23 UNK     1      15.938  11.937  34.617  1.00  0.00     0.038 A 
HETATM   32  C26 UNK     1      14.625  11.674  35.009  1.00  0.00     0.003 A 
HETATM   33  C25 UNK     1      14.120  10.376  34.933  1.00  0.00     0.001 A 
HETATM   34  C22 UNK     1      14.928   9.340  34.464  1.00  0.00     0.018 A 
BRANCH  30  35
HETATM   35  O5  UNK     1      18.025  11.186  33.773  1.00  0.00    -0.355 OA
HETATM   36  C28 UNK     1      18.395  12.561  33.726  1.00  0.00     0.210 C 
ENDBRANCH  30  35
ENDBRANCH  27  29
ENDBRANCH  22  23
ENDBRANCH   2  22
TORSDOF 8
ENDMDL
MODEL 6
REMARK VINA RESULT:      -9.0      1.421      2.248
REMARK  8 active torsions:
REMARK  status: ('A' for Active; 'I' for Inactive)
REMARK    1  A    between atoms: C18_26  and  O3_3 
REMARK    2  A    between atoms: C24_32  and  O3_3 
REMARK    3  A    between atoms: C21_29  and  O5_5 
REMARK    4  A    between atoms: C5_13  and  N1_6 
REMARK    5  A    between atoms: C6_14  and  N2_7 
REMARK    6  A    between atoms: C5_13  and  C7_15 
REMARK    7  A    between atoms: C6_14  and  C8_16 
REMARK    8  A    between atoms: C14_22  and  C19_27 
ROOT
HETATM    1  N1  UNK     1      19.632  -3.690  36.092  1.00  0.00     0.096 N 
HETATM    2  N2  UNK     1      19.281  -0.872  36.634  1.00  0.00     0.097 N 
HETATM    3  C1  UNK     1      19.820  -3.144  37.442  1.00  0.00     0.303 C 
HETATM    4  C2  UNK     1      19.949  -2.675  35.081  1.00  0.00     0.303 C 
HETATM    5  C3  UNK     1      18.966  -1.888  37.646  1.00  0.00     0.303 C 
HETATM    6  C4  UNK     1      19.095  -1.418  35.284  1.00  0.00     0.303 C 
ENDROOT
BRANCH   1   7
HETATM    7  C5  UNK     1      20.447  -4.887  35.898  1.00  0.00     0.312 C 
BRANCH   7   8
HETATM    8  C7  UNK     1      19.687  -6.137  36.183  1.00  0.00    -0.011 A 
HETATM    9  C11 UNK     1      18.609  -6.471  35.462  1.00  0.00     0.092 A 
HETATM   10  C15 UNK     1      17.827  -7.696  35.707  1.00  0.00     0.288 A 
HETATM   11  O2  UNK     1      18.259  -8.514  36.739  1.00  0.00    -0.275 OA
HETATM   12  O4  UNK     1      16.845  -7.970  35.026  1.00  0.00    -0.260 OA
HETATM   13  C12 UNK     1      19.389  -8.188  37.515  1.00  0.00     0.090 A 
HETATM   14  C9  UNK     1      20.120  -7.024  37.272  1.00  0.00     0.009 A 
HETATM   15  C17 UNK     1      19.730  -9.085  38.529  1.00  0.00     0.041 A 
HETATM   16  C13 UNK     1      21.230  -6.771  38.089  1.00  0.00     0.051 A 
HETATM   17  C18 UNK     1      21.585  -7.660  39.110  1.00  0.00     0.069 A 
HETATM   18  C20 UNK     1      20.837  -8.816  39.329  1.00  0.00     0.039 A 
BRANCH  17  19
HETATM   19  O3  UNK     1      22.667  -7.396  39.892  1.00  0.00    -0.351 OA
BRANCH  19  20
HETATM   20  C24 UNK     1      23.806  -6.822  39.251  1.00  0.00     0.171 C 
HETATM   21  C27 UNK     1      24.752  -7.931  38.842  1.00  0.00     0.034 C 
ENDBRANCH  19  20
ENDBRANCH  17  19
ENDBRANCH   7   8
ENDBRANCH   1   7
BRANCH   2  22
HETATM   22  C6  UNK     1      18.464   0.325  36.828  1.00  0.00     0.334 C 
BRANCH  22  23
HETATM   23  C8  UNK     1      17.985   0.816  35.500  1.00  0.00     0.095 A 
HETATM   24  C10 UNK     1      16.782   0.595  34.880  1.00  0.00     0.078 A 
HETATM   25  C16 UNK     1      15.562  -0.147  35.217  1.00  0.00     0.079 C 
HETATM   26  O1  UNK     1      16.802   1.245  33.682  1.00  0.00    -0.294 OA
HETATM   27  C14 UNK     1      18.032   1.825  33.656  1.00  0.00     0.183 A 
HETATM   28  N3  UNK     1      18.783   1.606  34.711  1.00  0.00    -0.224 NA
BRANCH  27  29
HETATM   29  C19 UNK     1      18.322   2.591  32.475  1.00  0.00     0.051 A 
HETATM   30  C21 UNK     1      18.335   3.985  32.511  1.00  0.00     0.082 A 
HETATM   31  C23 UNK     1      18.619   4.710  31.354  1.00  0.00     0.038 A 
HETATM   32  C26 UNK     1      18.890   4.040  30.160  1.00  0.00     0.003 A 
HETATM   33  C25 UNK     1      18.877   2.646  30.124  1.00  0.00     0.001 A 
HETATM   34  C22 UNK     1      18.594   1.921  31.281  1.00  0.00     0.018 A 
BRANCH  30  35
HETATM   35  O5  UNK     1      18.073   4.665  33.664  1.00  0.00    -0.355 OA
HETATM   36  C28 UNK     1      18.857   5.826  33.923  1.00  0.00     0.210 C 
ENDBRANCH  30  35
ENDBRANCH  27  29
ENDBRANCH  22  23
ENDBRANCH   2  22
TORSDOF 8
ENDMDL
MODEL 7
REMARK VINA RESULT:      -8.9     27.026     30.591
REMARK  8 active torsions:
REMARK  status: ('A' for Active; 'I' for Inactive)
REMARK    1  A    between atoms: C18_26  and  O3_3 
REMARK    2  A    between atoms: C24_32  and  O3_3 
REMARK    3  A    between atoms: C21_29  and  O5_5 
REMARK    4  A    between atoms: C5_13  and  N1_6 
REMARK    5  A    between atoms: C6_14  and  N2_7 
REMARK    6  A    between atoms: C5_13  and  C7_15 
REMARK    7  A    between atoms: C6_14  and  C8_16 
REMARK    8  A    between atoms: C14_22  and  C19_27 
ROOT
HETATM    1  N1  UNK     1      17.138  11.055  10.207  1.00  0.00     0.096 N 
HETATM    2  N2  UNK     1      15.274   8.857  10.439  1.00  0.00     0.097 N 
HETATM    3  C1  UNK     1      15.762  11.269  10.671  1.00  0.00     0.303 C 
HETATM    4  C2  UNK     1      17.198   9.906   9.296  1.00  0.00     0.303 C 
HETATM    5  C3  UNK     1      15.213  10.008  11.348  1.00  0.00     0.303 C 
HETATM    6  C4  UNK     1      16.650   8.645   9.972  1.00  0.00     0.303 C 
ENDROOT
BRANCH   1   7
HETATM    7  C5  UNK     1      17.660  12.257   9.560  1.00  0.00     0.312 C 
BRANCH   7   8
HETATM    8  C7  UNK     1      19.147  12.327   9.618  1.00  0.00    -0.011 A 
HETATM    9  C11 UNK     1      19.817  11.930  10.708  1.00  0.00     0.092 A 
HETATM   10  C15 UNK     1      21.286  11.980  10.810  1.00  0.00     0.288 A 
HETATM   11  O2  UNK     1      21.970  12.467   9.708  1.00  0.00    -0.275 OA
HETATM   12  O4  UNK     1      21.865  11.609  11.825  1.00  0.00    -0.260 OA
HETATM   13  C12 UNK     1      21.293  12.892   8.548  1.00  0.00     0.090 A 
HETATM   14  C9  UNK     1      19.901  12.839   8.465  1.00  0.00     0.009 A 
HETATM   15  C17 UNK     1      22.085  13.365   7.500  1.00  0.00     0.041 A 
HETATM   16  C13 UNK     1      19.303  13.282   7.277  1.00  0.00     0.051 A 
HETATM   17  C18 UNK     1      20.083  13.759   6.218  1.00  0.00     0.069 A 
HETATM   18  C20 UNK     1      21.472  13.799   6.328  1.00  0.00     0.039 A 
BRANCH  17  19
HETATM   19  O3  UNK     1      19.483  14.184   5.073  1.00  0.00    -0.351 OA
BRANCH  19  20
HETATM   20  C24 UNK     1      18.175  14.743   5.195  1.00  0.00     0.171 C 
HETATM   21  C27 UNK     1      18.284  16.253   5.211  1.00  0.00     0.034 C 
ENDBRANCH  19  20
ENDBRANCH  17  19
ENDBRANCH   7   8
ENDBRANCH   1   7
BRANCH   2  22
HETATM   22  C6  UNK     1      14.754   7.655  11.086  1.00  0.00     0.334 C 
BRANCH  22  23
HETATM   23  C8  UNK     1      13.957   6.867  10.097  1.00  0.00     0.095 A 
HETATM   24  C10 UNK     1      14.197   5.612   9.599  1.00  0.00     0.078 A 
HETATM   25  C16 UNK     1      15.237   4.597   9.801  1.00  0.00     0.079 C 
HETATM   26  O1  UNK     1      13.198   5.310   8.723  1.00  0.00    -0.294 OA
HETATM   27  C14 UNK     1      12.407   6.417   8.749  1.00  0.00     0.183 A 
HETATM   28  N3  UNK     1      12.808   7.379   9.549  1.00  0.00    -0.224 NA
BRANCH  27  29
HETATM   29  C19 UNK     1      11.253   6.365   7.895  1.00  0.00     0.051 A 
HETATM   30  C21 UNK     1       9.995   6.051   8.410  1.00  0.00     0.082 A 
HETATM   31  C23 UNK     1       8.886   6.005   7.565  1.00  0.00     0.038 A 
HETATM   32  C26 UNK     1       9.036   6.273   6.204  1.00  0.00     0.003 A 
HETATM   33  C25 UNK     1      10.293   6.587   5.688  1.00  0.00     0.001 A 
HETATM   34  C22 UNK     1      11.402   6.633   6.534  1.00  0.00     0.018 A 
BRANCH  30  35
HETATM   35  O5  UNK     1       9.821   5.784   9.736  1.00  0.00    -0.355 OA
HETATM   36  C28 UNK     1       9.216   4.537  10.070  1.00  0.00     0.210 C 
ENDBRANCH  30  35
ENDBRANCH  27  29
ENDBRANCH  22  23
ENDBRANCH   2  22
TORSDOF 8
ENDMDL
MODEL 8
REMARK VINA RESULT:      -8.9      1.688      2.826
REMARK  8 active torsions:
REMARK  status: ('A' for Active; 'I' for Inactive)
REMARK    1  A    between atoms: C18_26  and  O3_3 
REMARK    2  A    between atoms: C24_32  and  O3_3 
REMARK    3  A    between atoms: C21_29  and  O5_5 
REMARK    4  A    between atoms: C5_13  and  N1_6 
REMARK    5  A    between atoms: C6_14  and  N2_7 
REMARK    6  A    between atoms: C5_13  and  C7_15 
REMARK    7  A    between atoms: C6_14  and  C8_16 
REMARK    8  A    between atoms: C14_22  and  C19_27 
ROOT
HETATM    1  N1  UNK     1      19.388  -2.906  36.686  1.00  0.00     0.096 N 
HETATM    2  N2  UNK     1      18.513  -0.213  36.104  1.00  0.00     0.097 N 
HETATM    3  C1  UNK     1      18.771  -2.065  37.720  1.00  0.00     0.303 C 
HETATM    4  C2  UNK     1      20.087  -2.075  35.699  1.00  0.00     0.303 C 
HETATM    5  C3  UNK     1      17.815  -1.044  37.093  1.00  0.00     0.303 C 
HETATM    6  C4  UNK     1      19.131  -1.054  35.072  1.00  0.00     0.303 C 
ENDROOT
BRANCH   1   7
HETATM    7  C5  UNK     1      20.300  -3.878  37.285  1.00  0.00     0.312 C 
BRANCH   7   8
HETATM    8  C7  UNK     1      19.864  -5.282  37.044  1.00  0.00    -0.011 A 
HETATM    9  C11 UNK     1      18.685  -5.551  36.468  1.00  0.00     0.092 A 
HETATM   10  C15 UNK     1      18.211  -6.922  36.210  1.00  0.00     0.288 A 
HETATM   11  O2  UNK     1      19.053  -7.954  36.595  1.00  0.00    -0.275 OA
HETATM   12  O4  UNK     1      17.125  -7.131  35.680  1.00  0.00    -0.260 OA
HETATM   13  C12 UNK     1      20.298  -7.702  37.204  1.00  0.00     0.090 A 
HETATM   14  C9  UNK     1      20.734  -6.398  37.442  1.00  0.00     0.009 A 
HETATM   15  C17 UNK     1      21.062  -8.818  37.550  1.00  0.00     0.041 A 
HETATM   16  C13 UNK     1      21.984  -6.231  38.053  1.00  0.00     0.051 A 
HETATM   17  C18 UNK     1      22.761  -7.340  38.407  1.00  0.00     0.069 A 
HETATM   18  C20 UNK     1      22.301  -8.632  38.155  1.00  0.00     0.039 A 
BRANCH  17  19
HETATM   19  O3  UNK     1      23.973  -7.157  38.999  1.00  0.00    -0.351 OA
BRANCH  19  20
HETATM   20  C24 UNK     1      25.003  -8.089  38.671  1.00  0.00     0.171 C 
HETATM   21  C27 UNK     1      26.334  -7.369  38.664  1.00  0.00     0.034 C 
ENDBRANCH  19  20
ENDBRANCH  17  19
ENDBRANCH   7   8
ENDBRANCH   1   7
BRANCH   2  22
HETATM   22  C6  UNK     1      17.599   0.758  35.505  1.00  0.00     0.334 C 
BRANCH  22  23
HETATM   23  C8  UNK     1      18.095   1.127  34.144  1.00  0.00     0.095 A 
HETATM   24  C10 UNK     1      18.335   2.371  33.620  1.00  0.00     0.078 A 
HETATM   25  C16 UNK     1      18.221   3.746  34.119  1.00  0.00     0.079 C 
HETATM   26  O1  UNK     1      18.778   2.211  32.341  1.00  0.00    -0.294 OA
HETATM   27  C14 UNK     1      18.777   0.860  32.173  1.00  0.00     0.183 A 
HETATM   28  N3  UNK     1      18.380   0.161  33.211  1.00  0.00    -0.224 NA
BRANCH  27  29
HETATM   29  C19 UNK     1      19.211   0.405  30.881  1.00  0.00     0.051 A 
HETATM   30  C21 UNK     1      20.273  -0.491  30.757  1.00  0.00     0.082 A 
HETATM   31  C23 UNK     1      20.680  -0.920  29.494  1.00  0.00     0.038 A 
HETATM   32  C26 UNK     1      20.024  -0.455  28.354  1.00  0.00     0.003 A 
HETATM   33  C25 UNK     1      18.961   0.440  28.477  1.00  0.00     0.001 A 
HETATM   34  C22 UNK     1      18.555   0.870  29.741  1.00  0.00     0.018 A 
BRANCH  30  35
HETATM   35  O5  UNK     1      20.933  -0.961  31.854  1.00  0.00    -0.355 OA
HETATM   36  C28 UNK     1      20.915  -2.370  32.065  1.00  0.00     0.210 C 
ENDBRANCH  30  35
ENDBRANCH  27  29
ENDBRANCH  22  23
ENDBRANCH   2  22
TORSDOF 8
ENDMDL
MODEL 9
REMARK VINA RESULT:      -8.8      9.180     12.813
REMARK  8 active torsions:
REMARK  status: ('A' for Active; 'I' for Inactive)
REMARK    1  A    between atoms: C18_26  and  O3_3 
REMARK    2  A    between atoms: C24_32  and  O3_3 
REMARK    3  A    between atoms: C21_29  and  O5_5 
REMARK    4  A    between atoms: C5_13  and  N1_6 
REMARK    5  A    between atoms: C6_14  and  N2_7 
REMARK    6  A    between atoms: C5_13  and  C7_15 
REMARK    7  A    between atoms: C6_14  and  C8_16 
REMARK    8  A    between atoms: C14_22  and  C19_27 
ROOT
HETATM    1  N1  UNK     1      29.202  -7.306  34.263  1.00  0.00     0.096 N 
HETATM    2  N2  UNK     1      28.833  -7.137  37.125  1.00  0.00     0.097 N 
HETATM    3  C1  UNK     1      28.446  -8.329  34.996  1.00  0.00     0.303 C 
HETATM    4  C2  UNK     1      30.226  -6.709  35.129  1.00  0.00     0.303 C 
HETATM    5  C3  UNK     1      27.811  -7.738  36.259  1.00  0.00     0.303 C 
HETATM    6  C4  UNK     1      29.592  -6.116  36.393  1.00  0.00     0.303 C 
ENDROOT
BRANCH   1   7
HETATM    7  C5  UNK     1      29.808  -7.872  33.059  1.00  0.00     0.312 C 
BRANCH   7   8
HETATM    8  C7  UNK     1      28.852  -7.918  31.917  1.00  0.00    -0.011 A 
HETATM    9  C11 UNK     1      27.786  -7.107  31.873  1.00  0.00     0.092 A 
HETATM   10  C15 UNK     1      26.815  -7.117  30.766  1.00  0.00     0.288 A 
HETATM   11  O2  UNK     1      27.048  -8.021  29.741  1.00  0.00    -0.275 OA
HETATM   12  O4  UNK     1      25.850  -6.360  30.759  1.00  0.00    -0.260 OA
HETATM   13  C12 UNK     1      28.160  -8.887  29.760  1.00  0.00     0.090 A 
HETATM   14  C9  UNK     1      29.072  -8.867  30.817  1.00  0.00     0.009 A 
HETATM   15  C17 UNK     1      28.294  -9.756  28.676  1.00  0.00     0.041 A 
HETATM   16  C13 UNK     1      30.150  -9.760  30.762  1.00  0.00     0.051 A 
HETATM   17  C18 UNK     1      30.298 -10.638  29.682  1.00  0.00     0.069 A 
HETATM   18  C20 UNK     1      29.372 -10.635  28.640  1.00  0.00     0.039 A 
BRANCH  17  19
HETATM   19  O3  UNK     1      31.352 -11.498  29.647  1.00  0.00    -0.351 OA
BRANCH  19  20
HETATM   20  C24 UNK     1      31.468 -12.425  30.726  1.00  0.00     0.171 C 
HETATM   21  C27 UNK     1      30.376 -13.466  30.599  1.00  0.00     0.034 C 
ENDBRANCH  19  20
ENDBRANCH  17  19
ENDBRANCH   7   8
ENDBRANCH   1   7
BRANCH   2  22
HETATM   22  C6  UNK     1      28.227  -6.571  38.328  1.00  0.00     0.334 C 
BRANCH  22  23
HETATM   23  C8  UNK     1      26.991  -7.340  38.667  1.00  0.00     0.095 A 
HETATM   24  C10 UNK     1      26.874  -8.564  39.275  1.00  0.00     0.078 A 
HETATM   25  C16 UNK     1      27.820  -9.552  39.807  1.00  0.00     0.079 C 
HETATM   26  O1  UNK     1      25.548  -8.860  39.373  1.00  0.00    -0.294 OA
HETATM   27  C14 UNK     1      24.940  -7.781  38.809  1.00  0.00     0.183 A 
HETATM   28  N3  UNK     1      25.747  -6.842  38.370  1.00  0.00    -0.224 NA
BRANCH  27  29
HETATM   29  C19 UNK     1      23.504  -7.834  38.780  1.00  0.00     0.051 A 
HETATM   30  C21 UNK     1      22.834  -8.563  37.798  1.00  0.00     0.082 A 
HETATM   31  C23 UNK     1      21.440  -8.601  37.787  1.00  0.00     0.038 A 
HETATM   32  C26 UNK     1      20.715  -7.909  38.759  1.00  0.00     0.003 A 
HETATM   33  C25 UNK     1      21.385  -7.180  39.741  1.00  0.00     0.001 A 
HETATM   34  C22 UNK     1      22.779  -7.142  39.752  1.00  0.00     0.018 A 
BRANCH  30  35
HETATM   35  O5  UNK     1      23.517  -9.246  36.836  1.00  0.00    -0.355 OA
HETATM   36  C28 UNK     1      22.765 -10.146  36.026  1.00  0.00     0.210 C 
ENDBRANCH  30  35
ENDBRANCH  27  29
ENDBRANCH  22  23
ENDBRANCH   2  22
TORSDOF 8
ENDMDL
MODEL 10
REMARK VINA RESULT:      -8.8      3.073     11.603
REMARK  8 active torsions:
REMARK  status: ('A' for Active; 'I' for Inactive)
REMARK    1  A    between atoms: C18_26  and  O3_3 
REMARK    2  A    between atoms: C24_32  and  O3_3 
REMARK    3  A    between atoms: C21_29  and  O5_5 
REMARK    4  A    between atoms: C5_13  and  N1_6 
REMARK    5  A    between atoms: C6_14  and  N2_7 
REMARK    6  A    between atoms: C5_13  and  C7_15 
REMARK    7  A    between atoms: C6_14  and  C8_16 
REMARK    8  A    between atoms: C14_22  and  C19_27 
ROOT
HETATM    1  N1  UNK     1      19.457  -3.939  36.756  1.00  0.00     0.096 N 
HETATM    2  N2  UNK     1      21.026  -6.129  37.805  1.00  0.00     0.097 N 
HETATM    3  C1  UNK     1      19.007  -5.330  36.626  1.00  0.00     0.303 C 
HETATM    4  C2  UNK     1      20.923  -3.877  36.791  1.00  0.00     0.303 C 
HETATM    5  C3  UNK     1      19.560  -6.192  37.766  1.00  0.00     0.303 C 
HETATM    6  C4  UNK     1      21.478  -4.738  37.932  1.00  0.00     0.303 C 
ENDROOT
BRANCH   1   7
HETATM    7  C5  UNK     1      18.930  -3.119  35.667  1.00  0.00     0.312 C 
BRANCH   7   8
HETATM    8  C7  UNK     1      18.642  -1.724  36.103  1.00  0.00    -0.011 A 
HETATM    9  C11 UNK     1      18.463  -1.425  37.396  1.00  0.00     0.092 A 
HETATM   10  C15 UNK     1      18.176  -0.061  37.873  1.00  0.00     0.288 A 
HETATM   11  O2  UNK     1      18.096   0.932  36.909  1.00  0.00    -0.275 OA
HETATM   12  O4  UNK     1      18.018   0.175  39.066  1.00  0.00    -0.260 OA
HETATM   13  C12 UNK     1      18.279   0.648  35.541  1.00  0.00     0.090 A 
HETATM   14  C9  UNK     1      18.549  -0.650  35.103  1.00  0.00     0.009 A 
HETATM   15  C17 UNK     1      18.174   1.725  34.660  1.00  0.00     0.041 A 
HETATM   16  C13 UNK     1      18.717  -0.850  33.727  1.00  0.00     0.051 A 
HETATM   17  C18 UNK     1      18.615   0.220  32.830  1.00  0.00     0.069 A 
HETATM   18  C20 UNK     1      18.345   1.506  33.296  1.00  0.00     0.039 A 
BRANCH  17  19
HETATM   19  O3  UNK     1      18.781   0.005  31.497  1.00  0.00    -0.351 OA
BRANCH  19  20
HETATM   20  C24 UNK     1      19.907  -0.778  31.102  1.00  0.00     0.171 C 
HETATM   21  C27 UNK     1      20.514  -0.174  29.853  1.00  0.00     0.034 C 
ENDBRANCH  19  20
ENDBRANCH  17  19
ENDBRANCH   7   8
ENDBRANCH   1   7
BRANCH   2  22
HETATM   22  C6  UNK     1      21.553  -6.948  38.894  1.00  0.00     0.334 C 
BRANCH  22  23
HETATM   23  C8  UNK     1      22.794  -7.643  38.434  1.00  0.00     0.095 A 
HETATM   24  C10 UNK     1      22.972  -8.466  37.352  1.00  0.00     0.078 A 
HETATM   25  C16 UNK     1      22.107  -8.973  36.280  1.00  0.00     0.079 C 
HETATM   26  O1  UNK     1      24.276  -8.863  37.336  1.00  0.00    -0.294 OA
HETATM   27  C14 UNK     1      24.808  -8.245  38.425  1.00  0.00     0.183 A 
HETATM   28  N3  UNK     1      23.974  -7.504  39.119  1.00  0.00    -0.224 NA
BRANCH  27  29
HETATM   29  C19 UNK     1      26.205  -8.498  38.650  1.00  0.00     0.051 A 
HETATM   30  C21 UNK     1      27.168  -7.546  38.316  1.00  0.00     0.082 A 
HETATM   31  C23 UNK     1      28.519  -7.811  38.542  1.00  0.00     0.038 A 
HETATM   32  C26 UNK     1      28.906  -9.029  39.102  1.00  0.00     0.003 A 
HETATM   33  C25 UNK     1      27.943  -9.981  39.436  1.00  0.00     0.001 A 
HETATM   34  C22 UNK     1      26.592  -9.716  39.210  1.00  0.00     0.018 A 
BRANCH  30  35
HETATM   35  O5  UNK     1      26.817  -6.349  37.766  1.00  0.00    -0.355 OA
HETATM   36  C28 UNK     1      26.969  -5.192  38.585  1.00  0.00     0.210 C 
ENDBRANCH  30  35
ENDBRANCH  27  29
ENDBRANCH  22  23
ENDBRANCH   2  22
TORSDOF 8
ENDMDL
