MODEL 1
REMARK VINA RESULT:      -8.6      0.000      0.000
REMARK  5 active torsions:
REMARK  status: ('A' for Active; 'I' for Inactive)
REMARK    1  A    between atoms: C16_22  and  O2_3 
REMARK    2  A    between atoms: C14_20  and  N1_5 
REMARK    3  A    between atoms: C4_10  and  N1_5 
REMARK    4  A    between atoms: C14_20  and  N2_6 
REMARK    5  A    between atoms: C8_14  and  N2_6 
ROOT
HETATM    1  N1  UNK     1      19.163   3.860  29.839  1.00  0.00    -0.333 N 
HETATM    2  H4  UNK     1      19.683   4.164  29.017  1.00  0.00     0.168 HD
ENDROOT
BRANCH   1   3
HETATM    3  C14 UNK     1      18.867   2.490  29.825  1.00  0.00     0.176 C 
HETATM    4  S1  UNK     1      17.848   1.930  28.604  1.00  0.00    -0.041 SA
BRANCH   3   5
HETATM    5  N2  UNK     1      19.542   1.719  30.754  1.00  0.00    -0.333 N 
HETATM    6  H9  UNK     1      20.410   1.340  30.399  1.00  0.00     0.168 HD
BRANCH   5   7
HETATM    7  C8  UNK     1      19.074   0.990  31.876  1.00  0.00     0.040 A 
HETATM    8  C13 UNK     1      18.475   1.688  32.912  1.00  0.00     0.033 A 
HETATM    9  C17 UNK     1      18.010   0.989  34.026  1.00  0.00     0.039 A 
HETATM   10  C16 UNK     1      18.150  -0.398  34.086  1.00  0.00     0.068 A 
HETATM   11  C12 UNK     1      18.754  -1.085  33.034  1.00  0.00     0.045 A 
HETATM   12  C9  UNK     1      19.220  -0.386  31.921  1.00  0.00    -0.033 A 
HETATM   13  C18 UNK     1      19.864  -1.148  30.808  1.00  0.00     0.050 C 
BRANCH  10  14
HETATM   14  O2  UNK     1      17.695  -1.079  35.174  1.00  0.00    -0.356 OA
HETATM   15  C19 UNK     1      16.286  -1.080  35.398  1.00  0.00     0.210 C 
ENDBRANCH  10  14
ENDBRANCH   5   7
ENDBRANCH   3   5
ENDBRANCH   1   3
BRANCH   1  16
HETATM   16  C4  UNK     1      19.065   4.826  30.841  1.00  0.00     0.036 A 
HETATM   17  C5  UNK     1      17.831   5.112  31.416  1.00  0.00     0.067 A 
HETATM   18  C2  UNK     1      17.755   6.081  32.417  1.00  0.00     0.092 A 
HETATM   19  C1  UNK     1      18.878   6.779  32.866  1.00  0.00     0.004 A 
HETATM   20  O1  UNK     1      16.478   6.327  32.962  1.00  0.00    -0.275 OA
HETATM   21  C3  UNK     1      18.705   7.782  33.924  1.00  0.00    -0.043 A 
HETATM   22  C6  UNK     1      20.111   6.476  32.273  1.00  0.00     0.017 A 
HETATM   23  C10 UNK     1      17.479   7.996  34.423  1.00  0.00     0.090 A 
HETATM   24  C11 UNK     1      19.893   8.550  34.429  1.00  0.00     0.049 C 
HETATM   25  C15 UNK     1      16.286   7.268  33.961  1.00  0.00     0.288 A 
HETATM   26  O3  UNK     1      15.179   7.489  34.442  1.00  0.00    -0.260 OA
HETATM   27  C7  UNK     1      20.203   5.507  31.268  1.00  0.00     0.030 A 
ENDBRANCH   1  16
TORSDOF 5
ENDMDL
MODEL 2
REMARK VINA RESULT:      -8.4      7.066     12.437
REMARK  5 active torsions:
REMARK  status: ('A' for Active; 'I' for Inactive)
REMARK    1  A    between atoms: C16_22  and  O2_3 
REMARK    2  A    between atoms: C14_20  and  N1_5 
REMARK    3  A    between atoms: C4_10  and  N1_5 
REMARK    4  A    between atoms: C14_20  and  N2_6 
REMARK    5  A    between atoms: C8_14  and  N2_6 
ROOT
HETATM    1  N1  UNK     1      19.356  -4.838  35.668  1.00  0.00    -0.333 N 
HETATM    2  H4  UNK     1      18.635  -4.720  34.957  1.00  0.00     0.168 HD
ENDROOT
BRANCH   1   3
HETATM    3  C14 UNK     1      19.824  -3.621  36.183  1.00  0.00     0.176 C 
HETATM    4  S1  UNK     1      20.895  -3.690  37.482  1.00  0.00    -0.041 SA
BRANCH   3   5
HETATM    5  N2  UNK     1      19.443  -2.488  35.487  1.00  0.00    -0.333 N 
HETATM    6  H9  UNK     1      18.629  -2.035  35.883  1.00  0.00     0.168 HD
BRANCH   5   7
HETATM    7  C8  UNK     1      19.644  -2.112  34.136  1.00  0.00     0.040 A 
HETATM    8  C13 UNK     1      20.701  -2.681  33.444  1.00  0.00     0.033 A 
HETATM    9  C17 UNK     1      20.916  -2.323  32.113  1.00  0.00     0.039 A 
HETATM   10  C16 UNK     1      20.071  -1.403  31.493  1.00  0.00     0.068 A 
HETATM   11  C12 UNK     1      19.011  -0.840  32.203  1.00  0.00     0.045 A 
HETATM   12  C9  UNK     1      18.796  -1.198  33.534  1.00  0.00    -0.033 A 
HETATM   13  C18 UNK     1      17.653  -0.578  34.271  1.00  0.00     0.050 C 
BRANCH  10  14
HETATM   14  O2  UNK     1      20.282  -1.055  30.194  1.00  0.00    -0.356 OA
HETATM   15  C19 UNK     1      19.829   0.235  29.785  1.00  0.00     0.210 C 
ENDBRANCH  10  14
ENDBRANCH   5   7
ENDBRANCH   3   5
ENDBRANCH   1   3
BRANCH   1  16
HETATM   16  C4  UNK     1      19.536  -6.157  36.083  1.00  0.00     0.036 A 
HETATM   17  C5  UNK     1      20.444  -6.979  35.422  1.00  0.00     0.067 A 
HETATM   18  C2  UNK     1      20.609  -8.296  35.854  1.00  0.00     0.092 A 
HETATM   19  C1  UNK     1      19.893  -8.823  36.930  1.00  0.00     0.004 A 
HETATM   20  O1  UNK     1      21.542  -9.079  35.145  1.00  0.00    -0.275 OA
HETATM   21  C3  UNK     1      20.132 -10.220  37.316  1.00  0.00    -0.043 A 
HETATM   22  C6  UNK     1      18.984  -7.979  37.582  1.00  0.00     0.017 A 
HETATM   23  C10 UNK     1      21.024 -10.942  36.624  1.00  0.00     0.090 A 
HETATM   24  C11 UNK     1      19.378 -10.817  38.470  1.00  0.00     0.049 C 
HETATM   25  C15 UNK     1      21.787 -10.401  35.487  1.00  0.00     0.288 A 
HETATM   26  O3  UNK     1      22.597 -11.090  34.877  1.00  0.00    -0.260 OA
HETATM   27  C7  UNK     1      18.807  -6.656  37.161  1.00  0.00     0.030 A 
ENDBRANCH   1  16
TORSDOF 5
ENDMDL
MODEL 3
REMARK VINA RESULT:      -8.4      6.389     11.471
REMARK  5 active torsions:
REMARK  status: ('A' for Active; 'I' for Inactive)
REMARK    1  A    between atoms: C16_22  and  O2_3 
REMARK    2  A    between atoms: C14_20  and  N1_5 
REMARK    3  A    between atoms: C4_10  and  N1_5 
REMARK    4  A    between atoms: C14_20  and  N2_6 
REMARK    5  A    between atoms: C8_14  and  N2_6 
ROOT
HETATM    1  N1  UNK     1      18.733  -3.859  36.396  1.00  0.00    -0.333 N 
HETATM    2  H4  UNK     1      17.759  -4.147  36.326  1.00  0.00     0.168 HD
ENDROOT
BRANCH   1   3
HETATM    3  C14 UNK     1      18.893  -2.467  36.432  1.00  0.00     0.176 C 
HETATM    4  S1  UNK     1      18.040  -1.619  37.614  1.00  0.00    -0.041 SA
BRANCH   3   5
HETATM    5  N2  UNK     1      19.832  -1.946  35.560  1.00  0.00    -0.333 N 
HETATM    6  H9  UNK     1      20.356  -1.176  35.956  1.00  0.00     0.168 HD
BRANCH   5   7
HETATM    7  C8  UNK     1      19.887  -1.942  34.144  1.00  0.00     0.040 A 
HETATM    8  C13 UNK     1      20.809  -2.766  33.518  1.00  0.00     0.033 A 
HETATM    9  C17 UNK     1      20.880  -2.775  32.125  1.00  0.00     0.039 A 
HETATM   10  C16 UNK     1      20.028  -1.961  31.379  1.00  0.00     0.068 A 
HETATM   11  C12 UNK     1      19.106  -1.139  32.024  1.00  0.00     0.045 A 
HETATM   12  C9  UNK     1      19.035  -1.129  33.417  1.00  0.00    -0.033 A 
HETATM   13  C18 UNK     1      18.037  -0.237  34.082  1.00  0.00     0.050 C 
BRANCH  10  14
HETATM   14  O2  UNK     1      20.098  -1.971  30.019  1.00  0.00    -0.356 OA
HETATM   15  C19 UNK     1      20.491  -0.758  29.379  1.00  0.00     0.210 C 
ENDBRANCH  10  14
ENDBRANCH   5   7
ENDBRANCH   3   5
ENDBRANCH   1   3
BRANCH   1  16
HETATM   16  C4  UNK     1      19.620  -4.906  36.643  1.00  0.00     0.036 A 
HETATM   17  C5  UNK     1      19.733  -5.954  35.734  1.00  0.00     0.067 A 
HETATM   18  C2  UNK     1      20.627  -6.992  36.000  1.00  0.00     0.092 A 
HETATM   19  C1  UNK     1      21.418  -7.019  37.150  1.00  0.00     0.004 A 
HETATM   20  O1  UNK     1      20.697  -8.025  35.043  1.00  0.00    -0.275 OA
HETATM   21  C3  UNK     1      22.333  -8.151  37.348  1.00  0.00    -0.043 A 
HETATM   22  C6  UNK     1      21.290  -5.954  38.053  1.00  0.00     0.017 A 
HETATM   23  C10 UNK     1      22.378  -9.119  36.422  1.00  0.00     0.090 A 
HETATM   24  C11 UNK     1      23.197  -8.209  38.575  1.00  0.00     0.049 C 
HETATM   25  C15 UNK     1      21.551  -9.105  35.204  1.00  0.00     0.288 A 
HETATM   26  O3  UNK     1      21.620 -10.008  34.377  1.00  0.00    -0.260 OA
HETATM   27  C7  UNK     1      20.397  -4.906  37.800  1.00  0.00     0.030 A 
ENDBRANCH   1  16
TORSDOF 5
ENDMDL
MODEL 4
REMARK VINA RESULT:      -8.3      7.002     12.324
REMARK  5 active torsions:
REMARK  status: ('A' for Active; 'I' for Inactive)
REMARK    1  A    between atoms: C16_22  and  O2_3 
REMARK    2  A    between atoms: C14_20  and  N1_5 
REMARK    3  A    between atoms: C4_10  and  N1_5 
REMARK    4  A    between atoms: C14_20  and  N2_6 
REMARK    5  A    between atoms: C8_14  and  N2_6 
ROOT
HETATM    1  N1  UNK     1      18.836  -4.762  36.388  1.00  0.00    -0.333 N 
HETATM    2  H4  UNK     1      17.826  -4.705  36.510  1.00  0.00     0.168 HD
ENDROOT
BRANCH   1   3
HETATM    3  C14 UNK     1      19.478  -3.526  36.543  1.00  0.00     0.176 C 
HETATM    4  S1  UNK     1      20.790  -3.462  37.599  1.00  0.00    -0.041 SA
BRANCH   3   5
HETATM    5  N2  UNK     1      19.033  -2.508  35.718  1.00  0.00    -0.333 N 
HETATM    6  H9  UNK     1      18.101  -2.190  35.948  1.00  0.00     0.168 HD
BRANCH   5   7
HETATM    7  C8  UNK     1      19.389  -2.163  34.390  1.00  0.00     0.040 A 
HETATM    8  C13 UNK     1      20.492  -2.780  33.822  1.00  0.00     0.033 A 
HETATM    9  C17 UNK     1      20.860  -2.453  32.517  1.00  0.00     0.039 A 
HETATM   10  C16 UNK     1      20.119  -1.514  31.799  1.00  0.00     0.068 A 
HETATM   11  C12 UNK     1      19.012  -0.903  32.385  1.00  0.00     0.045 A 
HETATM   12  C9  UNK     1      18.644  -1.230  33.690  1.00  0.00    -0.033 A 
HETATM   13  C18 UNK     1      17.453  -0.559  34.294  1.00  0.00     0.050 C 
BRANCH  10  14
HETATM   14  O2  UNK     1      20.479  -1.196  30.525  1.00  0.00    -0.356 OA
HETATM   15  C19 UNK     1      20.282   0.156  30.112  1.00  0.00     0.210 C 
ENDBRANCH  10  14
ENDBRANCH   5   7
ENDBRANCH   3   5
ENDBRANCH   1   3
BRANCH   1  16
HETATM   16  C4  UNK     1      19.328  -6.064  36.304  1.00  0.00     0.036 A 
HETATM   17  C5  UNK     1      18.953  -7.013  37.250  1.00  0.00     0.067 A 
HETATM   18  C2  UNK     1      19.457  -8.311  37.147  1.00  0.00     0.092 A 
HETATM   19  C1  UNK     1      20.327  -8.695  36.126  1.00  0.00     0.004 A 
HETATM   20  O1  UNK     1      19.042  -9.228  38.135  1.00  0.00    -0.275 OA
HETATM   21  C3  UNK     1      20.807 -10.083  36.095  1.00  0.00    -0.043 A 
HETATM   22  C6  UNK     1      20.691  -7.724  35.183  1.00  0.00     0.017 A 
HETATM   23  C10 UNK     1      20.396 -10.933  37.047  1.00  0.00     0.090 A 
HETATM   24  C11 UNK     1      21.743 -10.528  35.009  1.00  0.00     0.049 C 
HETATM   25  C15 UNK     1      19.479 -10.544  38.131  1.00  0.00     0.288 A 
HETATM   26  O3  UNK     1      19.124 -11.349  38.985  1.00  0.00    -0.260 OA
HETATM   27  C7  UNK     1      20.195  -6.419  35.272  1.00  0.00     0.030 A 
ENDBRANCH   1  16
TORSDOF 5
ENDMDL
MODEL 5
REMARK VINA RESULT:      -8.2      2.432      8.220
REMARK  5 active torsions:
REMARK  status: ('A' for Active; 'I' for Inactive)
REMARK    1  A    between atoms: C16_22  and  O2_3 
REMARK    2  A    between atoms: C14_20  and  N1_5 
REMARK    3  A    between atoms: C4_10  and  N1_5 
REMARK    4  A    between atoms: C14_20  and  N2_6 
REMARK    5  A    between atoms: C8_14  and  N2_6 
ROOT
HETATM    1  N1  UNK     1      17.653   4.086  31.930  1.00  0.00    -0.333 N 
HETATM    2  H4  UNK     1      16.651   4.018  32.104  1.00  0.00     0.168 HD
ENDROOT
BRANCH   1   3
HETATM    3  C14 UNK     1      18.210   5.286  32.392  1.00  0.00     0.176 C 
HETATM    4  S1  UNK     1      19.581   5.860  31.597  1.00  0.00    -0.041 SA
BRANCH   3   5
HETATM    5  N2  UNK     1      17.499   5.937  33.385  1.00  0.00    -0.333 N 
HETATM    6  H9  UNK     1      17.017   5.302  34.007  1.00  0.00     0.168 HD
BRANCH   5   7
HETATM    7  C8  UNK     1      16.940   7.238  33.431  1.00  0.00     0.040 A 
HETATM    8  C13 UNK     1      15.712   7.449  32.825  1.00  0.00     0.033 A 
HETATM    9  C17 UNK     1      15.145   8.723  32.858  1.00  0.00     0.039 A 
HETATM   10  C16 UNK     1      15.814   9.767  33.496  1.00  0.00     0.068 A 
HETATM   11  C12 UNK     1      17.049   9.538  34.101  1.00  0.00     0.045 A 
HETATM   12  C9  UNK     1      17.616   8.264  34.068  1.00  0.00    -0.033 A 
HETATM   13  C18 UNK     1      18.942   8.048  34.724  1.00  0.00     0.050 C 
BRANCH  10  14
HETATM   14  O2  UNK     1      15.260  11.010  33.527  1.00  0.00    -0.356 OA
HETATM   15  C19 UNK     1      13.940  11.148  33.001  1.00  0.00     0.210 C 
ENDBRANCH  10  14
ENDBRANCH   5   7
ENDBRANCH   3   5
ENDBRANCH   1   3
BRANCH   1  16
HETATM   16  C4  UNK     1      18.233   2.903  31.474  1.00  0.00     0.036 A 
HETATM   17  C5  UNK     1      18.476   1.858  32.360  1.00  0.00     0.067 A 
HETATM   18  C2  UNK     1      19.057   0.682  31.883  1.00  0.00     0.092 A 
HETATM   19  C1  UNK     1      19.407   0.514  30.542  1.00  0.00     0.004 A 
HETATM   20  O1  UNK     1      19.278  -0.341  32.827  1.00  0.00    -0.275 OA
HETATM   21  C3  UNK     1      20.014  -0.757  30.127  1.00  0.00    -0.043 A 
HETATM   22  C6  UNK     1      19.154   1.579  29.666  1.00  0.00     0.017 A 
HETATM   23  C10 UNK     1      20.213  -1.712  31.047  1.00  0.00     0.090 A 
HETATM   24  C11 UNK     1      20.401  -0.970  28.692  1.00  0.00     0.049 C 
HETATM   25  C15 UNK     1      19.850  -1.551  32.464  1.00  0.00     0.288 A 
HETATM   26  O3  UNK     1      20.046  -2.447  33.278  1.00  0.00    -0.260 OA
HETATM   27  C7  UNK     1      18.572   2.764  30.129  1.00  0.00     0.030 A 
ENDBRANCH   1  16
TORSDOF 5
ENDMDL
MODEL 6
REMARK VINA RESULT:      -8.2      6.831     12.205
REMARK  5 active torsions:
REMARK  status: ('A' for Active; 'I' for Inactive)
REMARK    1  A    between atoms: C16_22  and  O2_3 
REMARK    2  A    between atoms: C14_20  and  N1_5 
REMARK    3  A    between atoms: C4_10  and  N1_5 
REMARK    4  A    between atoms: C14_20  and  N2_6 
REMARK    5  A    between atoms: C8_14  and  N2_6 
ROOT
HETATM    1  N1  UNK     1      18.349  -4.666  36.675  1.00  0.00    -0.333 N 
HETATM    2  H4  UNK     1      17.350  -4.713  36.869  1.00  0.00     0.168 HD
ENDROOT
BRANCH   1   3
HETATM    3  C14 UNK     1      18.878  -3.378  36.832  1.00  0.00     0.176 C 
HETATM    4  S1  UNK     1      20.550  -3.242  36.999  1.00  0.00    -0.041 SA
BRANCH   3   5
HETATM    5  N2  UNK     1      17.974  -2.338  36.714  1.00  0.00    -0.333 N 
HETATM    6  H9  UNK     1      17.041  -2.587  37.017  1.00  0.00     0.168 HD
BRANCH   5   7
HETATM    7  C8  UNK     1      17.960  -1.207  35.860  1.00  0.00     0.040 A 
HETATM    8  C13 UNK     1      18.214  -1.397  34.512  1.00  0.00     0.033 A 
HETATM    9  C17 UNK     1      18.206  -0.297  33.654  1.00  0.00     0.039 A 
HETATM   10  C16 UNK     1      17.944   0.977  34.158  1.00  0.00     0.068 A 
HETATM   11  C12 UNK     1      17.689   1.151  35.518  1.00  0.00     0.045 A 
HETATM   12  C9  UNK     1      17.697   0.051  36.375  1.00  0.00    -0.033 A 
HETATM   13  C18 UNK     1      17.421   0.267  37.828  1.00  0.00     0.050 C 
BRANCH  10  14
HETATM   14  O2  UNK     1      17.937   2.051  33.320  1.00  0.00    -0.356 OA
HETATM   15  C19 UNK     1      18.282   3.316  33.882  1.00  0.00     0.210 C 
ENDBRANCH  10  14
ENDBRANCH   5   7
ENDBRANCH   3   5
ENDBRANCH   1   3
BRANCH   1  16
HETATM   16  C4  UNK     1      18.957  -5.911  36.511  1.00  0.00     0.036 A 
HETATM   17  C5  UNK     1      18.658  -6.954  37.381  1.00  0.00     0.067 A 
HETATM   18  C2  UNK     1      19.277  -8.191  37.198  1.00  0.00     0.092 A 
HETATM   19  C1  UNK     1      20.191  -8.423  36.168  1.00  0.00     0.004 A 
HETATM   20  O1  UNK     1      18.934  -9.209  38.111  1.00  0.00    -0.275 OA
HETATM   21  C3  UNK     1      20.794  -9.757  36.050  1.00  0.00    -0.043 A 
HETATM   22  C6  UNK     1      20.478  -7.359  35.302  1.00  0.00     0.017 A 
HETATM   23  C10 UNK     1      20.450 -10.706  36.933  1.00  0.00     0.090 A 
HETATM   24  C11 UNK     1      21.779 -10.039  34.954  1.00  0.00     0.049 C 
HETATM   25  C15 UNK     1      19.488 -10.477  38.024  1.00  0.00     0.288 A 
HETATM   26  O3  UNK     1      19.196 -11.370  38.813  1.00  0.00    -0.260 OA
HETATM   27  C7  UNK     1      19.865  -6.113  35.473  1.00  0.00     0.030 A 
ENDBRANCH   1  16
TORSDOF 5
ENDMDL
MODEL 7
REMARK VINA RESULT:      -8.0      6.338     11.182
REMARK  5 active torsions:
REMARK  status: ('A' for Active; 'I' for Inactive)
REMARK    1  A    between atoms: C16_22  and  O2_3 
REMARK    2  A    between atoms: C14_20  and  N1_5 
REMARK    3  A    between atoms: C4_10  and  N1_5 
REMARK    4  A    between atoms: C14_20  and  N2_6 
REMARK    5  A    between atoms: C8_14  and  N2_6 
ROOT
HETATM    1  N1  UNK     1      18.728  -3.611  36.339  1.00  0.00    -0.333 N 
HETATM    2  H4  UNK     1      17.860  -3.954  35.930  1.00  0.00     0.168 HD
ENDROOT
BRANCH   1   3
HETATM    3  C14 UNK     1      18.833  -2.214  36.312  1.00  0.00     0.176 C 
HETATM    4  S1  UNK     1      17.930  -1.347  37.442  1.00  0.00    -0.041 SA
BRANCH   3   5
HETATM    5  N2  UNK     1      19.766  -1.698  35.430  1.00  0.00    -0.333 N 
HETATM    6  H9  UNK     1      20.260  -0.896  35.801  1.00  0.00     0.168 HD
BRANCH   5   7
HETATM    7  C8  UNK     1      19.838  -1.748  34.016  1.00  0.00     0.040 A 
HETATM    8  C13 UNK     1      20.733  -2.630  33.433  1.00  0.00     0.033 A 
HETATM    9  C17 UNK     1      20.820  -2.693  32.042  1.00  0.00     0.039 A 
HETATM   10  C16 UNK     1      20.011  -1.874  31.255  1.00  0.00     0.068 A 
HETATM   11  C12 UNK     1      19.115  -0.992  31.858  1.00  0.00     0.045 A 
HETATM   12  C9  UNK     1      19.028  -0.929  33.249  1.00  0.00    -0.033 A 
HETATM   13  C18 UNK     1      18.059   0.026  33.868  1.00  0.00     0.050 C 
BRANCH  10  14
HETATM   14  O2  UNK     1      20.097  -1.937  29.898  1.00  0.00    -0.356 OA
HETATM   15  C19 UNK     1      20.553  -0.767  29.220  1.00  0.00     0.210 C 
ENDBRANCH  10  14
ENDBRANCH   5   7
ENDBRANCH   3   5
ENDBRANCH   1   3
BRANCH   1  16
HETATM   16  C4  UNK     1      19.475  -4.591  36.993  1.00  0.00     0.036 A 
HETATM   17  C5  UNK     1      20.805  -4.351  37.322  1.00  0.00     0.067 A 
HETATM   18  C2  UNK     1      21.533  -5.346  37.976  1.00  0.00     0.092 A 
HETATM   19  C1  UNK     1      20.975  -6.580  38.315  1.00  0.00     0.004 A 
HETATM   20  O1  UNK     1      22.876  -5.044  38.284  1.00  0.00    -0.275 OA
HETATM   21  C3  UNK     1      21.816  -7.567  39.003  1.00  0.00    -0.043 A 
HETATM   22  C6  UNK     1      19.633  -6.801  37.974  1.00  0.00     0.017 A 
HETATM   23  C10 UNK     1      23.090  -7.254  39.282  1.00  0.00     0.090 A 
HETATM   24  C11 UNK     1      21.245  -8.903  39.382  1.00  0.00     0.049 C 
HETATM   25  C15 UNK     1      23.693  -5.958  38.932  1.00  0.00     0.288 A 
HETATM   26  O3  UNK     1      24.862  -5.705  39.205  1.00  0.00    -0.260 OA
HETATM   27  C7  UNK     1      18.890  -5.814  37.318  1.00  0.00     0.030 A 
ENDBRANCH   1  16
TORSDOF 5
ENDMDL
MODEL 8
REMARK VINA RESULT:      -7.9      5.905      8.530
REMARK  5 active torsions:
REMARK  status: ('A' for Active; 'I' for Inactive)
REMARK    1  A    between atoms: C16_22  and  O2_3 
REMARK    2  A    between atoms: C14_20  and  N1_5 
REMARK    3  A    between atoms: C4_10  and  N1_5 
REMARK    4  A    between atoms: C14_20  and  N2_6 
REMARK    5  A    between atoms: C8_14  and  N2_6 
ROOT
HETATM    1  N1  UNK     1      19.421  -2.620  35.459  1.00  0.00    -0.333 N 
HETATM    2  H4  UNK     1      18.682  -2.168  35.995  1.00  0.00     0.168 HD
ENDROOT
BRANCH   1   3
HETATM    3  C14 UNK     1      19.915  -3.778  36.074  1.00  0.00     0.176 C 
HETATM    4  S1  UNK     1      20.917  -3.577  37.414  1.00  0.00    -0.041 SA
BRANCH   3   5
HETATM    5  N2  UNK     1      19.428  -4.975  35.581  1.00  0.00    -0.333 N 
HETATM    6  H9  UNK     1      18.578  -4.866  35.043  1.00  0.00     0.168 HD
BRANCH   5   7
HETATM    7  C8  UNK     1      19.587  -6.306  36.041  1.00  0.00     0.040 A 
HETATM    8  C13 UNK     1      19.174  -6.612  37.328  1.00  0.00     0.033 A 
HETATM    9  C17 UNK     1      19.323  -7.916  37.800  1.00  0.00     0.039 A 
HETATM   10  C16 UNK     1      19.882  -8.895  36.979  1.00  0.00     0.068 A 
HETATM   11  C12 UNK     1      20.291  -8.571  35.686  1.00  0.00     0.045 A 
HETATM   12  C9  UNK     1      20.143  -7.267  35.214  1.00  0.00    -0.033 A 
HETATM   13  C18 UNK     1      20.592  -6.948  33.824  1.00  0.00     0.050 C 
BRANCH  10  14
HETATM   14  O2  UNK     1      20.026 -10.167  37.441  1.00  0.00    -0.356 OA
HETATM   15  C19 UNK     1      19.362 -10.496  38.661  1.00  0.00     0.210 C 
ENDBRANCH  10  14
ENDBRANCH   5   7
ENDBRANCH   3   5
ENDBRANCH   1   3
BRANCH   1  16
HETATM   16  C4  UNK     1      19.599  -2.094  34.180  1.00  0.00     0.036 A 
HETATM   17  C5  UNK     1      18.922  -0.940  33.799  1.00  0.00     0.067 A 
HETATM   18  C2  UNK     1      19.115  -0.430  32.514  1.00  0.00     0.092 A 
HETATM   19  C1  UNK     1      19.968  -1.039  31.591  1.00  0.00     0.004 A 
HETATM   20  O1  UNK     1      18.402   0.741  32.186  1.00  0.00    -0.275 OA
HETATM   21  C3  UNK     1      20.111  -0.433  30.261  1.00  0.00    -0.043 A 
HETATM   22  C6  UNK     1      20.641  -2.200  31.994  1.00  0.00     0.017 A 
HETATM   23  C10 UNK     1      19.420   0.681  29.976  1.00  0.00     0.090 A 
HETATM   24  C11 UNK     1      21.021  -1.062  29.245  1.00  0.00     0.049 C 
HETATM   25  C15 UNK     1      18.518   1.334  30.938  1.00  0.00     0.288 A 
HETATM   26  O3  UNK     1      17.902   2.353  30.643  1.00  0.00    -0.260 OA
HETATM   27  C7  UNK     1      20.457  -2.723  33.279  1.00  0.00     0.030 A 
ENDBRANCH   1  16
TORSDOF 5
ENDMDL
MODEL 9
REMARK VINA RESULT:      -7.8      2.529      7.661
REMARK  5 active torsions:
REMARK  status: ('A' for Active; 'I' for Inactive)
REMARK    1  A    between atoms: C16_22  and  O2_3 
REMARK    2  A    between atoms: C14_20  and  N1_5 
REMARK    3  A    between atoms: C4_10  and  N1_5 
REMARK    4  A    between atoms: C14_20  and  N2_6 
REMARK    5  A    between atoms: C8_14  and  N2_6 
ROOT
HETATM    1  N1  UNK     1      18.661  -0.689  31.605  1.00  0.00    -0.333 N 
HETATM    2  H4  UNK     1      18.062  -1.313  31.067  1.00  0.00     0.168 HD
ENDROOT
BRANCH   1   3
HETATM    3  C14 UNK     1      19.118   0.409  30.864  1.00  0.00     0.176 C 
HETATM    4  S1  UNK     1      20.518   0.197  29.948  1.00  0.00    -0.041 SA
BRANCH   3   5
HETATM    5  N2  UNK     1      18.298   1.523  30.872  1.00  0.00    -0.333 N 
HETATM    6  H9  UNK     1      17.776   1.636  30.012  1.00  0.00     0.168 HD
BRANCH   5   7
HETATM    7  C8  UNK     1      18.386   2.739  31.593  1.00  0.00     0.040 A 
HETATM    8  C13 UNK     1      18.186   2.708  32.964  1.00  0.00     0.033 A 
HETATM    9  C17 UNK     1      18.267   3.894  33.693  1.00  0.00     0.039 A 
HETATM   10  C16 UNK     1      18.546   5.095  33.040  1.00  0.00     0.068 A 
HETATM   11  C12 UNK     1      18.746   5.109  31.660  1.00  0.00     0.045 A 
HETATM   12  C9  UNK     1      18.665   3.923  30.932  1.00  0.00    -0.033 A 
HETATM   13  C18 UNK     1      18.882   3.968  29.454  1.00  0.00     0.050 C 
BRANCH  10  14
HETATM   14  O2  UNK     1      18.625   6.253  33.752  1.00  0.00    -0.356 OA
HETATM   15  C19 UNK     1      19.605   7.204  33.340  1.00  0.00     0.210 C 
ENDBRANCH  10  14
ENDBRANCH   5   7
ENDBRANCH   3   5
ENDBRANCH   1   3
BRANCH   1  16
HETATM   16  C4  UNK     1      18.701  -0.975  32.970  1.00  0.00     0.036 A 
HETATM   17  C5  UNK     1      19.578  -1.939  33.457  1.00  0.00     0.067 A 
HETATM   18  C2  UNK     1      19.601  -2.208  34.826  1.00  0.00     0.092 A 
HETATM   19  C1  UNK     1      18.773  -1.543  35.731  1.00  0.00     0.004 A 
HETATM   20  O1  UNK     1      20.510  -3.195  35.259  1.00  0.00    -0.275 OA
HETATM   21  C3  UNK     1      18.865  -1.891  37.155  1.00  0.00    -0.043 A 
HETATM   22  C6  UNK     1      17.897  -0.575  35.221  1.00  0.00     0.017 A 
HETATM   23  C10 UNK     1      19.738  -2.834  37.539  1.00  0.00     0.090 A 
HETATM   24  C11 UNK     1      17.988  -1.193  38.155  1.00  0.00     0.049 C 
HETATM   25  C15 UNK     1      20.618  -3.544  36.596  1.00  0.00     0.288 A 
HETATM   26  O3  UNK     1      21.406  -4.401  36.983  1.00  0.00    -0.260 OA
HETATM   27  C7  UNK     1      17.862  -0.294  33.851  1.00  0.00     0.030 A 
ENDBRANCH   1  16
TORSDOF 5
ENDMDL
MODEL 10
REMARK VINA RESULT:      -7.8      6.419     11.600
REMARK  5 active torsions:
REMARK  status: ('A' for Active; 'I' for Inactive)
REMARK    1  A    between atoms: C16_22  and  O2_3 
REMARK    2  A    between atoms: C14_20  and  N1_5 
REMARK    3  A    between atoms: C4_10  and  N1_5 
REMARK    4  A    between atoms: C14_20  and  N2_6 
REMARK    5  A    between atoms: C8_14  and  N2_6 
ROOT
HETATM    1  N1  UNK     1      19.014  -3.957  36.566  1.00  0.00    -0.333 N 
HETATM    2  H4  UNK     1      18.191  -4.008  37.165  1.00  0.00     0.168 HD
ENDROOT
BRANCH   1   3
HETATM    3  C14 UNK     1      19.320  -2.651  36.163  1.00  0.00     0.176 C 
HETATM    4  S1  UNK     1      20.950  -2.256  35.987  1.00  0.00    -0.041 SA
BRANCH   3   5
HETATM    5  N2  UNK     1      18.238  -1.853  35.836  1.00  0.00    -0.333 N 
HETATM    6  H9  UNK     1      17.385  -2.379  35.697  1.00  0.00     0.168 HD
BRANCH   5   7
HETATM    7  C8  UNK     1      18.172  -0.580  35.216  1.00  0.00     0.040 A 
HETATM    8  C13 UNK     1      18.347  -0.506  33.844  1.00  0.00     0.033 A 
HETATM    9  C17 UNK     1      18.287   0.738  33.215  1.00  0.00     0.039 A 
HETATM   10  C16 UNK     1      18.053   1.888  33.967  1.00  0.00     0.068 A 
HETATM   11  C12 UNK     1      17.879   1.796  35.348  1.00  0.00     0.045 A 
HETATM   12  C9  UNK     1      17.939   0.553  35.977  1.00  0.00    -0.033 A 
HETATM   13  C18 UNK     1      17.749   0.484  37.458  1.00  0.00     0.050 C 
BRANCH  10  14
HETATM   14  O2  UNK     1      17.995   3.102  33.353  1.00  0.00    -0.356 OA
HETATM   15  C19 UNK     1      18.223   3.129  31.944  1.00  0.00     0.210 C 
ENDBRANCH  10  14
ENDBRANCH   5   7
ENDBRANCH   3   5
ENDBRANCH   1   3
BRANCH   1  16
HETATM   16  C4  UNK     1      19.727  -5.153  36.477  1.00  0.00     0.036 A 
HETATM   17  C5  UNK     1      20.749  -5.425  37.382  1.00  0.00     0.067 A 
HETATM   18  C2  UNK     1      21.449  -6.628  37.274  1.00  0.00     0.092 A 
HETATM   19  C1  UNK     1      21.163  -7.573  36.288  1.00  0.00     0.004 A 
HETATM   20  O1  UNK     1      22.473  -6.847  38.219  1.00  0.00    -0.275 OA
HETATM   21  C3  UNK     1      21.951  -8.811  36.250  1.00  0.00    -0.043 A 
HETATM   22  C6  UNK     1      20.130  -7.279  35.387  1.00  0.00     0.017 A 
HETATM   23  C10 UNK     1      22.918  -8.993  37.160  1.00  0.00     0.090 A 
HETATM   24  C11 UNK     1      21.667  -9.848  35.202  1.00  0.00     0.049 C 
HETATM   25  C15 UNK     1      23.233  -8.007  38.207  1.00  0.00     0.288 A 
HETATM   26  O3  UNK     1      24.125  -8.208  39.024  1.00  0.00    -0.260 OA
HETATM   27  C7  UNK     1      19.418  -6.078  35.481  1.00  0.00     0.030 A 
ENDBRANCH   1  16
TORSDOF 5
ENDMDL
