MODEL 1
REMARK VINA RESULT:      -8.3      0.000      0.000
REMARK  7 active torsions:
REMARK  status: ('A' for Active; 'I' for Inactive)
REMARK    1  A    between atoms: C19_26  and  O3_3 
REMARK    2  A    between atoms: C21_28  and  O3_3 
REMARK    3  A    between atoms: C5_12  and  N1_5 
REMARK    4  A    between atoms: C6_13  and  N2_6 
REMARK    5  A    between atoms: C8_15  and  N3_7 
REMARK       I    between atoms: C9_16  and  N3_7 
REMARK    6  A    between atoms: C5_12  and  C7_14 
REMARK    7  A    between atoms: C6_13  and  C9_16 
ROOT
HETATM    1  N1  UNK     1      18.855   3.534  31.256  1.00  0.00     0.096 N 
HETATM    2  N2  UNK     1      19.116   6.236  32.249  1.00  0.00     0.100 N 
HETATM    3  C1  UNK     1      19.231   4.640  30.367  1.00  0.00     0.303 C 
HETATM    4  C2  UNK     1      18.021   4.025  32.360  1.00  0.00     0.303 C 
HETATM    5  C3  UNK     1      19.951   5.747  31.146  1.00  0.00     0.303 C 
HETATM    6  C4  UNK     1      18.742   5.131  33.138  1.00  0.00     0.303 C 
ENDROOT
BRANCH   1   7
HETATM    7  C5  UNK     1      18.165   2.482  30.512  1.00  0.00     0.312 C 
BRANCH   7   8
HETATM    8  C7  UNK     1      18.952   1.218  30.467  1.00  0.00    -0.011 A 
HETATM    9  C10 UNK     1      18.978   0.328  31.635  1.00  0.00     0.009 A 
HETATM   10  C15 UNK     1      19.724  -0.849  31.563  1.00  0.00     0.090 A 
HETATM   11  C16 UNK     1      18.294   0.591  32.830  1.00  0.00     0.051 A 
HETATM   12  O2  UNK     1      20.440  -1.187  30.397  1.00  0.00    -0.275 OA
HETATM   13  C18 UNK     1      19.803  -1.749  32.626  1.00  0.00     0.041 A 
HETATM   14  C17 UNK     1      20.432  -0.368  29.278  1.00  0.00     0.288 A 
HETATM   15  C11 UNK     1      19.642   0.871  29.370  1.00  0.00     0.092 A 
HETATM   16  O4  UNK     1      21.051  -0.653  28.258  1.00  0.00    -0.260 OA
HETATM   17  C20 UNK     1      19.117  -1.470  33.804  1.00  0.00     0.039 A 
HETATM   18  C19 UNK     1      18.364  -0.302  33.905  1.00  0.00     0.069 A 
BRANCH  18  19
HETATM   19  O3  UNK     1      17.691  -0.028  35.057  1.00  0.00    -0.351 OA
BRANCH  19  20
HETATM   20  C21 UNK     1      16.282  -0.256  35.056  1.00  0.00     0.171 C 
HETATM   21  C22 UNK     1      15.655   0.525  36.190  1.00  0.00     0.034 C 
ENDBRANCH  19  20
ENDBRANCH  18  19
ENDBRANCH   7   8
ENDBRANCH   1   7
BRANCH   2  22
HETATM   22  C6  UNK     1      19.804   7.290  32.992  1.00  0.00     0.374 C 
BRANCH  22  23
HETATM   23  C9  UNK     1      18.801   7.996  33.881  1.00  0.00     0.246 C 
HETATM   24  O1  UNK     1      18.947   8.110  35.096  1.00  0.00    -0.272 OA
HETATM   25  N3  UNK     1      17.736   8.508  33.155  1.00  0.00    -0.351 N 
HETATM   26  H13 UNK     1      17.719   8.370  32.149  1.00  0.00     0.163 HD
BRANCH  25  27
HETATM   27  C8  UNK     1      16.651   9.251  33.757  1.00  0.00     0.022 C 
HETATM   28  C12 UNK     1      17.142  10.660  34.108  1.00  0.00     0.037 C 
HETATM   29  C13 UNK     1      15.485   9.339  32.765  1.00  0.00     0.037 C 
HETATM   30  C14 UNK     1      16.190   8.530  35.029  1.00  0.00     0.037 C 
ENDBRANCH  25  27
ENDBRANCH  22  23
ENDBRANCH   2  22
TORSDOF 7
ENDMDL
MODEL 2
REMARK VINA RESULT:      -8.0     13.281     16.574
REMARK  7 active torsions:
REMARK  status: ('A' for Active; 'I' for Inactive)
REMARK    1  A    between atoms: C19_26  and  O3_3 
REMARK    2  A    between atoms: C21_28  and  O3_3 
REMARK    3  A    between atoms: C5_12  and  N1_5 
REMARK    4  A    between atoms: C6_13  and  N2_6 
REMARK    5  A    between atoms: C8_15  and  N3_7 
REMARK       I    between atoms: C9_16  and  N3_7 
REMARK    6  A    between atoms: C5_12  and  C7_14 
REMARK    7  A    between atoms: C6_13  and  C9_16 
ROOT
HETATM    1  N1  UNK     1      26.809  -9.436  37.611  1.00  0.00     0.096 N 
HETATM    2  N2  UNK     1      29.624  -9.195  38.221  1.00  0.00     0.100 N 
HETATM    3  C1  UNK     1      27.712  -8.666  36.748  1.00  0.00     0.303 C 
HETATM    4  C2  UNK     1      27.290  -9.424  38.998  1.00  0.00     0.303 C 
HETATM    5  C3  UNK     1      29.144  -9.208  36.834  1.00  0.00     0.303 C 
HETATM    6  C4  UNK     1      28.721  -9.966  39.083  1.00  0.00     0.303 C 
ENDROOT
BRANCH   1   7
HETATM    7  C5  UNK     1      25.445  -8.915  37.530  1.00  0.00     0.312 C 
BRANCH   7   8
HETATM    8  C7  UNK     1      24.535  -9.835  36.792  1.00  0.00    -0.011 A 
HETATM    9  C10 UNK     1      23.123  -9.478  36.607  1.00  0.00     0.009 A 
HETATM   10  C15 UNK     1      22.295 -10.361  35.911  1.00  0.00     0.090 A 
HETATM   11  C16 UNK     1      22.549  -8.295  37.091  1.00  0.00     0.051 A 
HETATM   12  O2  UNK     1      22.795 -11.572  35.392  1.00  0.00    -0.275 OA
HETATM   13  C18 UNK     1      20.942 -10.099  35.692  1.00  0.00     0.041 A 
HETATM   14  C17 UNK     1      24.124 -11.934  35.549  1.00  0.00     0.288 A 
HETATM   15  C11 UNK     1      24.985 -10.994  36.286  1.00  0.00     0.092 A 
HETATM   16  O4  UNK     1      24.569 -12.986  35.101  1.00  0.00    -0.260 OA
HETATM   17  C20 UNK     1      20.392  -8.918  36.180  1.00  0.00     0.039 A 
HETATM   18  C19 UNK     1      21.194  -8.018  36.878  1.00  0.00     0.069 A 
BRANCH  18  19
HETATM   19  O3  UNK     1      20.656  -6.861  37.356  1.00  0.00    -0.351 OA
BRANCH  19  20
HETATM   20  C21 UNK     1      20.759  -6.630  38.761  1.00  0.00     0.171 C 
HETATM   21  C22 UNK     1      19.966  -7.689  39.495  1.00  0.00     0.034 C 
ENDBRANCH  19  20
ENDBRANCH  18  19
ENDBRANCH   7   8
ENDBRANCH   1   7
BRANCH   2  22
HETATM   22  C6  UNK     1      30.988  -9.713  38.302  1.00  0.00     0.374 C 
BRANCH  22  23
HETATM   23  C9  UNK     1      31.914  -8.768  37.564  1.00  0.00     0.246 C 
HETATM   24  O1  UNK     1      32.544  -9.096  36.561  1.00  0.00    -0.272 OA
HETATM   25  N3  UNK     1      31.933  -7.507  38.142  1.00  0.00    -0.351 N 
HETATM   26  H13 UNK     1      31.361  -7.337  38.964  1.00  0.00     0.163 HD
BRANCH  25  27
HETATM   27  C8  UNK     1      32.714  -6.408  37.619  1.00  0.00     0.022 C 
HETATM   28  C12 UNK     1      32.296  -6.141  36.169  1.00  0.00     0.037 C 
HETATM   29  C13 UNK     1      32.465  -5.158  38.470  1.00  0.00     0.037 C 
HETATM   30  C14 UNK     1      34.202  -6.776  37.670  1.00  0.00     0.037 C 
ENDBRANCH  25  27
ENDBRANCH  22  23
ENDBRANCH   2  22
TORSDOF 7
ENDMDL
MODEL 3
REMARK VINA RESULT:      -7.8      2.636      4.052
REMARK  7 active torsions:
REMARK  status: ('A' for Active; 'I' for Inactive)
REMARK    1  A    between atoms: C19_26  and  O3_3 
REMARK    2  A    between atoms: C21_28  and  O3_3 
REMARK    3  A    between atoms: C5_12  and  N1_5 
REMARK    4  A    between atoms: C6_13  and  N2_6 
REMARK    5  A    between atoms: C8_15  and  N3_7 
REMARK       I    between atoms: C9_16  and  N3_7 
REMARK    6  A    between atoms: C5_12  and  C7_14 
REMARK    7  A    between atoms: C6_13  and  C9_16 
ROOT
HETATM    1  N1  UNK     1      17.104   6.228  33.106  1.00  0.00     0.096 N 
HETATM    2  N2  UNK     1      15.447   8.594  33.222  1.00  0.00     0.100 N 
HETATM    3  C1  UNK     1      16.648   6.777  34.389  1.00  0.00     0.303 C 
HETATM    4  C2  UNK     1      17.228   7.296  32.106  1.00  0.00     0.303 C 
HETATM    5  C3  UNK     1      15.321   7.527  34.222  1.00  0.00     0.303 C 
HETATM    6  C4  UNK     1      15.901   8.044  31.940  1.00  0.00     0.303 C 
ENDROOT
BRANCH   1   7
HETATM    7  C5  UNK     1      18.370   5.516  33.267  1.00  0.00     0.312 C 
BRANCH   7   8
HETATM    8  C7  UNK     1      18.336   4.161  32.651  1.00  0.00    -0.011 A 
HETATM    9  C10 UNK     1      18.383   2.966  33.504  1.00  0.00     0.009 A 
HETATM   10  C15 UNK     1      18.349   1.710  32.897  1.00  0.00     0.090 A 
HETATM   11  C16 UNK     1      18.460   3.010  34.902  1.00  0.00     0.051 A 
HETATM   12  O2  UNK     1      18.270   1.580  31.496  1.00  0.00    -0.275 OA
HETATM   13  C18 UNK     1      18.389   0.524  33.632  1.00  0.00     0.041 A 
HETATM   14  C17 UNK     1      18.223   2.689  30.666  1.00  0.00     0.288 A 
HETATM   15  C11 UNK     1      18.261   4.008  31.320  1.00  0.00     0.092 A 
HETATM   16  O4  UNK     1      18.154   2.587  29.446  1.00  0.00    -0.260 OA
HETATM   17  C20 UNK     1      18.466   0.589  35.020  1.00  0.00     0.039 A 
HETATM   18  C19 UNK     1      18.501   1.830  35.654  1.00  0.00     0.069 A 
BRANCH  18  19
HETATM   19  O3  UNK     1      18.575   1.895  37.012  1.00  0.00    -0.351 OA
BRANCH  19  20
HETATM   20  C21 UNK     1      17.650   1.098  37.751  1.00  0.00     0.171 C 
HETATM   21  C22 UNK     1      16.242   1.550  37.429  1.00  0.00     0.034 C 
ENDBRANCH  19  20
ENDBRANCH  18  19
ENDBRANCH   7   8
ENDBRANCH   1   7
BRANCH   2  22
HETATM   22  C6  UNK     1      14.182   9.307  33.063  1.00  0.00     0.374 C 
BRANCH  22  23
HETATM   23  C9  UNK     1      14.310  10.678  33.695  1.00  0.00     0.246 C 
HETATM   24  O1  UNK     1      13.346  11.317  34.110  1.00  0.00    -0.272 OA
HETATM   25  N3  UNK     1      15.632  11.093  33.766  1.00  0.00    -0.351 N 
HETATM   26  H13 UNK     1      16.356  10.479  33.406  1.00  0.00     0.163 HD
BRANCH  25  27
HETATM   27  C8  UNK     1      16.036  12.352  34.350  1.00  0.00     0.022 C 
HETATM   28  C12 UNK     1      15.575  12.400  35.810  1.00  0.00     0.037 C 
HETATM   29  C13 UNK     1      17.563  12.476  34.283  1.00  0.00     0.037 C 
HETATM   30  C14 UNK     1      15.393  13.502  33.565  1.00  0.00     0.037 C 
ENDBRANCH  25  27
ENDBRANCH  22  23
ENDBRANCH   2  22
TORSDOF 7
ENDMDL
MODEL 4
REMARK VINA RESULT:      -7.7     10.457     14.864
REMARK  7 active torsions:
REMARK  status: ('A' for Active; 'I' for Inactive)
REMARK    1  A    between atoms: C19_26  and  O3_3 
REMARK    2  A    between atoms: C21_28  and  O3_3 
REMARK    3  A    between atoms: C5_12  and  N1_5 
REMARK    4  A    between atoms: C6_13  and  N2_6 
REMARK    5  A    between atoms: C8_15  and  N3_7 
REMARK       I    between atoms: C9_16  and  N3_7 
REMARK    6  A    between atoms: C5_12  and  C7_14 
REMARK    7  A    between atoms: C6_13  and  C9_16 
ROOT
HETATM    1  N1  UNK     1      23.782  -9.373  37.185  1.00  0.00     0.096 N 
HETATM    2  N2  UNK     1      26.254  -8.413  38.335  1.00  0.00     0.100 N 
HETATM    3  C1  UNK     1      25.077  -9.667  36.562  1.00  0.00     0.303 C 
HETATM    4  C2  UNK     1      23.840  -8.099  37.913  1.00  0.00     0.303 C 
HETATM    5  C3  UNK     1      26.196  -9.687  37.609  1.00  0.00     0.303 C 
HETATM    6  C4  UNK     1      24.959  -8.120  38.960  1.00  0.00     0.303 C 
ENDROOT
BRANCH   1   7
HETATM    7  C5  UNK     1      22.717  -9.352  36.185  1.00  0.00     0.312 C 
BRANCH   7   8
HETATM    8  C7  UNK     1      21.364  -9.445  36.801  1.00  0.00    -0.011 A 
HETATM    9  C10 UNK     1      20.459  -8.289  36.764  1.00  0.00     0.009 A 
HETATM   10  C15 UNK     1      19.198  -8.408  37.350  1.00  0.00     0.090 A 
HETATM   11  C16 UNK     1      20.787  -7.062  36.171  1.00  0.00     0.051 A 
HETATM   12  O2  UNK     1      18.792  -9.608  37.966  1.00  0.00    -0.275 OA
HETATM   13  C18 UNK     1      18.278  -7.359  37.360  1.00  0.00     0.041 A 
HETATM   14  C17 UNK     1      19.623 -10.716  38.015  1.00  0.00     0.288 A 
HETATM   15  C11 UNK     1      20.951 -10.576  37.393  1.00  0.00     0.092 A 
HETATM   16  O4  UNK     1      19.279 -11.766  38.548  1.00  0.00    -0.260 OA
HETATM   17  C20 UNK     1      18.623  -6.149  36.766  1.00  0.00     0.039 A 
HETATM   18  C19 UNK     1      19.875  -6.001  36.172  1.00  0.00     0.069 A 
BRANCH  18  19
HETATM   19  O3  UNK     1      20.213  -4.817  35.590  1.00  0.00    -0.351 OA
BRANCH  19  20
HETATM   20  C21 UNK     1      19.930  -3.628  36.326  1.00  0.00     0.171 C 
HETATM   21  C22 UNK     1      20.346  -2.428  35.503  1.00  0.00     0.034 C 
ENDBRANCH  19  20
ENDBRANCH  18  19
ENDBRANCH   7   8
ENDBRANCH   1   7
BRANCH   2  22
HETATM   22  C6  UNK     1      27.320  -8.433  39.334  1.00  0.00     0.374 C 
BRANCH  22  23
HETATM   23  C9  UNK     1      28.607  -7.964  38.686  1.00  0.00     0.246 C 
HETATM   24  O1  UNK     1      29.465  -8.737  38.265  1.00  0.00    -0.272 OA
HETATM   25  N3  UNK     1      28.671  -6.581  38.607  1.00  0.00    -0.351 N 
HETATM   26  H13 UNK     1      27.897  -6.034  38.973  1.00  0.00     0.163 HD
BRANCH  25  27
HETATM   27  C8  UNK     1      29.780  -5.872  38.008  1.00  0.00     0.022 C 
HETATM   28  C12 UNK     1      29.665  -5.959  36.482  1.00  0.00     0.037 C 
HETATM   29  C13 UNK     1      29.742  -4.405  38.449  1.00  0.00     0.037 C 
HETATM   30  C14 UNK     1      31.096  -6.513  38.467  1.00  0.00     0.037 C 
ENDBRANCH  25  27
ENDBRANCH  22  23
ENDBRANCH   2  22
TORSDOF 7
ENDMDL
MODEL 5
REMARK VINA RESULT:      -7.7      4.503      9.672
REMARK  7 active torsions:
REMARK  status: ('A' for Active; 'I' for Inactive)
REMARK    1  A    between atoms: C19_26  and  O3_3 
REMARK    2  A    between atoms: C21_28  and  O3_3 
REMARK    3  A    between atoms: C5_12  and  N1_5 
REMARK    4  A    between atoms: C6_13  and  N2_6 
REMARK    5  A    between atoms: C8_15  and  N3_7 
REMARK       I    between atoms: C9_16  and  N3_7 
REMARK    6  A    between atoms: C5_12  and  C7_14 
REMARK    7  A    between atoms: C6_13  and  C9_16 
ROOT
HETATM    1  N1  UNK     1      18.927  -0.953  35.176  1.00  0.00     0.096 N 
HETATM    2  N2  UNK     1      19.786  -3.303  36.623  1.00  0.00     0.100 N 
HETATM    3  C1  UNK     1      18.144  -1.485  36.297  1.00  0.00     0.303 C 
HETATM    4  C2  UNK     1      19.668  -2.031  34.509  1.00  0.00     0.303 C 
HETATM    5  C3  UNK     1      19.047  -2.225  37.291  1.00  0.00     0.303 C 
HETATM    6  C4  UNK     1      20.570  -2.769  35.504  1.00  0.00     0.303 C 
ENDROOT
BRANCH   1   7
HETATM    7  C5  UNK     1      18.064  -0.251  34.227  1.00  0.00     0.312 C 
BRANCH   7   8
HETATM    8  C7  UNK     1      18.650  -0.211  32.858  1.00  0.00    -0.011 A 
HETATM    9  C10 UNK     1      18.652   1.045  32.097  1.00  0.00     0.009 A 
HETATM   10  C15 UNK     1      19.207   1.051  30.817  1.00  0.00     0.090 A 
HETATM   11  C16 UNK     1      18.125   2.250  32.582  1.00  0.00     0.051 A 
HETATM   12  O2  UNK     1      19.759  -0.119  30.257  1.00  0.00    -0.275 OA
HETATM   13  C18 UNK     1      19.250   2.200  30.027  1.00  0.00     0.041 A 
HETATM   14  C17 UNK     1      19.773  -1.318  30.952  1.00  0.00     0.288 A 
HETATM   15  C11 UNK     1      19.182  -1.310  32.301  1.00  0.00     0.092 A 
HETATM   16  O4  UNK     1      20.251  -2.343  30.475  1.00  0.00    -0.260 OA
HETATM   17  C20 UNK     1      18.721   3.386  30.526  1.00  0.00     0.039 A 
HETATM   18  C19 UNK     1      18.160   3.411  31.801  1.00  0.00     0.069 A 
BRANCH  18  19
HETATM   19  O3  UNK     1      17.643   4.572  32.292  1.00  0.00    -0.351 OA
BRANCH  19  20
HETATM   20  C21 UNK     1      18.184   5.055  33.520  1.00  0.00     0.171 C 
HETATM   21  C22 UNK     1      19.389   5.920  33.222  1.00  0.00     0.034 C 
ENDBRANCH  19  20
ENDBRANCH  18  19
ENDBRANCH   7   8
ENDBRANCH   1   7
BRANCH   2  22
HETATM   22  C6  UNK     1      20.647  -4.006  37.572  1.00  0.00     0.374 C 
BRANCH  22  23
HETATM   23  C9  UNK     1      20.715  -5.468  37.180  1.00  0.00     0.246 C 
HETATM   24  O1  UNK     1      21.730  -6.149  37.308  1.00  0.00    -0.272 OA
HETATM   25  N3  UNK     1      19.501  -5.930  36.694  1.00  0.00    -0.351 N 
HETATM   26  H13 UNK     1      18.718  -5.285  36.644  1.00  0.00     0.163 HD
BRANCH  25  27
HETATM   27  C8  UNK     1      19.284  -7.297  36.274  1.00  0.00     0.022 C 
HETATM   28  C12 UNK     1      19.323  -8.211  37.503  1.00  0.00     0.037 C 
HETATM   29  C13 UNK     1      17.918  -7.406  35.588  1.00  0.00     0.037 C 
HETATM   30  C14 UNK     1      20.387  -7.703  35.290  1.00  0.00     0.037 C 
ENDBRANCH  25  27
ENDBRANCH  22  23
ENDBRANCH   2  22
TORSDOF 7
ENDMDL
MODEL 6
REMARK VINA RESULT:      -7.7     16.062     19.614
REMARK  7 active torsions:
REMARK  status: ('A' for Active; 'I' for Inactive)
REMARK    1  A    between atoms: C19_26  and  O3_3 
REMARK    2  A    between atoms: C21_28  and  O3_3 
REMARK    3  A    between atoms: C5_12  and  N1_5 
REMARK    4  A    between atoms: C6_13  and  N2_6 
REMARK    5  A    between atoms: C8_15  and  N3_7 
REMARK       I    between atoms: C9_16  and  N3_7 
REMARK    6  A    between atoms: C5_12  and  C7_14 
REMARK    7  A    between atoms: C6_13  and  C9_16 
ROOT
HETATM    1  N1  UNK     1      32.769  -5.783  35.855  1.00  0.00     0.096 N 
HETATM    2  N2  UNK     1      35.362  -6.530  34.818  1.00  0.00     0.100 N 
HETATM    3  C1  UNK     1      32.908  -6.818  34.824  1.00  0.00     0.303 C 
HETATM    4  C2  UNK     1      33.859  -4.805  35.751  1.00  0.00     0.303 C 
HETATM    5  C3  UNK     1      34.273  -7.509  34.923  1.00  0.00     0.303 C 
HETATM    6  C4  UNK     1      35.223  -5.497  35.851  1.00  0.00     0.303 C 
ENDROOT
BRANCH   1   7
HETATM    7  C5  UNK     1      31.468  -5.123  35.756  1.00  0.00     0.312 C 
BRANCH   7   8
HETATM    8  C7  UNK     1      30.640  -5.328  36.977  1.00  0.00    -0.011 A 
HETATM    9  C10 UNK     1      29.943  -6.604  37.185  1.00  0.00     0.009 A 
HETATM   10  C15 UNK     1      29.174  -6.767  38.338  1.00  0.00     0.090 A 
HETATM   11  C16 UNK     1      30.003  -7.679  36.288  1.00  0.00     0.051 A 
HETATM   12  O2  UNK     1      29.063  -5.734  39.290  1.00  0.00    -0.275 OA
HETATM   13  C18 UNK     1      28.480  -7.946  38.613  1.00  0.00     0.041 A 
HETATM   14  C17 UNK     1      29.711  -4.520  39.122  1.00  0.00     0.288 A 
HETATM   15  C11 UNK     1      30.517  -4.363  37.900  1.00  0.00     0.092 A 
HETATM   16  O4  UNK     1      29.621  -3.614  39.945  1.00  0.00    -0.260 OA
HETATM   17  C20 UNK     1      28.553  -9.002  37.709  1.00  0.00     0.039 A 
HETATM   18  C19 UNK     1      29.313  -8.869  36.549  1.00  0.00     0.069 A 
BRANCH  18  19
HETATM   19  O3  UNK     1      29.385  -9.902  35.665  1.00  0.00    -0.351 OA
BRANCH  19  20
HETATM   20  C21 UNK     1      28.500  -9.861  34.546  1.00  0.00     0.171 C 
HETATM   21  C22 UNK     1      29.306 -10.003  33.274  1.00  0.00     0.034 C 
ENDBRANCH  19  20
ENDBRANCH  18  19
ENDBRANCH   7   8
ENDBRANCH   1   7
BRANCH   2  22
HETATM   22  C6  UNK     1      36.662  -7.190  34.915  1.00  0.00     0.374 C 
BRANCH  22  23
HETATM   23  C9  UNK     1      36.797  -8.173  33.770  1.00  0.00     0.246 C 
HETATM   24  O1  UNK     1      36.703  -7.844  32.590  1.00  0.00    -0.272 OA
HETATM   25  N3  UNK     1      37.062  -9.458  34.220  1.00  0.00    -0.351 N 
HETATM   26  H13 UNK     1      37.135  -9.620  35.220  1.00  0.00     0.163 HD
BRANCH  25  27
HETATM   27  C8  UNK     1      37.262 -10.583  33.334  1.00  0.00     0.022 C 
HETATM   28  C12 UNK     1      37.712 -11.795  34.155  1.00  0.00     0.037 C 
HETATM   29  C13 UNK     1      35.946 -10.902  32.614  1.00  0.00     0.037 C 
HETATM   30  C14 UNK     1      38.338 -10.227  32.301  1.00  0.00     0.037 C 
ENDBRANCH  25  27
ENDBRANCH  22  23
ENDBRANCH   2  22
TORSDOF 7
ENDMDL
MODEL 7
REMARK VINA RESULT:      -7.7     15.374     18.261
REMARK  7 active torsions:
REMARK  status: ('A' for Active; 'I' for Inactive)
REMARK    1  A    between atoms: C19_26  and  O3_3 
REMARK    2  A    between atoms: C21_28  and  O3_3 
REMARK    3  A    between atoms: C5_12  and  N1_5 
REMARK    4  A    between atoms: C6_13  and  N2_6 
REMARK    5  A    between atoms: C8_15  and  N3_7 
REMARK       I    between atoms: C9_16  and  N3_7 
REMARK    6  A    between atoms: C5_12  and  C7_14 
REMARK    7  A    between atoms: C6_13  and  C9_16 
ROOT
HETATM    1  N1  UNK     1      30.679  -9.874  36.220  1.00  0.00     0.096 N 
HETATM    2  N2  UNK     1      30.498 -10.600  33.428  1.00  0.00     0.100 N 
HETATM    3  C1  UNK     1      29.924  -9.053  35.267  1.00  0.00     0.303 C 
HETATM    4  C2  UNK     1      31.779 -10.569  35.540  1.00  0.00     0.303 C 
HETATM    5  C3  UNK     1      29.397  -9.906  34.107  1.00  0.00     0.303 C 
HETATM    6  C4  UNK     1      31.251 -11.422  34.381  1.00  0.00     0.303 C 
ENDROOT
BRANCH   1   7
HETATM    7  C5  UNK     1      31.183  -9.058  37.323  1.00  0.00     0.312 C 
BRANCH   7   8
HETATM    8  C7  UNK     1      30.091  -8.333  38.030  1.00  0.00    -0.011 A 
HETATM    9  C10 UNK     1      30.103  -6.865  38.089  1.00  0.00     0.009 A 
HETATM   10  C15 UNK     1      29.066  -6.214  38.759  1.00  0.00     0.090 A 
HETATM   11  C16 UNK     1      31.101  -6.071  37.509  1.00  0.00     0.051 A 
HETATM   12  O2  UNK     1      28.024  -6.941  39.369  1.00  0.00    -0.275 OA
HETATM   13  C18 UNK     1      29.001  -4.824  38.862  1.00  0.00     0.041 A 
HETATM   14  C17 UNK     1      27.985  -8.326  39.328  1.00  0.00     0.288 A 
HETATM   15  C11 UNK     1      29.086  -8.999  38.619  1.00  0.00     0.092 A 
HETATM   16  O4  UNK     1      27.082  -8.968  39.855  1.00  0.00    -0.260 OA
HETATM   17  C20 UNK     1      30.002  -4.053  38.279  1.00  0.00     0.039 A 
HETATM   18  C19 UNK     1      31.050  -4.676  37.604  1.00  0.00     0.069 A 
BRANCH  18  19
HETATM   19  O3  UNK     1      32.029  -3.922  37.032  1.00  0.00    -0.351 OA
BRANCH  19  20
HETATM   20  C21 UNK     1      32.349  -4.198  35.669  1.00  0.00     0.171 C 
HETATM   21  C22 UNK     1      33.842  -4.411  35.546  1.00  0.00     0.034 C 
ENDBRANCH  19  20
ENDBRANCH  18  19
ENDBRANCH   7   8
ENDBRANCH   1   7
BRANCH   2  22
HETATM   22  C6  UNK     1      29.995 -11.414  32.324  1.00  0.00     0.374 C 
BRANCH  22  23
HETATM   23  C9  UNK     1      30.017 -10.584  31.056  1.00  0.00     0.246 C 
HETATM   24  O1  UNK     1      30.957 -10.598  30.264  1.00  0.00    -0.272 OA
HETATM   25  N3  UNK     1      28.853  -9.847  30.899  1.00  0.00    -0.351 N 
HETATM   26  H13 UNK     1      28.129  -9.920  31.608  1.00  0.00     0.163 HD
BRANCH  25  27
HETATM   27  C8  UNK     1      28.605  -8.992  29.760  1.00  0.00     0.022 C 
HETATM   28  C12 UNK     1      27.356  -8.146  30.031  1.00  0.00     0.037 C 
HETATM   29  C13 UNK     1      29.815  -8.076  29.540  1.00  0.00     0.037 C 
HETATM   30  C14 UNK     1      28.384  -9.859  28.515  1.00  0.00     0.037 C 
ENDBRANCH  25  27
ENDBRANCH  22  23
ENDBRANCH   2  22
TORSDOF 7
ENDMDL
MODEL 8
REMARK VINA RESULT:      -7.7     14.485     17.554
REMARK  7 active torsions:
REMARK  status: ('A' for Active; 'I' for Inactive)
REMARK    1  A    between atoms: C19_26  and  O3_3 
REMARK    2  A    between atoms: C21_28  and  O3_3 
REMARK    3  A    between atoms: C5_12  and  N1_5 
REMARK    4  A    between atoms: C6_13  and  N2_6 
REMARK    5  A    between atoms: C8_15  and  N3_7 
REMARK       I    between atoms: C9_16  and  N3_7 
REMARK    6  A    between atoms: C5_12  and  C7_14 
REMARK    7  A    between atoms: C6_13  and  C9_16 
ROOT
HETATM    1  N1  UNK     1      28.925  -9.445  37.477  1.00  0.00     0.096 N 
HETATM    2  N2  UNK     1      29.214  -9.428  34.601  1.00  0.00     0.100 N 
HETATM    3  C1  UNK     1      27.903  -8.844  36.612  1.00  0.00     0.303 C 
HETATM    4  C2  UNK     1      30.247  -9.362  36.844  1.00  0.00     0.303 C 
HETATM    5  C3  UNK     1      27.891  -9.513  35.233  1.00  0.00     0.303 C 
HETATM    6  C4  UNK     1      30.234 -10.032  35.466  1.00  0.00     0.303 C 
ENDROOT
BRANCH   1   7
HETATM    7  C5  UNK     1      28.936  -8.804  38.791  1.00  0.00     0.312 C 
BRANCH   7   8
HETATM    8  C7  UNK     1      28.566  -7.363  38.716  1.00  0.00    -0.011 A 
HETATM    9  C10 UNK     1      29.607  -6.349  38.508  1.00  0.00     0.009 A 
HETATM   10  C15 UNK     1      29.230  -5.006  38.442  1.00  0.00     0.090 A 
HETATM   11  C16 UNK     1      30.970  -6.647  38.370  1.00  0.00     0.051 A 
HETATM   12  O2  UNK     1      27.880  -4.623  38.570  1.00  0.00    -0.275 OA
HETATM   13  C18 UNK     1      30.154  -3.980  38.247  1.00  0.00     0.041 A 
HETATM   14  C17 UNK     1      26.876  -5.558  38.765  1.00  0.00     0.288 A 
HETATM   15  C11 UNK     1      27.289  -6.970  38.833  1.00  0.00     0.092 A 
HETATM   16  O4  UNK     1      25.697  -5.235  38.877  1.00  0.00    -0.260 OA
HETATM   17  C20 UNK     1      31.503  -4.297  38.113  1.00  0.00     0.039 A 
HETATM   18  C19 UNK     1      31.909  -5.628  38.174  1.00  0.00     0.069 A 
BRANCH  18  19
HETATM   19  O3  UNK     1      33.228  -5.940  38.042  1.00  0.00    -0.351 OA
BRANCH  19  20
HETATM   20  C21 UNK     1      33.544  -7.285  37.684  1.00  0.00     0.171 C 
HETATM   21  C22 UNK     1      34.015  -7.315  36.245  1.00  0.00     0.034 C 
ENDBRANCH  19  20
ENDBRANCH  18  19
ENDBRANCH   7   8
ENDBRANCH   1   7
BRANCH   2  22
HETATM   22  C6  UNK     1      29.202 -10.068  33.287  1.00  0.00     0.374 C 
BRANCH  22  23
HETATM   23  C9  UNK     1      28.978  -9.006  32.229  1.00  0.00     0.246 C 
HETATM   24  O1  UNK     1      29.179  -7.810  32.429  1.00  0.00    -0.272 OA
HETATM   25  N3  UNK     1      28.554  -9.555  31.028  1.00  0.00    -0.351 N 
HETATM   26  H13 UNK     1      28.434 -10.561  30.966  1.00  0.00     0.163 HD
BRANCH  25  27
HETATM   27  C8  UNK     1      28.294  -8.765  29.845  1.00  0.00     0.022 C 
HETATM   28  C12 UNK     1      27.876  -9.696  28.702  1.00  0.00     0.037 C 
HETATM   29  C13 UNK     1      27.167  -7.767  30.140  1.00  0.00     0.037 C 
HETATM   30  C14 UNK     1      29.566  -8.002  29.456  1.00  0.00     0.037 C 
ENDBRANCH  25  27
ENDBRANCH  22  23
ENDBRANCH   2  22
TORSDOF 7
ENDMDL
MODEL 9
REMARK VINA RESULT:      -7.6      1.998      4.025
REMARK  7 active torsions:
REMARK  status: ('A' for Active; 'I' for Inactive)
REMARK    1  A    between atoms: C19_26  and  O3_3 
REMARK    2  A    between atoms: C21_28  and  O3_3 
REMARK    3  A    between atoms: C5_12  and  N1_5 
REMARK    4  A    between atoms: C6_13  and  N2_6 
REMARK    5  A    between atoms: C8_15  and  N3_7 
REMARK       I    between atoms: C9_16  and  N3_7 
REMARK    6  A    between atoms: C5_12  and  C7_14 
REMARK    7  A    between atoms: C6_13  and  C9_16 
ROOT
HETATM    1  N1  UNK     1      18.427   1.527  33.926  1.00  0.00     0.096 N 
HETATM    2  N2  UNK     1      18.299   4.410  33.751  1.00  0.00     0.100 N 
HETATM    3  C1  UNK     1      17.784   2.194  32.788  1.00  0.00     0.303 C 
HETATM    4  C2  UNK     1      18.330   2.361  35.131  1.00  0.00     0.303 C 
HETATM    5  C3  UNK     1      18.398   3.577  32.546  1.00  0.00     0.303 C 
HETATM    6  C4  UNK     1      18.944   3.744  34.888  1.00  0.00     0.303 C 
ENDROOT
BRANCH   1   7
HETATM    7  C5  UNK     1      17.838   0.210  34.157  1.00  0.00     0.312 C 
BRANCH   7   8
HETATM    8  C7  UNK     1      18.835  -0.886  34.006  1.00  0.00    -0.011 A 
HETATM    9  C10 UNK     1      19.420  -1.168  32.689  1.00  0.00     0.009 A 
HETATM   10  C15 UNK     1      20.352  -2.202  32.578  1.00  0.00     0.090 A 
HETATM   11  C16 UNK     1      19.098  -0.458  31.525  1.00  0.00     0.051 A 
HETATM   12  O2  UNK     1      20.731  -2.964  33.702  1.00  0.00    -0.275 OA
HETATM   13  C18 UNK     1      20.956  -2.536  31.366  1.00  0.00     0.041 A 
HETATM   14  C17 UNK     1      20.197  -2.719  34.957  1.00  0.00     0.288 A 
HETATM   15  C11 UNK     1      19.214  -1.627  35.058  1.00  0.00     0.092 A 
HETATM   16  O4  UNK     1      20.520  -3.376  35.942  1.00  0.00    -0.260 OA
HETATM   17  C20 UNK     1      20.622  -1.818  30.221  1.00  0.00     0.039 A 
HETATM   18  C19 UNK     1      19.696  -0.781  30.301  1.00  0.00     0.069 A 
BRANCH  18  19
HETATM   19  O3  UNK     1      19.369  -0.077  29.182  1.00  0.00    -0.351 OA
BRANCH  19  20
HETATM   20  C21 UNK     1      19.161   1.326  29.335  1.00  0.00     0.171 C 
HETATM   21  C22 UNK     1      17.874   1.713  28.639  1.00  0.00     0.034 C 
ENDBRANCH  19  20
ENDBRANCH  18  19
ENDBRANCH   7   8
ENDBRANCH   1   7
BRANCH   2  22
HETATM   22  C6  UNK     1      18.886   5.728  33.519  1.00  0.00     0.374 C 
BRANCH  22  23
HETATM   23  C9  UNK     1      17.831   6.785  33.778  1.00  0.00     0.246 C 
HETATM   24  O1  UNK     1      17.962   7.668  34.622  1.00  0.00    -0.272 OA
HETATM   25  N3  UNK     1      16.739   6.642  32.935  1.00  0.00    -0.351 N 
HETATM   26  H13 UNK     1      16.738   5.883  32.260  1.00  0.00     0.163 HD
BRANCH  25  27
HETATM   27  C8  UNK     1      15.602   7.535  32.955  1.00  0.00     0.022 C 
HETATM   28  C12 UNK     1      16.079   8.961  32.660  1.00  0.00     0.037 C 
HETATM   29  C13 UNK     1      14.592   7.094  31.888  1.00  0.00     0.037 C 
HETATM   30  C14 UNK     1      14.942   7.484  34.338  1.00  0.00     0.037 C 
ENDBRANCH  25  27
ENDBRANCH  22  23
ENDBRANCH   2  22
TORSDOF 7
ENDMDL
MODEL 10
REMARK VINA RESULT:      -7.6     23.108     25.309
REMARK  7 active torsions:
REMARK  status: ('A' for Active; 'I' for Inactive)
REMARK    1  A    between atoms: C19_26  and  O3_3 
REMARK    2  A    between atoms: C21_28  and  O3_3 
REMARK    3  A    between atoms: C5_12  and  N1_5 
REMARK    4  A    between atoms: C6_13  and  N2_6 
REMARK    5  A    between atoms: C8_15  and  N3_7 
REMARK       I    between atoms: C9_16  and  N3_7 
REMARK    6  A    between atoms: C5_12  and  C7_14 
REMARK    7  A    between atoms: C6_13  and  C9_16 
ROOT
HETATM    1  N1  UNK     1      10.172   6.057   7.398  1.00  0.00     0.096 N 
HETATM    2  N2  UNK     1      12.923   6.192   8.276  1.00  0.00     0.100 N 
HETATM    3  C1  UNK     1      11.111   7.022   6.815  1.00  0.00     0.303 C 
HETATM    4  C2  UNK     1      10.546   5.751   8.785  1.00  0.00     0.303 C 
HETATM    5  C3  UNK     1      12.550   6.498   6.890  1.00  0.00     0.303 C 
HETATM    6  C4  UNK     1      11.984   5.227   8.858  1.00  0.00     0.303 C 
ENDROOT
BRANCH   1   7
HETATM    7  C5  UNK     1       8.801   6.561   7.329  1.00  0.00     0.312 C 
BRANCH   7   8
HETATM    8  C7  UNK     1       8.271   6.935   8.670  1.00  0.00    -0.011 A 
HETATM    9  C10 UNK     1       7.512   5.956   9.458  1.00  0.00     0.009 A 
HETATM   10  C15 UNK     1       7.028   6.336  10.711  1.00  0.00     0.090 A 
HETATM   11  C16 UNK     1       7.240   4.651   9.025  1.00  0.00     0.051 A 
HETATM   12  O2  UNK     1       7.260   7.630  11.218  1.00  0.00    -0.275 OA
HETATM   13  C18 UNK     1       6.298   5.468  11.523  1.00  0.00     0.041 A 
HETATM   14  C17 UNK     1       7.975   8.574  10.498  1.00  0.00     0.288 A 
HETATM   15  C11 UNK     1       8.478   8.159   9.178  1.00  0.00     0.092 A 
HETATM   16  O4  UNK     1       8.182   9.703  10.931  1.00  0.00    -0.260 OA
HETATM   17  C20 UNK     1       6.038   4.176  11.076  1.00  0.00     0.039 A 
HETATM   18  C19 UNK     1       6.509   3.769   9.829  1.00  0.00     0.069 A 
BRANCH  18  19
HETATM   19  O3  UNK     1       6.256   2.504   9.391  1.00  0.00    -0.351 OA
BRANCH  19  20
HETATM   20  C21 UNK     1       5.227   1.778  10.062  1.00  0.00     0.171 C 
HETATM   21  C22 UNK     1       4.805   0.610   9.198  1.00  0.00     0.034 C 
ENDBRANCH  19  20
ENDBRANCH  18  19
ENDBRANCH   7   8
ENDBRANCH   1   7
BRANCH   2  22
HETATM   22  C6  UNK     1      14.294   5.691   8.346  1.00  0.00     0.374 C 
BRANCH  22  23
HETATM   23  C9  UNK     1      14.959   6.259   9.583  1.00  0.00     0.246 C 
HETATM   24  O1  UNK     1      15.007   5.657  10.653  1.00  0.00    -0.272 OA
HETATM   25  N3  UNK     1      15.517   7.506   9.344  1.00  0.00    -0.351 N 
HETATM   26  H13 UNK     1      15.433   7.909   8.416  1.00  0.00     0.163 HD
BRANCH  25  27
HETATM   27  C8  UNK     1      16.236   8.258  10.349  1.00  0.00     0.022 C 
HETATM   28  C12 UNK     1      17.515   7.502  10.722  1.00  0.00     0.037 C 
HETATM   29  C13 UNK     1      16.593   9.640   9.789  1.00  0.00     0.037 C 
HETATM   30  C14 UNK     1      15.348   8.420  11.589  1.00  0.00     0.037 C 
ENDBRANCH  25  27
ENDBRANCH  22  23
ENDBRANCH   2  22
TORSDOF 7
ENDMDL
