MODEL 1
REMARK VINA RESULT:      -9.2      0.000      0.000
REMARK  3 active torsions:
REMARK  status: ('A' for Active; 'I' for Inactive)
REMARK    1  A    between atoms: C11_14  and  C4_7 
REMARK    2  A    between atoms: C11_14  and  C13_16 
REMARK    3  A    between atoms: C14_17  and  C15_18 
ROOT
HETATM    1  N1  UNK     1      19.915  -2.207  33.481  1.00  0.00    -0.350 N 
HETATM    2  N2  UNK     1      20.787  -2.477  31.262  1.00  0.00    -0.243 NA
HETATM    3  C1  UNK     1      19.490  -0.466  31.871  1.00  0.00     0.031 A 
HETATM    4  C2  UNK     1      18.926   0.779  31.515  1.00  0.00    -0.007 A 
HETATM    5  C3  UNK     1      19.334  -0.963  33.180  1.00  0.00     0.046 A 
HETATM    6  C4  UNK     1      19.097   1.248  30.204  1.00  0.00     0.025 A 
HETATM    7  C5  UNK     1      20.213  -1.224  30.923  1.00  0.00     0.071 A 
HETATM    8  C6  UNK     1      18.215   1.503  32.486  1.00  0.00     0.013 A 
HETATM    9  C7  UNK     1      19.813   0.499  29.268  1.00  0.00     0.018 A 
HETATM   10  C8  UNK     1      20.367  -0.731  29.625  1.00  0.00     0.033 A 
HETATM   11  C9  UNK     1      18.623  -0.228  34.130  1.00  0.00     0.030 A 
HETATM   12  C10 UNK     1      18.066   1.001  33.782  1.00  0.00     0.003 A 
HETATM   13  C12 UNK     1      20.598  -2.864  32.489  1.00  0.00     0.208 A 
HETATM   14  H5  UNK     1      19.815  -2.584  34.416  1.00  0.00     0.166 HD
ENDROOT
BRANCH   6  15
HETATM   15  C11 UNK     1      18.548   2.524  29.755  1.00  0.00     0.183 C 
HETATM   16  O1  UNK     1      18.286   2.711  28.560  1.00  0.00    -0.288 OA
BRANCH  15  17
HETATM   17  C13 UNK     1      18.342   3.612  30.770  1.00  0.00     0.056 C 
HETATM   18  C14 UNK     1      19.116   4.709  30.766  1.00  0.00     0.015 C 
BRANCH  18  19
HETATM   19  C15 UNK     1      19.047   5.828  31.677  1.00  0.00    -0.036 A 
HETATM   20  C16 UNK     1      20.140   6.148  32.491  1.00  0.00     0.011 A 
HETATM   21  C18 UNK     1      20.072   7.228  33.370  1.00  0.00     0.001 A 
HETATM   22  C20 UNK     1      18.910   7.997  33.442  1.00  0.00     0.000 A 
HETATM   23  C19 UNK     1      17.816   7.685  32.636  1.00  0.00     0.001 A 
HETATM   24  C17 UNK     1      17.884   6.605  31.756  1.00  0.00     0.011 A 
ENDBRANCH  18  19
ENDBRANCH  15  17
ENDBRANCH   6  15
TORSDOF 3
ENDMDL
MODEL 2
REMARK VINA RESULT:      -9.1      0.833      2.504
REMARK  3 active torsions:
REMARK  status: ('A' for Active; 'I' for Inactive)
REMARK    1  A    between atoms: C11_14  and  C4_7 
REMARK    2  A    between atoms: C11_14  and  C13_16 
REMARK    3  A    between atoms: C14_17  and  C15_18 
ROOT
HETATM    1  N1  UNK     1      20.864  -2.810  31.879  1.00  0.00    -0.350 N 
HETATM    2  N2  UNK     1      19.797  -1.860  33.807  1.00  0.00    -0.243 NA
HETATM    3  C1  UNK     1      19.751  -0.686  31.635  1.00  0.00     0.031 A 
HETATM    4  C2  UNK     1      19.356   0.420  30.852  1.00  0.00    -0.007 A 
HETATM    5  C3  UNK     1      20.495  -1.733  31.055  1.00  0.00     0.046 A 
HETATM    6  C4  UNK     1      18.616   1.447  31.457  1.00  0.00     0.025 A 
HETATM    7  C5  UNK     1      19.408  -0.757  33.004  1.00  0.00     0.071 A 
HETATM    8  C6  UNK     1      19.716   0.453  29.495  1.00  0.00     0.013 A 
HETATM    9  C7  UNK     1      18.277   1.376  32.810  1.00  0.00     0.018 A 
HETATM   10  C8  UNK     1      18.671   0.281  33.580  1.00  0.00     0.033 A 
HETATM   11  C9  UNK     1      20.844  -1.681  29.704  1.00  0.00     0.030 A 
HETATM   12  C10 UNK     1      20.454  -0.590  28.928  1.00  0.00     0.003 A 
HETATM   13  C12 UNK     1      20.480  -2.782  33.196  1.00  0.00     0.208 A 
HETATM   14  H5  UNK     1      21.399  -3.573  31.484  1.00  0.00     0.166 HD
ENDROOT
BRANCH   6  15
HETATM   15  C11 UNK     1      18.167   2.624  30.719  1.00  0.00     0.183 C 
HETATM   16  O1  UNK     1      17.444   2.504  29.722  1.00  0.00    -0.288 OA
BRANCH  15  17
HETATM   17  C13 UNK     1      18.628   3.977  31.181  1.00  0.00     0.056 C 
HETATM   18  C14 UNK     1      17.923   4.668  32.090  1.00  0.00     0.015 C 
BRANCH  18  19
HETATM   19  C15 UNK     1      18.231   5.975  32.622  1.00  0.00    -0.036 A 
HETATM   20  C16 UNK     1      19.488   6.234  33.181  1.00  0.00     0.011 A 
HETATM   21  C18 UNK     1      19.785   7.496  33.695  1.00  0.00     0.001 A 
HETATM   22  C20 UNK     1      18.827   8.509  33.653  1.00  0.00     0.000 A 
HETATM   23  C19 UNK     1      17.572   8.260  33.099  1.00  0.00     0.001 A 
HETATM   24  C17 UNK     1      17.275   6.998  32.585  1.00  0.00     0.011 A 
ENDBRANCH  18  19
ENDBRANCH  15  17
ENDBRANCH   6  15
TORSDOF 3
ENDMDL
MODEL 3
REMARK VINA RESULT:      -9.1      6.778      9.364
REMARK  3 active torsions:
REMARK  status: ('A' for Active; 'I' for Inactive)
REMARK    1  A    between atoms: C11_14  and  C4_7 
REMARK    2  A    between atoms: C11_14  and  C13_16 
REMARK    3  A    between atoms: C14_17  and  C15_18 
ROOT
HETATM    1  N1  UNK     1      20.897  -9.976  38.710  1.00  0.00    -0.350 N 
HETATM    2  N2  UNK     1      19.088  -9.761  37.149  1.00  0.00    -0.243 NA
HETATM    3  C1  UNK     1      20.419  -7.790  37.815  1.00  0.00     0.031 A 
HETATM    4  C2  UNK     1      20.683  -6.407  37.724  1.00  0.00    -0.007 A 
HETATM    5  C3  UNK     1      21.202  -8.606  38.656  1.00  0.00     0.046 A 
HETATM    6  C4  UNK     1      19.886  -5.620  36.879  1.00  0.00     0.025 A 
HETATM    7  C5  UNK     1      19.369  -8.372  37.070  1.00  0.00     0.071 A 
HETATM    8  C6  UNK     1      21.736  -5.867  38.481  1.00  0.00     0.013 A 
HETATM    9  C7  UNK     1      18.849  -6.196  36.141  1.00  0.00     0.018 A 
HETATM   10  C8  UNK     1      18.591  -7.564  36.236  1.00  0.00     0.033 A 
HETATM   11  C9  UNK     1      22.244  -8.049  39.401  1.00  0.00     0.030 A 
HETATM   12  C10 UNK     1      22.508  -6.683  39.311  1.00  0.00     0.003 A 
HETATM   13  C12 UNK     1      19.857 -10.442  37.945  1.00  0.00     0.208 A 
HETATM   14  H5  UNK     1      21.447 -10.581  39.308  1.00  0.00     0.166 HD
ENDROOT
BRANCH   6  15
HETATM   15  C11 UNK     1      20.093  -4.184  36.725  1.00  0.00     0.183 C 
HETATM   16  O1  UNK     1      21.224  -3.730  36.513  1.00  0.00    -0.288 OA
BRANCH  15  17
HETATM   17  C13 UNK     1      18.907  -3.271  36.862  1.00  0.00     0.056 C 
HETATM   18  C14 UNK     1      18.914  -2.050  36.303  1.00  0.00     0.015 C 
BRANCH  18  19
HETATM   19  C15 UNK     1      17.861  -1.063  36.355  1.00  0.00    -0.036 A 
HETATM   20  C16 UNK     1      17.791  -0.158  37.421  1.00  0.00     0.011 A 
HETATM   21  C18 UNK     1      16.774   0.796  37.471  1.00  0.00     0.001 A 
HETATM   22  C20 UNK     1      15.820   0.851  36.455  1.00  0.00     0.000 A 
HETATM   23  C19 UNK     1      15.882  -0.047  35.389  1.00  0.00     0.001 A 
HETATM   24  C17 UNK     1      16.899  -1.000  35.339  1.00  0.00     0.011 A 
ENDBRANCH  18  19
ENDBRANCH  15  17
ENDBRANCH   6  15
TORSDOF 3
ENDMDL
MODEL 4
REMARK VINA RESULT:      -9.0      2.831      6.665
REMARK  3 active torsions:
REMARK  status: ('A' for Active; 'I' for Inactive)
REMARK    1  A    between atoms: C11_14  and  C4_7 
REMARK    2  A    between atoms: C11_14  and  C13_16 
REMARK    3  A    between atoms: C14_17  and  C15_18 
ROOT
HETATM    1  N1  UNK     1      18.994   5.770  34.507  1.00  0.00    -0.350 N 
HETATM    2  N2  UNK     1      19.510   7.045  32.540  1.00  0.00    -0.243 NA
HETATM    3  C1  UNK     1      18.813   4.682  32.364  1.00  0.00     0.031 A 
HETATM    4  C2  UNK     1      18.527   3.549  31.573  1.00  0.00    -0.007 A 
HETATM    5  C3  UNK     1      18.698   4.613  33.766  1.00  0.00     0.046 A 
HETATM    6  C4  UNK     1      18.651   3.647  30.179  1.00  0.00     0.025 A 
HETATM    7  C5  UNK     1      19.218   5.895  31.762  1.00  0.00     0.071 A 
HETATM    8  C6  UNK     1      18.127   2.362  32.209  1.00  0.00     0.013 A 
HETATM    9  C7  UNK     1      19.050   4.847  29.585  1.00  0.00     0.018 A 
HETATM   10  C8  UNK     1      19.332   5.964  30.371  1.00  0.00     0.033 A 
HETATM   11  C9  UNK     1      18.300   3.423  34.380  1.00  0.00     0.030 A 
HETATM   12  C10 UNK     1      18.016   2.302  33.601  1.00  0.00     0.003 A 
HETATM   13  C12 UNK     1      19.378   6.897  33.825  1.00  0.00     0.208 A 
HETATM   14  H5  UNK     1      18.919   5.743  35.516  1.00  0.00     0.166 HD
ENDROOT
BRANCH   6  15
HETATM   15  C11 UNK     1      18.373   2.524  29.289  1.00  0.00     0.183 C 
HETATM   16  O1  UNK     1      17.932   2.718  28.149  1.00  0.00    -0.288 OA
BRANCH  15  17
HETATM   17  C13 UNK     1      18.604   1.131  29.801  1.00  0.00     0.056 C 
HETATM   18  C14 UNK     1      19.850   0.651  29.943  1.00  0.00     0.015 C 
BRANCH  18  19
HETATM   19  C15 UNK     1      20.230  -0.661  30.411  1.00  0.00    -0.036 A 
HETATM   20  C16 UNK     1      20.299  -0.932  31.782  1.00  0.00     0.011 A 
HETATM   21  C18 UNK     1      20.666  -2.199  32.234  1.00  0.00     0.001 A 
HETATM   22  C20 UNK     1      20.968  -3.206  31.317  1.00  0.00     0.000 A 
HETATM   23  C19 UNK     1      20.903  -2.945  29.948  1.00  0.00     0.001 A 
HETATM   24  C17 UNK     1      20.535  -1.678  29.497  1.00  0.00     0.011 A 
ENDBRANCH  18  19
ENDBRANCH  15  17
ENDBRANCH   6  15
TORSDOF 3
ENDMDL
MODEL 5
REMARK VINA RESULT:      -9.0      6.385      9.553
REMARK  3 active torsions:
REMARK  status: ('A' for Active; 'I' for Inactive)
REMARK    1  A    between atoms: C11_14  and  C4_7 
REMARK    2  A    between atoms: C11_14  and  C13_16 
REMARK    3  A    between atoms: C14_17  and  C15_18 
ROOT
HETATM    1  N1  UNK     1      21.154  -9.481  39.415  1.00  0.00    -0.350 N 
HETATM    2  N2  UNK     1      18.995  -9.259  38.393  1.00  0.00    -0.243 NA
HETATM    3  C1  UNK     1      20.591  -7.374  38.391  1.00  0.00     0.031 A 
HETATM    4  C2  UNK     1      20.912  -6.045  38.040  1.00  0.00    -0.007 A 
HETATM    5  C3  UNK     1      21.524  -8.165  39.090  1.00  0.00     0.046 A 
HETATM    6  C4  UNK     1      19.963  -5.281  37.345  1.00  0.00     0.025 A 
HETATM    7  C5  UNK     1      19.336  -7.924  38.048  1.00  0.00     0.071 A 
HETATM    8  C6  UNK     1      22.171  -5.535  38.399  1.00  0.00     0.013 A 
HETATM    9  C7  UNK     1      18.723  -5.826  37.005  1.00  0.00     0.018 A 
HETATM   10  C8  UNK     1      18.410  -7.140  37.355  1.00  0.00     0.033 A 
HETATM   11  C9  UNK     1      22.770  -7.639  39.438  1.00  0.00     0.030 A 
HETATM   12  C10 UNK     1      23.089  -6.327  39.092  1.00  0.00     0.003 A 
HETATM   13  C12 UNK     1      19.910  -9.920  39.035  1.00  0.00     0.208 A 
HETATM   14  H5  UNK     1      21.809 -10.068  39.918  1.00  0.00     0.166 HD
ENDROOT
BRANCH   6  15
HETATM   15  C11 UNK     1      20.215  -3.900  36.943  1.00  0.00     0.183 C 
HETATM   16  O1  UNK     1      20.325  -3.008  37.792  1.00  0.00    -0.288 OA
BRANCH  15  17
HETATM   17  C13 UNK     1      20.305  -3.587  35.476  1.00  0.00     0.056 C 
HETATM   18  C14 UNK     1      19.871  -2.410  34.999  1.00  0.00     0.015 C 
BRANCH  18  19
HETATM   19  C15 UNK     1      19.883  -1.970  33.624  1.00  0.00    -0.036 A 
HETATM   20  C16 UNK     1      18.986  -0.987  33.187  1.00  0.00     0.011 A 
HETATM   21  C18 UNK     1      18.997  -0.563  31.858  1.00  0.00     0.001 A 
HETATM   22  C20 UNK     1      19.905  -1.117  30.957  1.00  0.00     0.000 A 
HETATM   23  C19 UNK     1      20.802  -2.097  31.383  1.00  0.00     0.001 A 
HETATM   24  C17 UNK     1      20.791  -2.522  32.711  1.00  0.00     0.011 A 
ENDBRANCH  18  19
ENDBRANCH  15  17
ENDBRANCH   6  15
TORSDOF 3
ENDMDL
MODEL 6
REMARK VINA RESULT:      -8.9      3.384      5.356
REMARK  3 active torsions:
REMARK  status: ('A' for Active; 'I' for Inactive)
REMARK    1  A    between atoms: C11_14  and  C4_7 
REMARK    2  A    between atoms: C11_14  and  C13_16 
REMARK    3  A    between atoms: C14_17  and  C15_18 
ROOT
HETATM    1  N1  UNK     1      18.260   1.531  30.727  1.00  0.00    -0.350 N 
HETATM    2  N2  UNK     1      18.690   3.179  29.037  1.00  0.00    -0.243 NA
HETATM    3  C1  UNK     1      18.593   3.814  31.421  1.00  0.00     0.031 A 
HETATM    4  C2  UNK     1      18.675   4.801  32.427  1.00  0.00    -0.007 A 
HETATM    5  C3  UNK     1      18.332   2.473  31.767  1.00  0.00     0.046 A 
HETATM    6  C4  UNK     1      18.935   6.128  32.053  1.00  0.00     0.025 A 
HETATM    7  C5  UNK     1      18.769   4.157  30.062  1.00  0.00     0.071 A 
HETATM    8  C6  UNK     1      18.494   4.420  33.767  1.00  0.00     0.013 A 
HETATM    9  C7  UNK     1      19.110   6.466  30.710  1.00  0.00     0.018 A 
HETATM   10  C8  UNK     1      19.027   5.487  29.719  1.00  0.00     0.033 A 
HETATM   11  C9  UNK     1      18.155   2.115  33.104  1.00  0.00     0.030 A 
HETATM   12  C10 UNK     1      18.237   3.087  34.100  1.00  0.00     0.003 A 
HETATM   13  C12 UNK     1      18.447   1.967  29.439  1.00  0.00     0.208 A 
HETATM   14  H5  UNK     1      18.073   0.561  30.952  1.00  0.00     0.166 HD
ENDROOT
BRANCH   6  15
HETATM   15  C11 UNK     1      19.038   7.208  33.030  1.00  0.00     0.183 C 
HETATM   16  O1  UNK     1      20.127   7.489  33.546  1.00  0.00    -0.288 OA
BRANCH  15  17
HETATM   17  C13 UNK     1      17.787   7.946  33.414  1.00  0.00     0.056 C 
HETATM   18  C14 UNK     1      17.849   9.208  33.870  1.00  0.00     0.015 C 
BRANCH  18  19
HETATM   19  C15 UNK     1      16.743  10.039  34.285  1.00  0.00    -0.036 A 
HETATM   20  C16 UNK     1      15.528   9.460  34.672  1.00  0.00     0.011 A 
HETATM   21  C18 UNK     1      14.461  10.264  35.072  1.00  0.00     0.001 A 
HETATM   22  C20 UNK     1      14.600  11.651  35.089  1.00  0.00     0.000 A 
HETATM   23  C19 UNK     1      15.806  12.236  34.704  1.00  0.00     0.001 A 
HETATM   24  C17 UNK     1      16.874  11.433  34.304  1.00  0.00     0.011 A 
ENDBRANCH  18  19
ENDBRANCH  15  17
ENDBRANCH   6  15
TORSDOF 3
ENDMDL
MODEL 7
REMARK VINA RESULT:      -8.8     13.929     16.277
REMARK  3 active torsions:
REMARK  status: ('A' for Active; 'I' for Inactive)
REMARK    1  A    between atoms: C11_14  and  C4_7 
REMARK    2  A    between atoms: C11_14  and  C13_16 
REMARK    3  A    between atoms: C14_17  and  C15_18 
ROOT
HETATM    1  N1  UNK     1      31.024  -4.581  36.553  1.00  0.00    -0.350 N 
HETATM    2  N2  UNK     1      29.486  -4.091  38.328  1.00  0.00    -0.243 NA
HETATM    3  C1  UNK     1      29.884  -6.421  37.613  1.00  0.00     0.031 A 
HETATM    4  C2  UNK     1      29.622  -7.801  37.745  1.00  0.00    -0.007 A 
HETATM    5  C3  UNK     1      30.799  -5.965  36.643  1.00  0.00     0.046 A 
HETATM    6  C4  UNK     1      28.706  -8.225  38.719  1.00  0.00     0.025 A 
HETATM    7  C5  UNK     1      29.235  -5.483  38.447  1.00  0.00     0.071 A 
HETATM    8  C6  UNK     1      30.288  -8.702  36.897  1.00  0.00     0.013 A 
HETATM    9  C7  UNK     1      28.065  -7.298  39.544  1.00  0.00     0.018 A 
HETATM   10  C8  UNK     1      28.328  -5.934  39.408  1.00  0.00     0.033 A 
HETATM   11  C9  UNK     1      31.451  -6.877  35.810  1.00  0.00     0.030 A 
HETATM   12  C10 UNK     1      31.194  -8.241  35.939  1.00  0.00     0.003 A 
HETATM   13  C12 UNK     1      30.343  -3.754  37.411  1.00  0.00     0.208 A 
HETATM   14  H5  UNK     1      31.677  -4.231  35.863  1.00  0.00     0.166 HD
ENDROOT
BRANCH   6  15
HETATM   15  C11 UNK     1      28.379  -9.633  38.923  1.00  0.00     0.183 C 
HETATM   16  O1  UNK     1      29.215 -10.412  39.396  1.00  0.00    -0.288 OA
BRANCH  15  17
HETATM   17  C13 UNK     1      27.017 -10.118  38.514  1.00  0.00     0.056 C 
HETATM   18  C14 UNK     1      26.641 -10.099  37.225  1.00  0.00     0.015 C 
BRANCH  18  19
HETATM   19  C15 UNK     1      25.371 -10.519  36.681  1.00  0.00    -0.036 A 
HETATM   20  C16 UNK     1      24.277  -9.646  36.680  1.00  0.00     0.011 A 
HETATM   21  C18 UNK     1      23.050 -10.053  36.155  1.00  0.00     0.001 A 
HETATM   22  C20 UNK     1      22.908 -11.336  35.628  1.00  0.00     0.000 A 
HETATM   23  C19 UNK     1      23.993 -12.213  35.626  1.00  0.00     0.001 A 
HETATM   24  C17 UNK     1      25.219 -11.806  36.150  1.00  0.00     0.011 A 
ENDBRANCH  18  19
ENDBRANCH  15  17
ENDBRANCH   6  15
TORSDOF 3
ENDMDL
MODEL 8
REMARK VINA RESULT:      -8.8      6.705      8.970
REMARK  3 active torsions:
REMARK  status: ('A' for Active; 'I' for Inactive)
REMARK    1  A    between atoms: C11_14  and  C4_7 
REMARK    2  A    between atoms: C11_14  and  C13_16 
REMARK    3  A    between atoms: C14_17  and  C15_18 
ROOT
HETATM    1  N1  UNK     1      20.134  -9.523  38.453  1.00  0.00    -0.350 N 
HETATM    2  N2  UNK     1      21.768  -8.055  39.419  1.00  0.00    -0.243 NA
HETATM    3  C1  UNK     1      20.246  -7.256  37.646  1.00  0.00     0.031 A 
HETATM    4  C2  UNK     1      19.794  -6.222  36.798  1.00  0.00    -0.007 A 
HETATM    5  C3  UNK     1      19.647  -8.530  37.588  1.00  0.00     0.046 A 
HETATM    6  C4  UNK     1      20.410  -4.964  36.878  1.00  0.00     0.025 A 
HETATM    7  C5  UNK     1      21.300  -7.028  38.558  1.00  0.00     0.071 A 
HETATM    8  C6  UNK     1      18.743  -6.488  35.904  1.00  0.00     0.013 A 
HETATM    9  C7  UNK     1      21.452  -4.739  37.781  1.00  0.00     0.018 A 
HETATM   10  C8  UNK     1      21.895  -5.765  38.616  1.00  0.00     0.033 A 
HETATM   11  C9  UNK     1      18.603  -8.774  36.692  1.00  0.00     0.030 A 
HETATM   12  C10 UNK     1      18.155  -7.754  35.854  1.00  0.00     0.003 A 
HETATM   13  C12 UNK     1      21.162  -9.199  39.303  1.00  0.00     0.208 A 
HETATM   14  H5  UNK     1      19.718 -10.447  38.429  1.00  0.00     0.166 HD
ENDROOT
BRANCH   6  15
HETATM   15  C11 UNK     1      20.004  -3.841  36.039  1.00  0.00     0.183 C 
HETATM   16  O1  UNK     1      20.469  -3.704  34.900  1.00  0.00    -0.288 OA
BRANCH  15  17
HETATM   17  C13 UNK     1      19.034  -2.842  36.602  1.00  0.00     0.056 C 
HETATM   18  C14 UNK     1      18.673  -1.761  35.891  1.00  0.00     0.015 C 
BRANCH  18  19
HETATM   19  C15 UNK     1      17.765  -0.714  36.298  1.00  0.00    -0.036 A 
HETATM   20  C16 UNK     1      16.568  -0.506  35.603  1.00  0.00     0.011 A 
HETATM   21  C18 UNK     1      15.691   0.506  35.995  1.00  0.00     0.001 A 
HETATM   22  C20 UNK     1      16.005   1.316  37.087  1.00  0.00     0.000 A 
HETATM   23  C19 UNK     1      17.196   1.116  37.785  1.00  0.00     0.001 A 
HETATM   24  C17 UNK     1      18.072   0.105  37.392  1.00  0.00     0.011 A 
ENDBRANCH  18  19
ENDBRANCH  15  17
ENDBRANCH   6  15
TORSDOF 3
ENDMDL
MODEL 9
REMARK VINA RESULT:      -8.8      7.112     10.401
REMARK  3 active torsions:
REMARK  status: ('A' for Active; 'I' for Inactive)
REMARK    1  A    between atoms: C11_14  and  C4_7 
REMARK    2  A    between atoms: C11_14  and  C13_16 
REMARK    3  A    between atoms: C14_17  and  C15_18 
ROOT
HETATM    1  N1  UNK     1      19.991 -11.271  37.491  1.00  0.00    -0.350 N 
HETATM    2  N2  UNK     1      19.371 -10.219  39.556  1.00  0.00    -0.243 NA
HETATM    3  C1  UNK     1      20.321  -8.893  37.702  1.00  0.00     0.031 A 
HETATM    4  C2  UNK     1      20.741  -7.652  37.176  1.00  0.00    -0.007 A 
HETATM    5  C3  UNK     1      20.423 -10.062  36.921  1.00  0.00     0.046 A 
HETATM    6  C4  UNK     1      20.628  -6.506  37.977  1.00  0.00     0.025 A 
HETATM    7  C5  UNK     1      19.798  -8.979  39.011  1.00  0.00     0.071 A 
HETATM    8  C6  UNK     1      21.256  -7.609  35.870  1.00  0.00     0.013 A 
HETATM    9  C7  UNK     1      20.110  -6.592  39.271  1.00  0.00     0.018 A 
HETATM   10  C8  UNK     1      19.697  -7.821  39.786  1.00  0.00     0.033 A 
HETATM   11  C9  UNK     1      20.938  -9.997  35.625  1.00  0.00     0.030 A 
HETATM   12  C10 UNK     1      21.352  -8.772  35.103  1.00  0.00     0.003 A 
HETATM   13  C12 UNK     1      19.497 -11.247  38.772  1.00  0.00     0.208 A 
HETATM   14  H5  UNK     1      20.055 -12.124  36.949  1.00  0.00     0.166 HD
ENDROOT
BRANCH   6  15
HETATM   15  C11 UNK     1      21.037  -5.185  37.511  1.00  0.00     0.183 C 
HETATM   16  O1  UNK     1      22.216  -4.821  37.604  1.00  0.00    -0.288 OA
BRANCH  15  17
HETATM   17  C13 UNK     1      19.989  -4.269  36.947  1.00  0.00     0.056 C 
HETATM   18  C14 UNK     1      19.988  -2.960  37.247  1.00  0.00     0.015 C 
BRANCH  18  19
HETATM   19  C15 UNK     1      19.048  -1.962  36.794  1.00  0.00    -0.036 A 
HETATM   20  C16 UNK     1      18.127  -1.400  37.685  1.00  0.00     0.011 A 
HETATM   21  C18 UNK     1      17.219  -0.437  37.247  1.00  0.00     0.001 A 
HETATM   22  C20 UNK     1      17.225  -0.028  35.913  1.00  0.00     0.000 A 
HETATM   23  C19 UNK     1      18.138  -0.584  35.017  1.00  0.00     0.001 A 
HETATM   24  C17 UNK     1      19.047  -1.547  35.456  1.00  0.00     0.011 A 
ENDBRANCH  18  19
ENDBRANCH  15  17
ENDBRANCH   6  15
TORSDOF 3
ENDMDL
MODEL 10
REMARK VINA RESULT:      -8.8      4.760      8.608
REMARK  3 active torsions:
REMARK  status: ('A' for Active; 'I' for Inactive)
REMARK    1  A    between atoms: C11_14  and  C4_7 
REMARK    2  A    between atoms: C11_14  and  C13_16 
REMARK    3  A    between atoms: C14_17  and  C15_18 
ROOT
HETATM    1  N1  UNK     1      16.392  10.759  33.789  1.00  0.00    -0.350 N 
HETATM    2  N2  UNK     1      18.733  10.493  34.244  1.00  0.00    -0.243 NA
HETATM    3  C1  UNK     1      17.371   8.579  33.481  1.00  0.00     0.031 A 
HETATM    4  C2  UNK     1      17.268   7.215  33.130  1.00  0.00    -0.007 A 
HETATM    5  C3  UNK     1      16.235   9.410  33.429  1.00  0.00     0.046 A 
HETATM    6  C4  UNK     1      18.417   6.412  33.192  1.00  0.00     0.025 A 
HETATM    7  C5  UNK     1      18.610   9.124  33.887  1.00  0.00     0.071 A 
HETATM    8  C6  UNK     1      16.019   6.711  32.731  1.00  0.00     0.013 A 
HETATM    9  C7  UNK     1      19.641   6.953  33.592  1.00  0.00     0.018 A 
HETATM   10  C8  UNK     1      19.737   8.300  33.939  1.00  0.00     0.033 A 
HETATM   11  C9  UNK     1      15.002   8.889  33.030  1.00  0.00     0.030 A 
HETATM   12  C10 UNK     1      14.898   7.543  32.682  1.00  0.00     0.003 A 
HETATM   13  C12 UNK     1      17.639  11.189  34.169  1.00  0.00     0.208 A 
HETATM   14  H5  UNK     1      15.589  11.374  33.760  1.00  0.00     0.166 HD
ENDROOT
BRANCH   6  15
HETATM   15  C11 UNK     1      18.398   4.995  32.844  1.00  0.00     0.183 C 
HETATM   16  O1  UNK     1      18.404   4.636  31.660  1.00  0.00    -0.288 OA
BRANCH  15  17
HETATM   17  C13 UNK     1      18.337   3.987  33.956  1.00  0.00     0.056 C 
HETATM   18  C14 UNK     1      18.216   2.676  33.688  1.00  0.00     0.015 C 
BRANCH  18  19
HETATM   19  C15 UNK     1      18.136   1.595  34.642  1.00  0.00    -0.036 A 
HETATM   20  C16 UNK     1      18.156   0.265  34.208  1.00  0.00     0.011 A 
HETATM   21  C18 UNK     1      18.078  -0.779  35.130  1.00  0.00     0.001 A 
HETATM   22  C20 UNK     1      17.981  -0.500  36.493  1.00  0.00     0.000 A 
HETATM   23  C19 UNK     1      17.960   0.823  36.935  1.00  0.00     0.001 A 
HETATM   24  C17 UNK     1      18.038   1.867  36.013  1.00  0.00     0.011 A 
ENDBRANCH  18  19
ENDBRANCH  15  17
ENDBRANCH   6  15
TORSDOF 3
ENDMDL
