MODEL 1
REMARK VINA RESULT:      -7.1      0.000      0.000
REMARK  3 active torsions:
REMARK  status: ('A' for Active; 'I' for Inactive)
REMARK    1  A    between atoms: C6_11  and  O2_2 
REMARK    2  A    between atoms: C10_15  and  O4_4 
REMARK    3  A    between atoms: C10_15  and  C7_12 
ROOT
HETATM    1  O1  UNK     1      18.224   3.106  32.861  1.00  0.00    -0.274 OA
HETATM    2  O3  UNK     1      18.329   1.012  31.953  1.00  0.00    -0.259 OA
HETATM    3  C1  UNK     1      18.494   5.050  31.427  1.00  0.00    -0.001 A 
HETATM    4  C2  UNK     1      18.280   4.502  32.687  1.00  0.00     0.092 A 
HETATM    5  C3  UNK     1      18.660   4.158  30.290  1.00  0.00     0.039 A 
HETATM    6  C4  UNK     1      18.544   6.440  31.297  1.00  0.00     0.017 A 
HETATM    7  C5  UNK     1      18.113   5.301  33.817  1.00  0.00     0.075 A 
HETATM    8  C6  UNK     1      18.164   6.687  33.677  1.00  0.00     0.070 A 
HETATM    9  C7  UNK     1      18.605   2.831  30.461  1.00  0.00     0.114 A 
HETATM   10  C8  UNK     1      18.379   7.255  32.420  1.00  0.00     0.038 A 
HETATM   11  C9  UNK     1      18.378   2.226  31.793  1.00  0.00     0.305 A 
ENDROOT
BRANCH   9  12
HETATM   12  C10 UNK     1      18.784   2.015  29.255  1.00  0.00     0.182 C 
HETATM   13  O5  UNK     1      18.103   2.113  28.252  1.00  0.00    -0.646 OA
BRANCH  12  14
HETATM   14  O4  UNK     1      19.807   1.156  29.440  1.00  0.00    -0.772 OA
HETATM   15  H8  UNK     1      20.549   1.566  29.933  1.00  0.00     0.167 HD
ENDBRANCH  12  14
ENDBRANCH   9  12
BRANCH   8  16
HETATM   16  O2  UNK     1      18.004   7.487  34.766  1.00  0.00    -0.356 OA
HETATM   17  C11 UNK     1      16.691   7.987  35.017  1.00  0.00     0.210 C 
ENDBRANCH   8  16
TORSDOF 3
ENDMDL
MODEL 2
REMARK VINA RESULT:      -6.8     13.363     16.111
REMARK  3 active torsions:
REMARK  status: ('A' for Active; 'I' for Inactive)
REMARK    1  A    between atoms: C6_11  and  O2_2 
REMARK    2  A    between atoms: C10_15  and  O4_4 
REMARK    3  A    between atoms: C10_15  and  C7_12 
ROOT
HETATM    1  O1  UNK     1      19.321   0.707  15.154  1.00  0.00    -0.274 OA
HETATM    2  O3  UNK     1      19.258  -0.686  13.344  1.00  0.00    -0.259 OA
HETATM    3  C1  UNK     1      18.883  -0.187  17.372  1.00  0.00    -0.001 A 
HETATM    4  C2  UNK     1      19.193   0.888  16.545  1.00  0.00     0.092 A 
HETATM    5  C3  UNK     1      18.693  -1.500  16.777  1.00  0.00     0.039 A 
HETATM    6  C4  UNK     1      18.764   0.033  18.746  1.00  0.00     0.017 A 
HETATM    7  C5  UNK     1      19.388   2.172  17.051  1.00  0.00     0.075 A 
HETATM    8  C6  UNK     1      19.267   2.382  18.424  1.00  0.00     0.070 A 
HETATM    9  C7  UNK     1      18.816  -1.666  15.455  1.00  0.00     0.114 A 
HETATM   10  C8  UNK     1      18.956   1.315  19.269  1.00  0.00     0.038 A 
HETATM   11  C9  UNK     1      19.146  -0.537  14.556  1.00  0.00     0.305 A 
ENDROOT
BRANCH   9  12
HETATM   12  C10 UNK     1      18.606  -3.028  14.950  1.00  0.00     0.182 C 
HETATM   13  O5  UNK     1      19.024  -4.034  15.491  1.00  0.00    -0.646 OA
BRANCH  12  14
HETATM   14  O4  UNK     1      17.887  -2.980  13.810  1.00  0.00    -0.772 OA
HETATM   15  H8  UNK     1      18.453  -3.050  13.013  1.00  0.00     0.167 HD
ENDBRANCH  12  14
ENDBRANCH   9  12
BRANCH   8  16
HETATM   16  O2  UNK     1      19.453   3.627  18.940  1.00  0.00    -0.356 OA
HETATM   17  C11 UNK     1      20.599   4.351  18.493  1.00  0.00     0.210 C 
ENDBRANCH   8  16
TORSDOF 3
ENDMDL
MODEL 3
REMARK VINA RESULT:      -6.8      3.580      6.324
REMARK  3 active torsions:
REMARK  status: ('A' for Active; 'I' for Inactive)
REMARK    1  A    between atoms: C6_11  and  O2_2 
REMARK    2  A    between atoms: C10_15  and  O4_4 
REMARK    3  A    between atoms: C10_15  and  C7_12 
ROOT
HETATM    1  O1  UNK     1      18.515   0.895  32.601  1.00  0.00    -0.274 OA
HETATM    2  O3  UNK     1      17.572   2.868  31.937  1.00  0.00    -0.259 OA
HETATM    3  C1  UNK     1      19.762  -0.438  30.995  1.00  0.00    -0.001 A 
HETATM    4  C2  UNK     1      19.271  -0.250  32.283  1.00  0.00     0.092 A 
HETATM    5  C3  UNK     1      19.483   0.567  29.981  1.00  0.00     0.039 A 
HETATM    6  C4  UNK     1      20.507  -1.587  30.719  1.00  0.00     0.017 A 
HETATM    7  C5  UNK     1      19.503  -1.174  33.299  1.00  0.00     0.075 A 
HETATM    8  C6  UNK     1      20.247  -2.318  33.015  1.00  0.00     0.070 A 
HETATM    9  C7  UNK     1      18.764   1.654  30.289  1.00  0.00     0.114 A 
HETATM   10  C8  UNK     1      20.748  -2.523  31.728  1.00  0.00     0.038 A 
HETATM   11  C9  UNK     1      18.232   1.874  31.653  1.00  0.00     0.305 A 
ENDROOT
BRANCH   9  12
HETATM   12  C10 UNK     1      18.535   2.610  29.199  1.00  0.00     0.182 C 
HETATM   13  O5  UNK     1      17.969   2.341  28.158  1.00  0.00    -0.646 OA
BRANCH  12  14
HETATM   14  O4  UNK     1      19.049   3.810  29.539  1.00  0.00    -0.772 OA
HETATM   15  H8  UNK     1      18.477   4.552  29.247  1.00  0.00     0.167 HD
ENDBRANCH  12  14
ENDBRANCH   9  12
BRANCH   8  16
HETATM   16  O2  UNK     1      20.487  -3.234  33.992  1.00  0.00    -0.356 OA
HETATM   17  C11 UNK     1      20.119  -2.875  35.324  1.00  0.00     0.210 C 
ENDBRANCH   8  16
TORSDOF 3
ENDMDL
MODEL 4
REMARK VINA RESULT:      -6.7     21.612     24.115
REMARK  3 active torsions:
REMARK  status: ('A' for Active; 'I' for Inactive)
REMARK    1  A    between atoms: C6_11  and  O2_2 
REMARK    2  A    between atoms: C10_15  and  O4_4 
REMARK    3  A    between atoms: C10_15  and  C7_12 
ROOT
HETATM    1  O1  UNK     1      14.408   4.934   8.545  1.00  0.00    -0.274 OA
HETATM    2  O3  UNK     1      16.439   4.565   9.524  1.00  0.00    -0.259 OA
HETATM    3  C1  UNK     1      13.407   7.147   8.654  1.00  0.00    -0.001 A 
HETATM    4  C2  UNK     1      13.356   5.819   8.241  1.00  0.00     0.092 A 
HETATM    5  C3  UNK     1      14.565   7.605   9.406  1.00  0.00     0.039 A 
HETATM    6  C4  UNK     1      12.344   7.994   8.334  1.00  0.00     0.017 A 
HETATM    7  C5  UNK     1      12.276   5.317   7.518  1.00  0.00     0.075 A 
HETATM    8  C6  UNK     1      11.219   6.170   7.202  1.00  0.00     0.070 A 
HETATM    9  C7  UNK     1      15.562   6.759   9.692  1.00  0.00     0.114 A 
HETATM   10  C8  UNK     1      11.254   7.504   7.609  1.00  0.00     0.038 A 
HETATM   11  C9  UNK     1      15.528   5.343   9.262  1.00  0.00     0.305 A 
ENDROOT
BRANCH   9  12
HETATM   12  C10 UNK     1      16.686   7.316  10.455  1.00  0.00     0.182 C 
HETATM   13  O5  UNK     1      16.568   7.969  11.473  1.00  0.00    -0.646 OA
BRANCH  12  14
HETATM   14  O4  UNK     1      17.846   6.989   9.850  1.00  0.00    -0.772 OA
HETATM   15  H8  UNK     1      18.490   7.728   9.863  1.00  0.00     0.167 HD
ENDBRANCH  12  14
ENDBRANCH   9  12
BRANCH   8  16
HETATM   16  O2  UNK     1      10.155   5.701   6.496  1.00  0.00    -0.356 OA
HETATM   17  C11 UNK     1       8.868   6.205   6.849  1.00  0.00     0.210 C 
ENDBRANCH   8  16
TORSDOF 3
ENDMDL
MODEL 5
REMARK VINA RESULT:      -6.7      4.952      7.488
REMARK  3 active torsions:
REMARK  status: ('A' for Active; 'I' for Inactive)
REMARK    1  A    between atoms: C6_11  and  O2_2 
REMARK    2  A    between atoms: C10_15  and  O4_4 
REMARK    3  A    between atoms: C10_15  and  C7_12 
ROOT
HETATM    1  O1  UNK     1      18.818  -0.139  33.494  1.00  0.00    -0.274 OA
HETATM    2  O3  UNK     1      18.480  -0.452  35.732  1.00  0.00    -0.259 OA
HETATM    3  C1  UNK     1      20.099  -1.776  32.233  1.00  0.00    -0.001 A 
HETATM    4  C2  UNK     1      19.374  -0.589  32.281  1.00  0.00     0.092 A 
HETATM    5  C3  UNK     1      20.274  -2.543  33.456  1.00  0.00     0.039 A 
HETATM    6  C4  UNK     1      20.636  -2.188  31.012  1.00  0.00     0.017 A 
HETATM    7  C5  UNK     1      19.170   0.193  31.146  1.00  0.00     0.075 A 
HETATM    8  C6  UNK     1      19.709  -0.227  29.931  1.00  0.00     0.070 A 
HETATM    9  C7  UNK     1      19.742  -2.110  34.606  1.00  0.00     0.114 A 
HETATM   10  C8  UNK     1      20.440  -1.414  29.864  1.00  0.00     0.038 A 
HETATM   11  C9  UNK     1      18.967  -0.851  34.680  1.00  0.00     0.305 A 
ENDROOT
BRANCH   9  12
HETATM   12  C10 UNK     1      19.973  -2.954  35.785  1.00  0.00     0.182 C 
HETATM   13  O5  UNK     1      21.071  -3.263  36.203  1.00  0.00    -0.646 OA
BRANCH  12  14
HETATM   14  O4  UNK     1      18.788  -3.321  36.314  1.00  0.00    -0.772 OA
HETATM   15  H8  UNK     1      18.057  -3.256  35.664  1.00  0.00     0.167 HD
ENDBRANCH  12  14
ENDBRANCH   9  12
BRANCH   8  16
HETATM   16  O2  UNK     1      19.522   0.521  28.810  1.00  0.00    -0.356 OA
HETATM   17  C11 UNK     1      18.354   1.339  28.761  1.00  0.00     0.210 C 
ENDBRANCH   8  16
TORSDOF 3
ENDMDL
MODEL 6
REMARK VINA RESULT:      -6.7      1.820      2.180
REMARK  3 active torsions:
REMARK  status: ('A' for Active; 'I' for Inactive)
REMARK    1  A    between atoms: C6_11  and  O2_2 
REMARK    2  A    between atoms: C10_15  and  O4_4 
REMARK    3  A    between atoms: C10_15  and  C7_12 
ROOT
HETATM    1  O1  UNK     1      17.887   3.124  33.006  1.00  0.00    -0.274 OA
HETATM    2  O3  UNK     1      18.098   0.906  33.515  1.00  0.00    -0.259 OA
HETATM    3  C1  UNK     1      18.752   3.956  30.892  1.00  0.00    -0.001 A 
HETATM    4  C2  UNK     1      18.110   4.182  32.105  1.00  0.00     0.092 A 
HETATM    5  C3  UNK     1      19.190   2.607  30.568  1.00  0.00     0.039 A 
HETATM    6  C4  UNK     1      18.955   5.033  30.026  1.00  0.00     0.017 A 
HETATM    7  C5  UNK     1      17.666   5.450  32.474  1.00  0.00     0.075 A 
HETATM    8  C6  UNK     1      17.873   6.519  31.604  1.00  0.00     0.070 A 
HETATM    9  C7  UNK     1      18.975   1.604  31.429  1.00  0.00     0.114 A 
HETATM   10  C8  UNK     1      18.516   6.310  30.382  1.00  0.00     0.038 A 
HETATM   11  C9  UNK     1      18.294   1.822  32.724  1.00  0.00     0.305 A 
ENDROOT
BRANCH   9  12
HETATM   12  C10 UNK     1      19.454   0.280  31.013  1.00  0.00     0.182 C 
HETATM   13  O5  UNK     1      20.511   0.079  30.448  1.00  0.00    -0.646 OA
BRANCH  12  14
HETATM   14  O4  UNK     1      18.544  -0.655  31.355  1.00  0.00    -0.772 OA
HETATM   15  H8  UNK     1      18.600  -0.895  32.304  1.00  0.00     0.167 HD
ENDBRANCH  12  14
ENDBRANCH   9  12
BRANCH   8  16
HETATM   16  O2  UNK     1      17.447   7.766  31.944  1.00  0.00    -0.356 OA
HETATM   17  C11 UNK     1      16.081   8.082  31.676  1.00  0.00     0.210 C 
ENDBRANCH   8  16
TORSDOF 3
ENDMDL
MODEL 7
REMARK VINA RESULT:      -6.7     22.741     25.209
REMARK  3 active torsions:
REMARK  status: ('A' for Active; 'I' for Inactive)
REMARK    1  A    between atoms: C6_11  and  O2_2 
REMARK    2  A    between atoms: C10_15  and  O4_4 
REMARK    3  A    between atoms: C10_15  and  C7_12 
ROOT
HETATM    1  O1  UNK     1      11.653   6.421   6.445  1.00  0.00    -0.274 OA
HETATM    2  O3  UNK     1       9.650   6.710   5.384  1.00  0.00    -0.259 OA
HETATM    3  C1  UNK     1      11.688   5.695   8.765  1.00  0.00    -0.001 A 
HETATM    4  C2  UNK     1      12.365   6.072   7.609  1.00  0.00     0.092 A 
HETATM    5  C3  UNK     1      10.235   5.667   8.752  1.00  0.00     0.039 A 
HETATM    6  C4  UNK     1      12.430   5.357   9.899  1.00  0.00     0.017 A 
HETATM    7  C5  UNK     1      13.756   6.119   7.555  1.00  0.00     0.075 A 
HETATM    8  C6  UNK     1      14.488   5.779   8.691  1.00  0.00     0.070 A 
HETATM    9  C7  UNK     1       9.563   6.000   7.642  1.00  0.00     0.114 A 
HETATM   10  C8  UNK     1      13.827   5.399   9.860  1.00  0.00     0.038 A 
HETATM   11  C9  UNK     1      10.262   6.404   6.402  1.00  0.00     0.305 A 
ENDROOT
BRANCH   9  12
HETATM   12  C10 UNK     1       8.099   5.941   7.729  1.00  0.00     0.182 C 
HETATM   13  O5  UNK     1       7.471   4.961   8.079  1.00  0.00    -0.646 OA
BRANCH  12  14
HETATM   14  O4  UNK     1       7.579   7.130   7.362  1.00  0.00    -0.772 OA
HETATM   15  H8  UNK     1       8.194   7.645   6.798  1.00  0.00     0.167 HD
ENDBRANCH  12  14
ENDBRANCH   9  12
BRANCH   8  16
HETATM   16  O2  UNK     1      15.848   5.817   8.661  1.00  0.00    -0.356 OA
HETATM   17  C11 UNK     1      16.511   6.305   9.827  1.00  0.00     0.210 C 
ENDBRANCH   8  16
TORSDOF 3
ENDMDL
MODEL 8
REMARK VINA RESULT:      -6.6      3.927      5.232
REMARK  3 active torsions:
REMARK  status: ('A' for Active; 'I' for Inactive)
REMARK    1  A    between atoms: C6_11  and  O2_2 
REMARK    2  A    between atoms: C10_15  and  O4_4 
REMARK    3  A    between atoms: C10_15  and  C7_12 
ROOT
HETATM    1  O1  UNK     1      18.507   1.801  31.656  1.00  0.00    -0.274 OA
HETATM    2  O3  UNK     1      18.917   2.291  29.462  1.00  0.00    -0.259 OA
HETATM    3  C1  UNK     1      19.037  -0.412  32.510  1.00  0.00    -0.001 A 
HETATM    4  C2  UNK     1      18.544   0.873  32.714  1.00  0.00     0.092 A 
HETATM    5  C3  UNK     1      19.512  -0.782  31.187  1.00  0.00     0.039 A 
HETATM    6  C4  UNK     1      19.057  -1.304  33.585  1.00  0.00     0.017 A 
HETATM    7  C5  UNK     1      18.074   1.290  33.958  1.00  0.00     0.075 A 
HETATM    8  C6  UNK     1      18.098   0.393  35.025  1.00  0.00     0.070 A 
HETATM    9  C7  UNK     1      19.475   0.105  30.184  1.00  0.00     0.114 A 
HETATM   10  C8  UNK     1      18.588  -0.901  34.839  1.00  0.00     0.038 A 
HETATM   11  C9  UNK     1      18.955   1.477  30.379  1.00  0.00     0.305 A 
ENDROOT
BRANCH   9  12
HETATM   12  C10 UNK     1      19.976  -0.362  28.887  1.00  0.00     0.182 C 
HETATM   13  O5  UNK     1      21.134  -0.659  28.664  1.00  0.00    -0.646 OA
BRANCH  12  14
HETATM   14  O4  UNK     1      18.960  -0.407  28.001  1.00  0.00    -0.772 OA
HETATM   15  H8  UNK     1      18.511  -1.279  27.998  1.00  0.00     0.167 HD
ENDBRANCH  12  14
ENDBRANCH   9  12
BRANCH   8  16
HETATM   16  O2  UNK     1      17.644   0.779  36.248  1.00  0.00    -0.356 OA
HETATM   17  C11 UNK     1      17.819  -0.140  37.326  1.00  0.00     0.210 C 
ENDBRANCH   8  16
TORSDOF 3
ENDMDL
MODEL 9
REMARK VINA RESULT:      -6.5      2.585      3.916
REMARK  3 active torsions:
REMARK  status: ('A' for Active; 'I' for Inactive)
REMARK    1  A    between atoms: C6_11  and  O2_2 
REMARK    2  A    between atoms: C10_15  and  O4_4 
REMARK    3  A    between atoms: C10_15  and  C7_12 
ROOT
HETATM    1  O1  UNK     1      19.185   7.502  33.430  1.00  0.00    -0.274 OA
HETATM    2  O3  UNK     1      20.859   6.221  32.546  1.00  0.00    -0.259 OA
HETATM    3  C1  UNK     1      17.090   7.739  32.221  1.00  0.00    -0.001 A 
HETATM    4  C2  UNK     1      17.884   8.030  33.325  1.00  0.00     0.092 A 
HETATM    5  C3  UNK     1      17.624   6.880  31.176  1.00  0.00     0.039 A 
HETATM    6  C4  UNK     1      15.805   8.283  32.153  1.00  0.00     0.017 A 
HETATM    7  C5  UNK     1      17.432   8.846  34.360  1.00  0.00     0.075 A 
HETATM    8  C6  UNK     1      16.149   9.385  34.284  1.00  0.00     0.070 A 
HETATM    9  C7  UNK     1      18.862   6.380  31.282  1.00  0.00     0.114 A 
HETATM   10  C8  UNK     1      15.337   9.104  33.183  1.00  0.00     0.038 A 
HETATM   11  C9  UNK     1      19.724   6.676  32.448  1.00  0.00     0.305 A 
ENDROOT
BRANCH   9  12
HETATM   12  C10 UNK     1      19.311   5.524  30.177  1.00  0.00     0.182 C 
HETATM   13  O5  UNK     1      18.940   4.380  30.000  1.00  0.00    -0.646 OA
BRANCH  12  14
HETATM   14  O4  UNK     1      20.186   6.204  29.408  1.00  0.00    -0.772 OA
HETATM   15  H8  UNK     1      19.877   7.114  29.215  1.00  0.00     0.167 HD
ENDBRANCH  12  14
ENDBRANCH   9  12
BRANCH   8  16
HETATM   16  O2  UNK     1      15.686  10.184  35.283  1.00  0.00    -0.356 OA
HETATM   17  C11 UNK     1      14.334  10.631  35.186  1.00  0.00     0.210 C 
ENDBRANCH   8  16
TORSDOF 3
ENDMDL
MODEL 10
REMARK VINA RESULT:      -6.5      1.590      5.946
REMARK  3 active torsions:
REMARK  status: ('A' for Active; 'I' for Inactive)
REMARK    1  A    between atoms: C6_11  and  O2_2 
REMARK    2  A    between atoms: C10_15  and  O4_4 
REMARK    3  A    between atoms: C10_15  and  C7_12 
ROOT
HETATM    1  O1  UNK     1      17.363   5.512  33.638  1.00  0.00    -0.274 OA
HETATM    2  O3  UNK     1      16.622   6.992  35.213  1.00  0.00    -0.259 OA
HETATM    3  C1  UNK     1      18.305   6.346  31.558  1.00  0.00    -0.001 A 
HETATM    4  C2  UNK     1      17.944   5.281  32.376  1.00  0.00     0.092 A 
HETATM    5  C3  UNK     1      18.074   7.703  32.026  1.00  0.00     0.039 A 
HETATM    6  C4  UNK     1      18.878   6.075  30.313  1.00  0.00     0.017 A 
HETATM    7  C5  UNK     1      18.139   3.957  31.987  1.00  0.00     0.075 A 
HETATM    8  C6  UNK     1      18.711   3.696  30.743  1.00  0.00     0.070 A 
HETATM    9  C7  UNK     1      17.521   7.917  33.227  1.00  0.00     0.114 A 
HETATM   10  C8  UNK     1      19.080   4.753  29.908  1.00  0.00     0.038 A 
HETATM   11  C9  UNK     1      17.129   6.799  34.114  1.00  0.00     0.305 A 
ENDROOT
BRANCH   9  12
HETATM   12  C10 UNK     1      17.328   9.321  33.611  1.00  0.00     0.182 C 
HETATM   13  O5  UNK     1      18.203  10.165  33.589  1.00  0.00    -0.646 OA
BRANCH  12  14
HETATM   14  O4  UNK     1      16.046   9.513  33.983  1.00  0.00    -0.772 OA
HETATM   15  H8  UNK     1      15.727   8.808  34.585  1.00  0.00     0.167 HD
ENDBRANCH  12  14
ENDBRANCH   9  12
BRANCH   8  16
HETATM   16  O2  UNK     1      18.912   2.411  30.342  1.00  0.00    -0.356 OA
HETATM   17  C11 UNK     1      18.187   1.967  29.196  1.00  0.00     0.210 C 
ENDBRANCH   8  16
TORSDOF 3
ENDMDL
