MODEL 1
REMARK VINA RESULT:     -10.6      0.000      0.000
REMARK  8 active torsions:
REMARK  status: ('A' for Active; 'I' for Inactive)
REMARK       I    between atoms: C5_12  and  N1_5 
REMARK    1  A    between atoms: N1_5  and  N2_6 
REMARK    2  A    between atoms: C24_31  and  N2_6 
REMARK    3  A    between atoms: C19_26  and  N3_7 
REMARK    4  A    between atoms: C24_31  and  N3_7 
REMARK    5  A    between atoms: C1_8  and  C2_9 
REMARK    6  A    between atoms: C1_8  and  C3_10 
REMARK    7  A    between atoms: C1_8  and  C4_11 
REMARK    8  A    between atoms: C2_9  and  C5_12 
ROOT
HETATM    1  O1  UNK     1      16.618   0.941  34.051  1.00  0.00    -0.272 OA
HETATM    2  N1  UNK     1      18.611  -0.221  34.310  1.00  0.00    -0.268 N 
HETATM    3  C5  UNK     1      17.840   0.860  33.933  1.00  0.00     0.237 C 
HETATM    4  H12 UNK     1      19.623  -0.255  34.223  1.00  0.00     0.190 HD
ENDROOT
BRANCH   2   5
HETATM    5  N2  UNK     1      17.994  -1.318  34.867  1.00  0.00    -0.274 N 
HETATM    6  H18 UNK     1      17.181  -1.667  34.371  1.00  0.00     0.189 HD
BRANCH   5   7
HETATM    7  C24 UNK     1      18.523  -1.974  35.956  1.00  0.00     0.191 C 
HETATM    8  S1  UNK     1      18.258  -1.532  37.563  1.00  0.00    -0.039 SA
BRANCH   7   9
HETATM    9  N3  UNK     1      19.382  -3.041  35.696  1.00  0.00    -0.332 N 
HETATM   10  H19 UNK     1      19.746  -3.061  34.746  1.00  0.00     0.168 HD
BRANCH   9  11
HETATM   11  C19 UNK     1      19.856  -4.073  36.507  1.00  0.00     0.037 A 
HETATM   12  C20 UNK     1      19.156  -5.272  36.594  1.00  0.00     0.067 A 
HETATM   13  C17 UNK     1      19.649  -6.291  37.410  1.00  0.00     0.092 A 
HETATM   14  C14 UNK     1      20.826  -6.152  38.148  1.00  0.00     0.004 A 
HETATM   15  O2  UNK     1      18.896  -7.481  37.456  1.00  0.00    -0.275 OA
HETATM   16  C18 UNK     1      21.270  -7.277  38.982  1.00  0.00    -0.043 A 
HETATM   17  C21 UNK     1      21.516  -4.936  38.047  1.00  0.00     0.017 A 
HETATM   18  C23 UNK     1      20.534  -8.397  39.006  1.00  0.00     0.090 A 
HETATM   19  C25 UNK     1      22.531  -7.159  39.787  1.00  0.00     0.049 C 
HETATM   20  C26 UNK     1      19.291  -8.559  38.234  1.00  0.00     0.288 A 
HETATM   21  O3  UNK     1      18.644  -9.599  38.282  1.00  0.00    -0.260 OA
HETATM   22  C22 UNK     1      21.035  -3.906  37.233  1.00  0.00     0.030 A 
ENDBRANCH   9  11
ENDBRANCH   7   9
ENDBRANCH   5   7
ENDBRANCH   2   5
BRANCH   3  23
HETATM   23  C2  UNK     1      18.661   1.995  33.347  1.00  0.00     0.118 C 
BRANCH  23  24
HETATM   24  C1  UNK     1      18.152   2.424  31.951  1.00  0.00     0.060 C 
BRANCH  24  25
HETATM   25  C3  UNK     1      18.700   1.572  30.812  1.00  0.00    -0.049 A 
HETATM   26  C6  UNK     1      18.090   1.643  29.577  1.00  0.00     0.008 A 
HETATM   27  C10 UNK     1      18.591   0.863  28.535  1.00  0.00     0.001 A 
HETATM   28  C15 UNK     1      19.690   0.031  28.751  1.00  0.00     0.000 A 
HETATM   29  C12 UNK     1      20.287  -0.021  30.010  1.00  0.00     0.001 A 
HETATM   30  C8  UNK     1      19.786   0.758  31.053  1.00  0.00     0.008 A 
ENDBRANCH  24  25
BRANCH  24  31
HETATM   31  C4  UNK     1      18.354   3.910  31.680  1.00  0.00    -0.049 A 
HETATM   32  C7  UNK     1      19.075   4.291  30.570  1.00  0.00     0.008 A 
HETATM   33  C11 UNK     1      19.260   5.652  30.322  1.00  0.00     0.001 A 
HETATM   34  C16 UNK     1      18.719   6.599  31.191  1.00  0.00     0.000 A 
HETATM   35  C13 UNK     1      17.992   6.185  32.308  1.00  0.00     0.001 A 
HETATM   36  C9  UNK     1      17.808   4.825  32.555  1.00  0.00     0.008 A 
ENDBRANCH  24  31
ENDBRANCH  23  24
ENDBRANCH   3  23
TORSDOF 8
ENDMDL
MODEL 2
REMARK VINA RESULT:     -10.5      2.471      4.243
REMARK  8 active torsions:
REMARK  status: ('A' for Active; 'I' for Inactive)
REMARK       I    between atoms: C5_12  and  N1_5 
REMARK    1  A    between atoms: N1_5  and  N2_6 
REMARK    2  A    between atoms: C24_31  and  N2_6 
REMARK    3  A    between atoms: C19_26  and  N3_7 
REMARK    4  A    between atoms: C24_31  and  N3_7 
REMARK    5  A    between atoms: C1_8  and  C2_9 
REMARK    6  A    between atoms: C1_8  and  C3_10 
REMARK    7  A    between atoms: C1_8  and  C4_11 
REMARK    8  A    between atoms: C2_9  and  C5_12 
ROOT
HETATM    1  O1  UNK     1      20.423  -1.689  32.558  1.00  0.00    -0.272 OA
HETATM    2  N1  UNK     1      19.195  -2.128  34.478  1.00  0.00    -0.268 N 
HETATM    3  C5  UNK     1      19.463  -1.471  33.295  1.00  0.00     0.237 C 
HETATM    4  H12 UNK     1      18.382  -1.945  35.059  1.00  0.00     0.190 HD
ENDROOT
BRANCH   2   5
HETATM    5  N2  UNK     1      20.054  -3.118  34.899  1.00  0.00    -0.274 N 
HETATM    6  H18 UNK     1      20.898  -3.233  34.349  1.00  0.00     0.189 HD
BRANCH   5   7
HETATM    7  C24 UNK     1      19.840  -3.818  36.065  1.00  0.00     0.191 C 
HETATM    8  S1  UNK     1      20.507  -3.415  37.562  1.00  0.00    -0.039 SA
BRANCH   7   9
HETATM    9  N3  UNK     1      19.062  -4.973  35.977  1.00  0.00    -0.332 N 
HETATM   10  H19 UNK     1      18.146  -4.827  35.558  1.00  0.00     0.168 HD
BRANCH   9  11
HETATM   11  C19 UNK     1      19.319  -6.298  36.333  1.00  0.00     0.037 A 
HETATM   12  C20 UNK     1      20.236  -7.050  35.607  1.00  0.00     0.067 A 
HETATM   13  C17 UNK     1      20.480  -8.373  35.981  1.00  0.00     0.092 A 
HETATM   14  C14 UNK     1      19.833  -8.973  37.063  1.00  0.00     0.004 A 
HETATM   15  O2  UNK     1      21.419  -9.084  35.208  1.00  0.00    -0.275 OA
HETATM   16  C18 UNK     1      20.151 -10.371  37.385  1.00  0.00    -0.043 A 
HETATM   17  C21 UNK     1      18.913  -8.197  37.781  1.00  0.00     0.017 A 
HETATM   18  C23 UNK     1      21.048 -11.022  36.632  1.00  0.00     0.090 A 
HETATM   19  C25 UNK     1      19.473 -11.044  38.542  1.00  0.00     0.049 C 
HETATM   20  C26 UNK     1      21.738 -10.403  35.488  1.00  0.00     0.288 A 
HETATM   21  O3  UNK     1      22.554 -11.032  34.822  1.00  0.00    -0.260 OA
HETATM   22  C22 UNK     1      18.659  -6.871  37.418  1.00  0.00     0.030 A 
ENDBRANCH   9  11
ENDBRANCH   7   9
ENDBRANCH   5   7
ENDBRANCH   2   5
BRANCH   3  23
HETATM   23  C2  UNK     1      18.424  -0.416  32.957  1.00  0.00     0.118 C 
BRANCH  23  24
HETATM   24  C1  UNK     1      18.570   0.850  33.832  1.00  0.00     0.060 C 
BRANCH  24  25
HETATM   25  C3  UNK     1      17.669   0.850  35.063  1.00  0.00    -0.049 A 
HETATM   26  C6  UNK     1      18.201   1.237  36.274  1.00  0.00     0.008 A 
HETATM   27  C10 UNK     1      17.377   1.237  37.400  1.00  0.00     0.001 A 
HETATM   28  C15 UNK     1      16.041   0.851  37.288  1.00  0.00     0.000 A 
HETATM   29  C12 UNK     1      15.530   0.464  36.049  1.00  0.00     0.001 A 
HETATM   30  C8  UNK     1      16.354   0.463  34.923  1.00  0.00     0.008 A 
ENDBRANCH  24  25
BRANCH  24  31
HETATM   31  C4  UNK     1      18.420   2.140  33.034  1.00  0.00    -0.049 A 
HETATM   32  C7  UNK     1      18.470   2.079  31.658  1.00  0.00     0.008 A 
HETATM   33  C11 UNK     1      18.333   3.260  30.927  1.00  0.00     0.001 A 
HETATM   34  C16 UNK     1      18.150   4.473  31.590  1.00  0.00     0.000 A 
HETATM   35  C13 UNK     1      18.103   4.506  32.985  1.00  0.00     0.001 A 
HETATM   36  C9  UNK     1      18.241   3.326  33.714  1.00  0.00     0.008 A 
ENDBRANCH  24  31
ENDBRANCH  23  24
ENDBRANCH   3  23
TORSDOF 8
ENDMDL
MODEL 3
REMARK VINA RESULT:     -10.5      0.755      3.246
REMARK  8 active torsions:
REMARK  status: ('A' for Active; 'I' for Inactive)
REMARK       I    between atoms: C5_12  and  N1_5 
REMARK    1  A    between atoms: N1_5  and  N2_6 
REMARK    2  A    between atoms: C24_31  and  N2_6 
REMARK    3  A    between atoms: C19_26  and  N3_7 
REMARK    4  A    between atoms: C24_31  and  N3_7 
REMARK    5  A    between atoms: C1_8  and  C2_9 
REMARK    6  A    between atoms: C1_8  and  C3_10 
REMARK    7  A    between atoms: C1_8  and  C4_11 
REMARK    8  A    between atoms: C2_9  and  C5_12 
ROOT
HETATM    1  O1  UNK     1      18.978   2.245  35.199  1.00  0.00    -0.272 OA
HETATM    2  N1  UNK     1      18.753   0.126  34.280  1.00  0.00    -0.268 N 
HETATM    3  C5  UNK     1      18.583   1.495  34.308  1.00  0.00     0.237 C 
HETATM    4  H12 UNK     1      18.437  -0.471  33.521  1.00  0.00     0.190 HD
ENDROOT
BRANCH   2   5
HETATM    5  N2  UNK     1      19.417  -0.485  35.320  1.00  0.00    -0.274 N 
HETATM    6  H18 UNK     1      20.303  -0.067  35.584  1.00  0.00     0.189 HD
BRANCH   5   7
HETATM    7  C24 UNK     1      18.852  -1.515  36.038  1.00  0.00     0.191 C 
HETATM    8  S1  UNK     1      17.774  -1.311  37.321  1.00  0.00    -0.039 SA
BRANCH   7   9
HETATM    9  N3  UNK     1      19.252  -2.810  35.709  1.00  0.00    -0.332 N 
HETATM   10  H19 UNK     1      19.185  -3.027  34.717  1.00  0.00     0.168 HD
BRANCH   9  11
HETATM   11  C19 UNK     1      19.753  -3.855  36.486  1.00  0.00     0.037 A 
HETATM   12  C20 UNK     1      19.057  -5.055  36.576  1.00  0.00     0.067 A 
HETATM   13  C17 UNK     1      19.577  -6.088  37.358  1.00  0.00     0.092 A 
HETATM   14  C14 UNK     1      20.778  -5.960  38.058  1.00  0.00     0.004 A 
HETATM   15  O2  UNK     1      18.827  -7.280  37.409  1.00  0.00    -0.275 OA
HETATM   16  C18 UNK     1      21.251  -7.099  38.857  1.00  0.00    -0.043 A 
HETATM   17  C21 UNK     1      21.465  -4.743  37.954  1.00  0.00     0.017 A 
HETATM   18  C23 UNK     1      20.516  -8.220  38.887  1.00  0.00     0.090 A 
HETATM   19  C25 UNK     1      22.538  -6.993  39.621  1.00  0.00     0.049 C 
HETATM   20  C26 UNK     1      19.248  -8.370  38.154  1.00  0.00     0.288 A 
HETATM   21  O3  UNK     1      18.603  -9.411  38.206  1.00  0.00    -0.260 OA
HETATM   22  C22 UNK     1      20.956  -3.699  37.174  1.00  0.00     0.030 A 
ENDBRANCH   9  11
ENDBRANCH   7   9
ENDBRANCH   5   7
ENDBRANCH   2   5
BRANCH   3  23
HETATM   23  C2  UNK     1      17.845   2.023  33.091  1.00  0.00     0.118 C 
BRANCH  23  24
HETATM   24  C1  UNK     1      18.807   2.623  32.039  1.00  0.00     0.060 C 
BRANCH  24  25
HETATM   25  C3  UNK     1      18.561   4.101  31.758  1.00  0.00    -0.049 A 
HETATM   26  C6  UNK     1      17.583   4.759  32.473  1.00  0.00     0.008 A 
HETATM   27  C10 UNK     1      17.357   6.111  32.216  1.00  0.00     0.001 A 
HETATM   28  C15 UNK     1      18.115   6.774  31.250  1.00  0.00     0.000 A 
HETATM   29  C12 UNK     1      19.099   6.084  30.542  1.00  0.00     0.001 A 
HETATM   30  C8  UNK     1      19.324   4.731  30.798  1.00  0.00     0.008 A 
ENDBRANCH  24  25
BRANCH  24  31
HETATM   31  C4  UNK     1      18.851   1.812  30.749  1.00  0.00    -0.049 A 
HETATM   32  C7  UNK     1      17.962   2.117  29.741  1.00  0.00     0.008 A 
HETATM   33  C11 UNK     1      18.002   1.375  28.560  1.00  0.00     0.001 A 
HETATM   34  C16 UNK     1      18.932   0.345  28.415  1.00  0.00     0.000 A 
HETATM   35  C13 UNK     1      19.822   0.058  29.452  1.00  0.00     0.001 A 
HETATM   36  C9  UNK     1      19.780   0.800  30.632  1.00  0.00     0.008 A 
ENDBRANCH  24  31
ENDBRANCH  23  24
ENDBRANCH   3  23
TORSDOF 8
ENDMDL
MODEL 4
REMARK VINA RESULT:     -10.1     12.704     16.074
REMARK  8 active torsions:
REMARK  status: ('A' for Active; 'I' for Inactive)
REMARK       I    between atoms: C5_12  and  N1_5 
REMARK    1  A    between atoms: N1_5  and  N2_6 
REMARK    2  A    between atoms: C24_31  and  N2_6 
REMARK    3  A    between atoms: C19_26  and  N3_7 
REMARK    4  A    between atoms: C24_31  and  N3_7 
REMARK    5  A    between atoms: C1_8  and  C2_9 
REMARK    6  A    between atoms: C1_8  and  C3_10 
REMARK    7  A    between atoms: C1_8  and  C4_11 
REMARK    8  A    between atoms: C2_9  and  C5_12 
ROOT
HETATM    1  O1  UNK     1      32.936  -6.474  37.950  1.00  0.00    -0.272 OA
HETATM    2  N1  UNK     1      34.151  -8.044  36.747  1.00  0.00    -0.268 N 
HETATM    3  C5  UNK     1      33.076  -7.607  37.494  1.00  0.00     0.237 C 
HETATM    4  H12 UNK     1      34.233  -8.980  36.363  1.00  0.00     0.190 HD
ENDROOT
BRANCH   2   5
HETATM    5  N2  UNK     1      35.171  -7.161  36.469  1.00  0.00    -0.274 N 
HETATM    6  H18 UNK     1      35.738  -6.878  37.261  1.00  0.00     0.189 HD
BRANCH   5   7
HETATM    7  C24 UNK     1      35.478  -6.790  35.180  1.00  0.00     0.191 C 
HETATM    8  S1  UNK     1      36.885  -7.239  34.362  1.00  0.00    -0.039 SA
BRANCH   7   9
HETATM    9  N3  UNK     1      34.584  -5.934  34.537  1.00  0.00    -0.332 N 
HETATM   10  H19 UNK     1      34.934  -4.988  34.406  1.00  0.00     0.168 HD
BRANCH   9  11
HETATM   11  C19 UNK     1      33.307  -6.144  34.015  1.00  0.00     0.037 A 
HETATM   12  C20 UNK     1      33.130  -6.978  32.916  1.00  0.00     0.067 A 
HETATM   13  C17 UNK     1      31.843  -7.175  32.411  1.00  0.00     0.092 A 
HETATM   14  C14 UNK     1      30.721  -6.564  32.971  1.00  0.00     0.004 A 
HETATM   15  O2  UNK     1      31.728  -8.031  31.297  1.00  0.00    -0.275 OA
HETATM   16  C18 UNK     1      29.405  -6.828  32.375  1.00  0.00    -0.043 A 
HETATM   17  C21 UNK     1      30.920  -5.728  34.078  1.00  0.00     0.017 A 
HETATM   18  C23 UNK     1      29.325  -7.646  31.315  1.00  0.00     0.090 A 
HETATM   19  C25 UNK     1      28.178  -6.186  32.953  1.00  0.00     0.049 C 
HETATM   20  C26 UNK     1      30.500  -8.299  30.714  1.00  0.00     0.288 A 
HETATM   21  O3  UNK     1      30.388  -9.041  29.744  1.00  0.00    -0.260 OA
HETATM   22  C22 UNK     1      32.203  -5.520  34.595  1.00  0.00     0.030 A 
ENDBRANCH   9  11
ENDBRANCH   7   9
ENDBRANCH   5   7
ENDBRANCH   2   5
BRANCH   3  23
HETATM   23  C2  UNK     1      32.029  -8.686  37.707  1.00  0.00     0.118 C 
BRANCH  23  24
HETATM   24  C1  UNK     1      30.670  -8.318  37.068  1.00  0.00     0.060 C 
BRANCH  24  25
HETATM   25  C3  UNK     1      29.499  -8.381  38.041  1.00  0.00    -0.049 A 
HETATM   26  C6  UNK     1      28.814  -7.220  38.331  1.00  0.00     0.008 A 
HETATM   27  C10 UNK     1      27.742  -7.277  39.223  1.00  0.00     0.001 A 
HETATM   28  C15 UNK     1      27.381  -8.493  39.803  1.00  0.00     0.000 A 
HETATM   29  C12 UNK     1      28.092  -9.653  39.492  1.00  0.00     0.001 A 
HETATM   30  C8  UNK     1      29.164  -9.595  38.601  1.00  0.00     0.008 A 
ENDBRANCH  24  25
BRANCH  24  31
HETATM   31  C4  UNK     1      30.381  -9.111  35.799  1.00  0.00    -0.049 A 
HETATM   32  C7  UNK     1      29.086  -9.169  35.331  1.00  0.00     0.008 A 
HETATM   33  C11 UNK     1      28.821  -9.894  34.170  1.00  0.00     0.001 A 
HETATM   34  C16 UNK     1      29.858 -10.546  33.503  1.00  0.00     0.000 A 
HETATM   35  C13 UNK     1      31.161 -10.472  33.998  1.00  0.00     0.001 A 
HETATM   36  C9  UNK     1      31.425  -9.746  35.159  1.00  0.00     0.008 A 
ENDBRANCH  24  31
ENDBRANCH  23  24
ENDBRANCH   3  23
TORSDOF 8
ENDMDL
MODEL 5
REMARK VINA RESULT:     -10.1      7.885     12.513
REMARK  8 active torsions:
REMARK  status: ('A' for Active; 'I' for Inactive)
REMARK       I    between atoms: C5_12  and  N1_5 
REMARK    1  A    between atoms: N1_5  and  N2_6 
REMARK    2  A    between atoms: C24_31  and  N2_6 
REMARK    3  A    between atoms: C19_26  and  N3_7 
REMARK    4  A    between atoms: C24_31  and  N3_7 
REMARK    5  A    between atoms: C1_8  and  C2_9 
REMARK    6  A    between atoms: C1_8  and  C3_10 
REMARK    7  A    between atoms: C1_8  and  C4_11 
REMARK    8  A    between atoms: C2_9  and  C5_12 
ROOT
HETATM    1  O1  UNK     1      25.005  -6.202  38.745  1.00  0.00    -0.272 OA
HETATM    2  N1  UNK     1      25.030  -8.516  38.555  1.00  0.00    -0.268 N 
HETATM    3  C5  UNK     1      24.438  -7.292  38.796  1.00  0.00     0.237 C 
HETATM    4  H12 UNK     1      24.534  -9.402  38.582  1.00  0.00     0.190 HD
ENDROOT
BRANCH   2   5
HETATM    5  N2  UNK     1      26.366  -8.556  38.226  1.00  0.00    -0.274 N 
HETATM    6  H18 UNK     1      26.580  -8.484  37.237  1.00  0.00     0.189 HD
BRANCH   5   7
HETATM    7  C24 UNK     1      27.351  -8.563  39.189  1.00  0.00     0.191 C 
HETATM    8  S1  UNK     1      27.840  -9.930  40.049  1.00  0.00    -0.039 SA
BRANCH   7   9
HETATM    9  N3  UNK     1      27.937  -7.337  39.505  1.00  0.00    -0.332 N 
HETATM   10  H19 UNK     1      27.602  -6.927  40.374  1.00  0.00     0.168 HD
BRANCH   9  11
HETATM   11  C19 UNK     1      28.919  -6.582  38.862  1.00  0.00     0.037 A 
HETATM   12  C20 UNK     1      30.069  -7.198  38.380  1.00  0.00     0.067 A 
HETATM   13  C17 UNK     1      31.038  -6.424  37.739  1.00  0.00     0.092 A 
HETATM   14  C14 UNK     1      30.895  -5.046  37.562  1.00  0.00     0.004 A 
HETATM   15  O2  UNK     1      32.180  -7.104  37.271  1.00  0.00    -0.275 OA
HETATM   16  C18 UNK     1      31.965  -4.310  36.876  1.00  0.00    -0.043 A 
HETATM   17  C21 UNK     1      29.728  -4.445  38.055  1.00  0.00     0.017 A 
HETATM   18  C23 UNK     1      33.041  -4.984  36.443  1.00  0.00     0.090 A 
HETATM   19  C25 UNK     1      31.842  -2.829  36.671  1.00  0.00     0.049 C 
HETATM   20  C26 UNK     1      33.205  -6.436  36.621  1.00  0.00     0.288 A 
HETATM   21  O3  UNK     1      34.204  -7.017  36.211  1.00  0.00    -0.260 OA
HETATM   22  C22 UNK     1      28.749  -5.208  38.700  1.00  0.00     0.030 A 
ENDBRANCH   9  11
ENDBRANCH   7   9
ENDBRANCH   5   7
ENDBRANCH   2   5
BRANCH   3  23
HETATM   23  C2  UNK     1      22.962  -7.408  39.134  1.00  0.00     0.118 C 
BRANCH  23  24
HETATM   24  C1  UNK     1      22.098  -7.710  37.887  1.00  0.00     0.060 C 
BRANCH  24  25
HETATM   25  C3  UNK     1      21.326  -6.501  37.371  1.00  0.00    -0.049 A 
HETATM   26  C6  UNK     1      21.464  -5.296  38.025  1.00  0.00     0.008 A 
HETATM   27  C10 UNK     1      20.756  -4.190  37.554  1.00  0.00     0.001 A 
HETATM   28  C15 UNK     1      19.928  -4.316  36.439  1.00  0.00     0.000 A 
HETATM   29  C12 UNK     1      19.806  -5.547  35.796  1.00  0.00     0.001 A 
HETATM   30  C8  UNK     1      20.513  -6.654  36.268  1.00  0.00     0.008 A 
ENDBRANCH  24  25
BRANCH  24  31
HETATM   31  C4  UNK     1      21.183  -8.913  38.081  1.00  0.00    -0.049 A 
HETATM   32  C7  UNK     1      21.259  -9.956  37.183  1.00  0.00     0.008 A 
HETATM   33  C11 UNK     1      20.422 -11.058  37.360  1.00  0.00     0.001 A 
HETATM   34  C16 UNK     1      19.528 -11.091  38.431  1.00  0.00     0.000 A 
HETATM   35  C13 UNK     1      19.473 -10.021  39.325  1.00  0.00     0.001 A 
HETATM   36  C9  UNK     1      20.310  -8.920  39.147  1.00  0.00     0.008 A 
ENDBRANCH  24  31
ENDBRANCH  23  24
ENDBRANCH   3  23
TORSDOF 8
ENDMDL
MODEL 6
REMARK VINA RESULT:     -10.1      4.006      5.968
REMARK  8 active torsions:
REMARK  status: ('A' for Active; 'I' for Inactive)
REMARK       I    between atoms: C5_12  and  N1_5 
REMARK    1  A    between atoms: N1_5  and  N2_6 
REMARK    2  A    between atoms: C24_31  and  N2_6 
REMARK    3  A    between atoms: C19_26  and  N3_7 
REMARK    4  A    between atoms: C24_31  and  N3_7 
REMARK    5  A    between atoms: C1_8  and  C2_9 
REMARK    6  A    between atoms: C1_8  and  C3_10 
REMARK    7  A    between atoms: C1_8  and  C4_11 
REMARK    8  A    between atoms: C2_9  and  C5_12 
ROOT
HETATM    1  O1  UNK     1      21.391  -4.322  37.212  1.00  0.00    -0.272 OA
HETATM    2  N1  UNK     1      19.147  -4.388  36.621  1.00  0.00    -0.268 N 
HETATM    3  C5  UNK     1      20.374  -3.778  36.784  1.00  0.00     0.237 C 
HETATM    4  H12 UNK     1      18.327  -3.923  36.243  1.00  0.00     0.190 HD
ENDROOT
BRANCH   2   5
HETATM    5  N2  UNK     1      19.014  -5.717  36.955  1.00  0.00    -0.274 N 
HETATM    6  H18 UNK     1      18.361  -5.921  37.704  1.00  0.00     0.189 HD
BRANCH   5   7
HETATM    7  C24 UNK     1      19.632  -6.713  36.233  1.00  0.00     0.191 C 
HETATM    8  S1  UNK     1      19.821  -6.705  34.556  1.00  0.00    -0.039 SA
BRANCH   7   9
HETATM    9  N3  UNK     1      20.077  -7.828  36.944  1.00  0.00    -0.332 N 
HETATM   10  H19 UNK     1      19.497  -8.070  37.744  1.00  0.00     0.168 HD
BRANCH   9  11
HETATM   11  C19 UNK     1      21.155  -8.691  36.742  1.00  0.00     0.037 A 
HETATM   12  C20 UNK     1      22.442  -8.293  37.091  1.00  0.00     0.067 A 
HETATM   13  C17 UNK     1      23.506  -9.172  36.883  1.00  0.00     0.092 A 
HETATM   14  C14 UNK     1      23.327 -10.443  36.333  1.00  0.00     0.004 A 
HETATM   15  O2  UNK     1      24.785  -8.714  37.257  1.00  0.00    -0.275 OA
HETATM   16  C18 UNK     1      24.504 -11.302  36.149  1.00  0.00    -0.043 A 
HETATM   17  C21 UNK     1      22.022 -10.824  35.988  1.00  0.00     0.017 A 
HETATM   18  C23 UNK     1      25.708 -10.839  36.513  1.00  0.00     0.090 A 
HETATM   19  C25 UNK     1      24.345 -12.673  35.560  1.00  0.00     0.049 C 
HETATM   20  C26 UNK     1      25.913  -9.502  37.094  1.00  0.00     0.288 A 
HETATM   21  O3  UNK     1      27.031  -9.113  37.415  1.00  0.00    -0.260 OA
HETATM   22  C22 UNK     1      20.946  -9.954  36.192  1.00  0.00     0.030 A 
ENDBRANCH   9  11
ENDBRANCH   7   9
ENDBRANCH   5   7
ENDBRANCH   2   5
BRANCH   3  23
HETATM   23  C2  UNK     1      20.368  -2.319  36.363  1.00  0.00     0.118 C 
BRANCH  23  24
HETATM   24  C1  UNK     1      19.163  -1.977  35.456  1.00  0.00     0.060 C 
BRANCH  24  25
HETATM   25  C3  UNK     1      19.524  -1.853  33.980  1.00  0.00    -0.049 A 
HETATM   26  C6  UNK     1      20.613  -2.551  33.502  1.00  0.00     0.008 A 
HETATM   27  C10 UNK     1      20.944  -2.437  32.151  1.00  0.00     0.001 A 
HETATM   28  C15 UNK     1      20.178  -1.628  31.311  1.00  0.00     0.000 A 
HETATM   29  C12 UNK     1      19.082  -0.933  31.822  1.00  0.00     0.001 A 
HETATM   30  C8  UNK     1      18.751  -1.047  33.173  1.00  0.00     0.008 A 
ENDBRANCH  24  25
BRANCH  24  31
HETATM   31  C4  UNK     1      18.385  -0.760  35.942  1.00  0.00    -0.049 A 
HETATM   32  C7  UNK     1      17.045  -0.899  36.230  1.00  0.00     0.008 A 
HETATM   33  C11 UNK     1      16.333   0.215  36.676  1.00  0.00     0.001 A 
HETATM   34  C16 UNK     1      16.979   1.442  36.822  1.00  0.00     0.000 A 
HETATM   35  C13 UNK     1      18.337   1.555  36.524  1.00  0.00     0.001 A 
HETATM   36  C9  UNK     1      19.048   0.441  36.078  1.00  0.00     0.008 A 
ENDBRANCH  24  31
ENDBRANCH  23  24
ENDBRANCH   3  23
TORSDOF 8
ENDMDL
MODEL 7
REMARK VINA RESULT:     -10.1     12.569     16.168
REMARK  8 active torsions:
REMARK  status: ('A' for Active; 'I' for Inactive)
REMARK       I    between atoms: C5_12  and  N1_5 
REMARK    1  A    between atoms: N1_5  and  N2_6 
REMARK    2  A    between atoms: C24_31  and  N2_6 
REMARK    3  A    between atoms: C19_26  and  N3_7 
REMARK    4  A    between atoms: C24_31  and  N3_7 
REMARK    5  A    between atoms: C1_8  and  C2_9 
REMARK    6  A    between atoms: C1_8  and  C3_10 
REMARK    7  A    between atoms: C1_8  and  C4_11 
REMARK    8  A    between atoms: C2_9  and  C5_12 
ROOT
HETATM    1  O1  UNK     1      32.867  -6.092  37.313  1.00  0.00    -0.272 OA
HETATM    2  N1  UNK     1      34.377  -7.816  36.944  1.00  0.00    -0.268 N 
HETATM    3  C5  UNK     1      33.170  -7.283  37.349  1.00  0.00     0.237 C 
HETATM    4  H12 UNK     1      34.596  -8.808  36.963  1.00  0.00     0.190 HD
ENDROOT
BRANCH   2   5
HETATM    5  N2  UNK     1      35.345  -6.971  36.450  1.00  0.00    -0.274 N 
HETATM    6  H18 UNK     1      35.958  -6.551  37.141  1.00  0.00     0.189 HD
BRANCH   5   7
HETATM    7  C24 UNK     1      35.548  -6.809  35.098  1.00  0.00     0.191 C 
HETATM    8  S1  UNK     1      36.937  -7.296  34.272  1.00  0.00    -0.039 SA
BRANCH   7   9
HETATM    9  N3  UNK     1      34.552  -6.142  34.384  1.00  0.00    -0.332 N 
HETATM   10  H19 UNK     1      34.671  -5.133  34.348  1.00  0.00     0.168 HD
BRANCH   9  11
HETATM   11  C19 UNK     1      33.438  -6.609  33.686  1.00  0.00     0.037 A 
HETATM   12  C20 UNK     1      32.183  -6.058  33.925  1.00  0.00     0.067 A 
HETATM   13  C17 UNK     1      31.082  -6.538  33.215  1.00  0.00     0.092 A 
HETATM   14  C14 UNK     1      31.192  -7.557  32.267  1.00  0.00     0.004 A 
HETATM   15  O2  UNK     1      29.838  -5.941  33.500  1.00  0.00    -0.275 OA
HETATM   16  C18 UNK     1      29.980  -8.001  31.566  1.00  0.00    -0.043 A 
HETATM   17  C21 UNK     1      32.465  -8.098  32.041  1.00  0.00     0.017 A 
HETATM   18  C23 UNK     1      28.810  -7.414  31.859  1.00  0.00     0.090 A 
HETATM   19  C25 UNK     1      30.065  -9.094  30.542  1.00  0.00     0.049 C 
HETATM   20  C26 UNK     1      28.677  -6.339  32.856  1.00  0.00     0.288 A 
HETATM   21  O3  UNK     1      27.590  -5.826  33.097  1.00  0.00    -0.260 OA
HETATM   22  C22 UNK     1      33.578  -7.627  32.745  1.00  0.00     0.030 A 
ENDBRANCH   9  11
ENDBRANCH   7   9
ENDBRANCH   5   7
ENDBRANCH   2   5
BRANCH   3  23
HETATM   23  C2  UNK     1      32.202  -8.337  37.857  1.00  0.00     0.118 C 
BRANCH  23  24
HETATM   24  C1  UNK     1      30.830  -8.261  37.148  1.00  0.00     0.060 C 
BRANCH  24  25
HETATM   25  C3  UNK     1      29.643  -8.410  38.093  1.00  0.00    -0.049 A 
HETATM   26  C6  UNK     1      29.348  -9.659  38.596  1.00  0.00     0.008 A 
HETATM   27  C10 UNK     1      28.262  -9.796  39.461  1.00  0.00     0.001 A 
HETATM   28  C15 UNK     1      27.497  -8.680  39.803  1.00  0.00     0.000 A 
HETATM   29  C12 UNK     1      27.819  -7.427  39.279  1.00  0.00     0.001 A 
HETATM   30  C8  UNK     1      28.905  -7.291  38.414  1.00  0.00     0.008 A 
ENDBRANCH  24  25
BRANCH  24  31
HETATM   31  C4  UNK     1      30.723  -9.218  35.966  1.00  0.00    -0.049 A 
HETATM   32  C7  UNK     1      31.819  -9.981  35.627  1.00  0.00     0.008 A 
HETATM   33  C11 UNK     1      31.721 -10.857  34.546  1.00  0.00     0.001 A 
HETATM   34  C16 UNK     1      30.528 -10.949  33.829  1.00  0.00     0.000 A 
HETATM   35  C13 UNK     1      29.432 -10.165  34.194  1.00  0.00     0.001 A 
HETATM   36  C9  UNK     1      29.532  -9.290  35.275  1.00  0.00     0.008 A 
ENDBRANCH  24  31
ENDBRANCH  23  24
ENDBRANCH   3  23
TORSDOF 8
ENDMDL
MODEL 8
REMARK VINA RESULT:      -9.9     12.884     15.293
REMARK  8 active torsions:
REMARK  status: ('A' for Active; 'I' for Inactive)
REMARK       I    between atoms: C5_12  and  N1_5 
REMARK    1  A    between atoms: N1_5  and  N2_6 
REMARK    2  A    between atoms: C24_31  and  N2_6 
REMARK    3  A    between atoms: C19_26  and  N3_7 
REMARK    4  A    between atoms: C24_31  and  N3_7 
REMARK    5  A    between atoms: C1_8  and  C2_9 
REMARK    6  A    between atoms: C1_8  and  C3_10 
REMARK    7  A    between atoms: C1_8  and  C4_11 
REMARK    8  A    between atoms: C2_9  and  C5_12 
ROOT
HETATM    1  O1  UNK     1      34.226  -4.377  34.457  1.00  0.00    -0.272 OA
HETATM    2  N1  UNK     1      33.982  -5.889  36.201  1.00  0.00    -0.268 N 
HETATM    3  C5  UNK     1      33.543  -4.917  35.326  1.00  0.00     0.237 C 
HETATM    4  H12 UNK     1      33.392  -6.336  36.897  1.00  0.00     0.190 HD
ENDROOT
BRANCH   2   5
HETATM    5  N2  UNK     1      35.289  -6.314  36.124  1.00  0.00    -0.274 N 
HETATM    6  H18 UNK     1      35.915  -5.949  36.834  1.00  0.00     0.189 HD
BRANCH   5   7
HETATM    7  C24 UNK     1      35.690  -7.271  35.219  1.00  0.00     0.191 C 
HETATM    8  S1  UNK     1      37.115  -7.202  34.317  1.00  0.00    -0.039 SA
BRANCH   7   9
HETATM    9  N3  UNK     1      34.818  -8.338  34.999  1.00  0.00    -0.332 N 
HETATM   10  H19 UNK     1      35.018  -9.162  35.562  1.00  0.00     0.168 HD
BRANCH   9  11
HETATM   11  C19 UNK     1      33.705  -8.475  34.168  1.00  0.00     0.037 A 
HETATM   12  C20 UNK     1      33.722  -7.939  32.884  1.00  0.00     0.067 A 
HETATM   13  C17 UNK     1      32.599  -8.088  32.069  1.00  0.00     0.092 A 
HETATM   14  C14 UNK     1      31.452  -8.759  32.496  1.00  0.00     0.004 A 
HETATM   15  O2  UNK     1      32.676  -7.524  30.780  1.00  0.00    -0.275 OA
HETATM   16  C18 UNK     1      30.316  -8.868  31.572  1.00  0.00    -0.043 A 
HETATM   17  C21 UNK     1      31.455  -9.292  33.793  1.00  0.00     0.017 A 
HETATM   18  C23 UNK     1      30.417  -8.322  30.351  1.00  0.00     0.090 A 
HETATM   19  C25 UNK     1      29.068  -9.583  32.000  1.00  0.00     0.049 C 
HETATM   20  C26 UNK     1      31.620  -7.611  29.887  1.00  0.00     0.288 A 
HETATM   21  O3  UNK     1      31.676  -7.124  28.763  1.00  0.00    -0.260 OA
HETATM   22  C22 UNK     1      32.574  -9.151  34.621  1.00  0.00     0.030 A 
ENDBRANCH   9  11
ENDBRANCH   7   9
ENDBRANCH   5   7
ENDBRANCH   2   5
BRANCH   3  23
HETATM   23  C2  UNK     1      32.081  -4.561  35.525  1.00  0.00     0.118 C 
BRANCH  23  24
HETATM   24  C1  UNK     1      31.157  -5.796  35.408  1.00  0.00     0.060 C 
BRANCH  24  25
HETATM   25  C3  UNK     1      30.227  -5.752  34.200  1.00  0.00    -0.049 A 
HETATM   26  C6  UNK     1      30.666  -5.139  33.046  1.00  0.00     0.008 A 
HETATM   27  C10 UNK     1      29.815  -5.098  31.942  1.00  0.00     0.001 A 
HETATM   28  C15 UNK     1      28.546  -5.673  32.017  1.00  0.00     0.000 A 
HETATM   29  C12 UNK     1      28.128  -6.287  33.197  1.00  0.00     0.001 A 
HETATM   30  C8  UNK     1      28.979  -6.327  34.302  1.00  0.00     0.008 A 
ENDBRANCH  24  25
BRANCH  24  31
HETATM   31  C4  UNK     1      30.387  -6.081  36.692  1.00  0.00    -0.049 A 
HETATM   32  C7  UNK     1      30.231  -7.389  37.096  1.00  0.00     0.008 A 
HETATM   33  C11 UNK     1      29.526  -7.650  38.272  1.00  0.00     0.001 A 
HETATM   34  C16 UNK     1      28.994  -6.596  39.015  1.00  0.00     0.000 A 
HETATM   35  C13 UNK     1      29.168  -5.281  38.582  1.00  0.00     0.001 A 
HETATM   36  C9  UNK     1      29.872  -5.021  37.407  1.00  0.00     0.008 A 
ENDBRANCH  24  31
ENDBRANCH  23  24
ENDBRANCH   3  23
TORSDOF 8
ENDMDL
MODEL 9
REMARK VINA RESULT:      -9.9     13.230     16.383
REMARK  8 active torsions:
REMARK  status: ('A' for Active; 'I' for Inactive)
REMARK       I    between atoms: C5_12  and  N1_5 
REMARK    1  A    between atoms: N1_5  and  N2_6 
REMARK    2  A    between atoms: C24_31  and  N2_6 
REMARK    3  A    between atoms: C19_26  and  N3_7 
REMARK    4  A    between atoms: C24_31  and  N3_7 
REMARK    5  A    between atoms: C1_8  and  C2_9 
REMARK    6  A    between atoms: C1_8  and  C3_10 
REMARK    7  A    between atoms: C1_8  and  C4_11 
REMARK    8  A    between atoms: C2_9  and  C5_12 
ROOT
HETATM    1  O1  UNK     1      32.985  -6.610  37.828  1.00  0.00    -0.272 OA
HETATM    2  N1  UNK     1      33.955  -8.141  36.378  1.00  0.00    -0.268 N 
HETATM    3  C5  UNK     1      33.018  -7.720  37.299  1.00  0.00     0.237 C 
HETATM    4  H12 UNK     1      33.949  -9.056  35.938  1.00  0.00     0.190 HD
ENDROOT
BRANCH   2   5
HETATM    5  N2  UNK     1      34.951  -7.270  35.996  1.00  0.00    -0.274 N 
HETATM    6  H18 UNK     1      35.835  -7.368  36.484  1.00  0.00     0.189 HD
BRANCH   5   7
HETATM    7  C24 UNK     1      34.796  -6.410  34.932  1.00  0.00     0.191 C 
HETATM    8  S1  UNK     1      34.733  -4.729  35.059  1.00  0.00    -0.039 SA
BRANCH   7   9
HETATM    9  N3  UNK     1      34.621  -6.986  33.672  1.00  0.00    -0.332 N 
HETATM   10  H19 UNK     1      35.477  -7.348  33.258  1.00  0.00     0.168 HD
BRANCH   9  11
HETATM   11  C19 UNK     1      33.483  -7.181  32.889  1.00  0.00     0.037 A 
HETATM   12  C20 UNK     1      33.605  -7.661  31.589  1.00  0.00     0.067 A 
HETATM   13  C17 UNK     1      32.453  -7.850  30.822  1.00  0.00     0.092 A 
HETATM   14  C14 UNK     1      31.176  -7.574  31.314  1.00  0.00     0.004 A 
HETATM   15  O2  UNK     1      32.640  -8.339  29.514  1.00  0.00    -0.275 OA
HETATM   16  C18 UNK     1      30.020  -7.803  30.438  1.00  0.00    -0.043 A 
HETATM   17  C21 UNK     1      31.076  -7.092  32.627  1.00  0.00     0.017 A 
HETATM   18  C23 UNK     1      30.229  -8.268  29.197  1.00  0.00     0.090 A 
HETATM   19  C25 UNK     1      28.634  -7.516  30.937  1.00  0.00     0.049 C 
HETATM   20  C26 UNK     1      31.569  -8.564  28.664  1.00  0.00     0.288 A 
HETATM   21  O3  UNK     1      31.720  -8.988  27.524  1.00  0.00    -0.260 OA
HETATM   22  C22 UNK     1      32.221  -6.897  33.407  1.00  0.00     0.030 A 
ENDBRANCH   9  11
ENDBRANCH   7   9
ENDBRANCH   5   7
ENDBRANCH   2   5
BRANCH   3  23
HETATM   23  C2  UNK     1      31.980  -8.783  37.611  1.00  0.00     0.118 C 
BRANCH  23  24
HETATM   24  C1  UNK     1      30.583  -8.417  37.056  1.00  0.00     0.060 C 
BRANCH  24  25
HETATM   25  C3  UNK     1      29.465  -8.542  38.084  1.00  0.00    -0.049 A 
HETATM   26  C6  UNK     1      28.782  -7.407  38.464  1.00  0.00     0.008 A 
HETATM   27  C10 UNK     1      27.758  -7.521  39.405  1.00  0.00     0.001 A 
HETATM   28  C15 UNK     1      27.442  -8.768  39.944  1.00  0.00     0.000 A 
HETATM   29  C12 UNK     1      28.149  -9.901  39.542  1.00  0.00     0.001 A 
HETATM   30  C8  UNK     1      29.173  -9.787  38.601  1.00  0.00     0.008 A 
ENDBRANCH  24  25
BRANCH  24  31
HETATM   31  C4  UNK     1      30.244  -9.165  35.772  1.00  0.00    -0.049 A 
HETATM   32  C7  UNK     1      31.145 -10.086  35.281  1.00  0.00     0.008 A 
HETATM   33  C11 UNK     1      30.834 -10.771  34.106  1.00  0.00     0.001 A 
HETATM   34  C16 UNK     1      29.630 -10.518  33.449  1.00  0.00     0.000 A 
HETATM   35  C13 UNK     1      28.736  -9.581  33.968  1.00  0.00     0.001 A 
HETATM   36  C9  UNK     1      29.047  -8.896  35.143  1.00  0.00     0.008 A 
ENDBRANCH  24  31
ENDBRANCH  23  24
ENDBRANCH   3  23
TORSDOF 8
ENDMDL
MODEL 10
REMARK VINA RESULT:      -9.8      2.097     10.747
REMARK  8 active torsions:
REMARK  status: ('A' for Active; 'I' for Inactive)
REMARK       I    between atoms: C5_12  and  N1_5 
REMARK    1  A    between atoms: N1_5  and  N2_6 
REMARK    2  A    between atoms: C24_31  and  N2_6 
REMARK    3  A    between atoms: C19_26  and  N3_7 
REMARK    4  A    between atoms: C24_31  and  N3_7 
REMARK    5  A    between atoms: C1_8  and  C2_9 
REMARK    6  A    between atoms: C1_8  and  C3_10 
REMARK    7  A    between atoms: C1_8  and  C4_11 
REMARK    8  A    between atoms: C2_9  and  C5_12 
ROOT
HETATM    1  O1  UNK     1      20.070  -3.230  35.319  1.00  0.00    -0.272 OA
HETATM    2  N1  UNK     1      18.724  -2.874  37.177  1.00  0.00    -0.268 N 
HETATM    3  C5  UNK     1      19.831  -3.368  36.518  1.00  0.00     0.237 C 
HETATM    4  H12 UNK     1      18.561  -2.983  38.174  1.00  0.00     0.190 HD
ENDROOT
BRANCH   2   5
HETATM    5  N2  UNK     1      17.788  -2.161  36.463  1.00  0.00    -0.274 N 
HETATM    6  H18 UNK     1      17.006  -2.697  36.102  1.00  0.00     0.189 HD
BRANCH   5   7
HETATM    7  C24 UNK     1      17.844  -0.789  36.359  1.00  0.00     0.191 C 
HETATM    8  S1  UNK     1      16.826   0.277  37.180  1.00  0.00    -0.039 SA
BRANCH   7   9
HETATM    9  N3  UNK     1      18.774  -0.260  35.463  1.00  0.00    -0.332 N 
HETATM   10  H19 UNK     1      19.710  -0.650  35.556  1.00  0.00     0.168 HD
BRANCH   9  11
HETATM   11  C19 UNK     1      18.651   0.686  34.445  1.00  0.00     0.037 A 
HETATM   12  C20 UNK     1      18.752   0.295  33.113  1.00  0.00     0.067 A 
HETATM   13  C17 UNK     1      18.625   1.258  32.110  1.00  0.00     0.092 A 
HETATM   14  C14 UNK     1      18.399   2.605  32.394  1.00  0.00     0.004 A 
HETATM   15  O2  UNK     1      18.735   0.801  30.782  1.00  0.00    -0.275 OA
HETATM   16  C18 UNK     1      18.277   3.549  31.275  1.00  0.00    -0.043 A 
HETATM   17  C21 UNK     1      18.300   2.978  33.742  1.00  0.00     0.017 A 
HETATM   18  C23 UNK     1      18.388   3.087  30.022  1.00  0.00     0.090 A 
HETATM   19  C25 UNK     1      18.034   5.005  31.547  1.00  0.00     0.049 C 
HETATM   20  C26 UNK     1      18.626   1.668  29.706  1.00  0.00     0.288 A 
HETATM   21  O3  UNK     1      18.721   1.283  28.546  1.00  0.00    -0.260 OA
HETATM   22  C22 UNK     1      18.426   2.025  34.758  1.00  0.00     0.030 A 
ENDBRANCH   9  11
ENDBRANCH   7   9
ENDBRANCH   5   7
ENDBRANCH   2   5
BRANCH   3  23
HETATM   23  C2  UNK     1      20.778  -4.121  37.437  1.00  0.00     0.118 C 
BRANCH  23  24
HETATM   24  C1  UNK     1      20.156  -5.433  37.969  1.00  0.00     0.060 C 
BRANCH  24  25
HETATM   25  C3  UNK     1      21.167  -6.364  38.630  1.00  0.00    -0.049 A 
HETATM   26  C6  UNK     1      20.716  -7.536  39.200  1.00  0.00     0.008 A 
HETATM   27  C10 UNK     1      21.641  -8.387  39.805  1.00  0.00     0.001 A 
HETATM   28  C15 UNK     1      22.994  -8.048  39.825  1.00  0.00     0.000 A 
HETATM   29  C12 UNK     1      23.422  -6.856  39.240  1.00  0.00     0.001 A 
HETATM   30  C8  UNK     1      22.497  -6.004  38.636  1.00  0.00     0.008 A 
ENDBRANCH  24  25
BRANCH  24  31
HETATM   31  C4  UNK     1      19.332  -6.165  36.917  1.00  0.00    -0.049 A 
HETATM   32  C7  UNK     1      19.976  -6.705  35.825  1.00  0.00     0.008 A 
HETATM   33  C11 UNK     1      19.221  -7.375  34.861  1.00  0.00     0.001 A 
HETATM   34  C16 UNK     1      17.839  -7.489  35.013  1.00  0.00     0.000 A 
HETATM   35  C13 UNK     1      17.212  -6.933  36.130  1.00  0.00     0.001 A 
HETATM   36  C9  UNK     1      17.967  -6.263  37.091  1.00  0.00     0.008 A 
ENDBRANCH  24  31
ENDBRANCH  23  24
ENDBRANCH   3  23
TORSDOF 8
ENDMDL
