MODEL 1
REMARK VINA RESULT:      -9.4      0.000      0.000
REMARK  9 active torsions:
REMARK  status: ('A' for Active; 'I' for Inactive)
REMARK    1  A    between atoms: C1_5  and  O1_1 
REMARK    2  A    between atoms: C5_9  and  O1_1 
REMARK    3  A    between atoms: C15_19  and  O2_2 
REMARK    4  A    between atoms: C2_6  and  O2_2 
REMARK    5  A    between atoms: C10_14  and  O3_3 
REMARK    6  A    between atoms: C8_12  and  O3_3 
REMARK    7  A    between atoms: C3_7  and  C9_13 
REMARK    8  A    between atoms: C5_9  and  C8_12 
REMARK    9  A    between atoms: C11_15  and  C13_17 
ROOT
HETATM    1  N1  UNK     1      18.798  10.387  34.151  1.00  0.00    -0.191 NA
HETATM    2  C9  UNK     1      19.032   7.245  32.747  1.00  0.00     0.035 C 
HETATM    3  C11 UNK     1      18.058   8.109  33.138  1.00  0.00     0.055 C 
HETATM    4  C26 UNK     1      18.477   9.367  33.698  1.00  0.00     0.100 C 
ENDROOT
BRANCH   3   5
HETATM    5  C13 UNK     1      16.635   7.832  33.016  1.00  0.00    -0.015 A 
HETATM    6  C19 UNK     1      15.856   7.665  34.161  1.00  0.00     0.013 A 
HETATM    7  C23 UNK     1      14.491   7.401  34.045  1.00  0.00     0.001 A 
HETATM    8  C25 UNK     1      13.906   7.302  32.782  1.00  0.00     0.000 A 
HETATM    9  C24 UNK     1      14.684   7.469  31.637  1.00  0.00     0.001 A 
HETATM   10  C20 UNK     1      16.049   7.734  31.754  1.00  0.00     0.013 A 
ENDBRANCH   3   5
BRANCH   2  11
HETATM   11  C3  UNK     1      18.815   5.908  32.176  1.00  0.00    -0.032 A 
HETATM   12  C4  UNK     1      18.265   4.895  32.962  1.00  0.00     0.051 A 
HETATM   13  C2  UNK     1      18.060   3.626  32.419  1.00  0.00     0.102 A 
HETATM   14  C1  UNK     1      18.403   3.371  31.092  1.00  0.00     0.102 A 
HETATM   15  C6  UNK     1      18.951   4.385  30.306  1.00  0.00     0.040 A 
HETATM   16  C7  UNK     1      19.157   5.653  30.848  1.00  0.00     0.014 A 
BRANCH  13  17
HETATM   17  O2  UNK     1      17.523   2.645  33.197  1.00  0.00    -0.349 OA
BRANCH  17  18
HETATM   18  C15 UNK     1      18.433   1.730  33.806  1.00  0.00     0.171 C 
HETATM   19  C22 UNK     1      18.592   2.092  35.267  1.00  0.00     0.034 C 
ENDBRANCH  17  18
ENDBRANCH  13  17
BRANCH  14  20
HETATM   20  O1  UNK     1      18.205   2.136  30.551  1.00  0.00    -0.346 OA
BRANCH  20  21
HETATM   21  C5  UNK     1      17.953   2.076  29.148  1.00  0.00     0.202 C 
BRANCH  21  22
HETATM   22  C8  UNK     1      18.567   0.807  28.589  1.00  0.00     0.202 C 
BRANCH  22  23
HETATM   23  O3  UNK     1      19.872   0.646  29.130  1.00  0.00    -0.349 OA
BRANCH  23  24
HETATM   24  C10 UNK     1      20.101  -0.489  29.863  1.00  0.00     0.069 A 
HETATM   25  C14 UNK     1      19.757  -0.526  31.215  1.00  0.00     0.043 A 
HETATM   26  C12 UNK     1      19.989  -1.682  31.961  1.00  0.00    -0.059 A 
HETATM   27  C17 UNK     1      20.563  -2.799  31.356  1.00  0.00     0.007 A 
HETATM   28  C21 UNK     1      19.620  -1.723  33.406  1.00  0.00     0.048 C 
HETATM   29  C18 UNK     1      20.907  -2.761  30.005  1.00  0.00     0.003 A 
HETATM   30  C16 UNK     1      20.675  -1.606  29.258  1.00  0.00     0.037 A 
ENDBRANCH  23  24
ENDBRANCH  22  23
ENDBRANCH  21  22
ENDBRANCH  20  21
ENDBRANCH  14  20
ENDBRANCH   2  11
TORSDOF 9
ENDMDL
MODEL 2
REMARK VINA RESULT:      -9.0      1.693      4.064
REMARK  9 active torsions:
REMARK  status: ('A' for Active; 'I' for Inactive)
REMARK    1  A    between atoms: C1_5  and  O1_1 
REMARK    2  A    between atoms: C5_9  and  O1_1 
REMARK    3  A    between atoms: C15_19  and  O2_2 
REMARK    4  A    between atoms: C2_6  and  O2_2 
REMARK    5  A    between atoms: C10_14  and  O3_3 
REMARK    6  A    between atoms: C8_12  and  O3_3 
REMARK    7  A    between atoms: C3_7  and  C9_13 
REMARK    8  A    between atoms: C5_9  and  C8_12 
REMARK    9  A    between atoms: C11_15  and  C13_17 
ROOT
HETATM    1  N1  UNK     1      18.971  10.239  34.047  1.00  0.00    -0.191 NA
HETATM    2  C9  UNK     1      19.111   6.893  33.222  1.00  0.00     0.035 C 
HETATM    3  C11 UNK     1      18.168   7.863  33.362  1.00  0.00     0.055 C 
HETATM    4  C26 UNK     1      18.622   9.175  33.742  1.00  0.00     0.100 C 
ENDROOT
BRANCH   3   5
HETATM    5  C13 UNK     1      16.746   7.646  33.145  1.00  0.00    -0.015 A 
HETATM    6  C19 UNK     1      16.237   7.608  31.846  1.00  0.00     0.013 A 
HETATM    7  C23 UNK     1      14.874   7.399  31.636  1.00  0.00     0.001 A 
HETATM    8  C25 UNK     1      14.019   7.230  32.726  1.00  0.00     0.000 A 
HETATM    9  C24 UNK     1      14.527   7.268  34.023  1.00  0.00     0.001 A 
HETATM   10  C20 UNK     1      15.891   7.476  34.233  1.00  0.00     0.013 A 
ENDBRANCH   3   5
BRANCH   2  11
HETATM   11  C3  UNK     1      18.852   5.491  32.865  1.00  0.00    -0.032 A 
HETATM   12  C4  UNK     1      19.080   5.050  31.561  1.00  0.00     0.051 A 
HETATM   13  C2  UNK     1      18.833   3.719  31.223  1.00  0.00     0.102 A 
HETATM   14  C1  UNK     1      18.361   2.829  32.187  1.00  0.00     0.102 A 
HETATM   15  C6  UNK     1      18.134   3.271  33.491  1.00  0.00     0.040 A 
HETATM   16  C7  UNK     1      18.380   4.601  33.830  1.00  0.00     0.014 A 
BRANCH  13  17
HETATM   17  O2  UNK     1      19.059   3.300  29.946  1.00  0.00    -0.349 OA
BRANCH  17  18
HETATM   18  C15 UNK     1      17.916   3.115  29.114  1.00  0.00     0.171 C 
HETATM   19  C22 UNK     1      17.928   1.704  28.566  1.00  0.00     0.034 C 
ENDBRANCH  17  18
ENDBRANCH  13  17
BRANCH  14  20
HETATM   20  O1  UNK     1      18.118   1.527  31.869  1.00  0.00    -0.346 OA
BRANCH  20  21
HETATM   21  C5  UNK     1      19.213   0.620  31.975  1.00  0.00     0.202 C 
BRANCH  21  22
HETATM   22  C8  UNK     1      18.738  -0.652  32.650  1.00  0.00     0.202 C 
BRANCH  22  23
HETATM   23  O3  UNK     1      19.063  -0.592  34.034  1.00  0.00    -0.349 OA
BRANCH  23  24
HETATM   24  C10 UNK     1      18.066  -0.194  34.885  1.00  0.00     0.069 A 
HETATM   25  C14 UNK     1      18.389   0.376  36.118  1.00  0.00     0.043 A 
HETATM   26  C12 UNK     1      17.374   0.782  36.984  1.00  0.00    -0.059 A 
HETATM   27  C17 UNK     1      16.038   0.620  36.618  1.00  0.00     0.007 A 
HETATM   28  C21 UNK     1      17.717   1.393  38.301  1.00  0.00     0.048 C 
HETATM   29  C18 UNK     1      15.716   0.050  35.386  1.00  0.00     0.003 A 
HETATM   30  C16 UNK     1      16.731  -0.356  34.520  1.00  0.00     0.037 A 
ENDBRANCH  23  24
ENDBRANCH  22  23
ENDBRANCH  21  22
ENDBRANCH  20  21
ENDBRANCH  14  20
ENDBRANCH   2  11
TORSDOF 9
ENDMDL
MODEL 3
REMARK VINA RESULT:      -8.9      4.799     10.159
REMARK  9 active torsions:
REMARK  status: ('A' for Active; 'I' for Inactive)
REMARK    1  A    between atoms: C1_5  and  O1_1 
REMARK    2  A    between atoms: C5_9  and  O1_1 
REMARK    3  A    between atoms: C15_19  and  O2_2 
REMARK    4  A    between atoms: C2_6  and  O2_2 
REMARK    5  A    between atoms: C10_14  and  O3_3 
REMARK    6  A    between atoms: C8_12  and  O3_3 
REMARK    7  A    between atoms: C3_7  and  C9_13 
REMARK    8  A    between atoms: C5_9  and  C8_12 
REMARK    9  A    between atoms: C11_15  and  C13_17 
ROOT
HETATM    1  N1  UNK     1      22.377  -6.214  38.924  1.00  0.00    -0.191 NA
HETATM    2  C9  UNK     1      20.846  -3.634  37.224  1.00  0.00     0.035 C 
HETATM    3  C11 UNK     1      20.725  -4.984  37.338  1.00  0.00     0.055 C 
HETATM    4  C26 UNK     1      21.643  -5.656  38.218  1.00  0.00     0.100 C 
ENDROOT
BRANCH   3   5
HETATM    5  C13 UNK     1      19.725  -5.769  36.631  1.00  0.00    -0.015 A 
HETATM    6  C19 UNK     1      18.413  -5.816  37.105  1.00  0.00     0.013 A 
HETATM    7  C23 UNK     1      17.453  -6.569  36.427  1.00  0.00     0.001 A 
HETATM    8  C25 UNK     1      17.806  -7.275  35.277  1.00  0.00     0.000 A 
HETATM    9  C24 UNK     1      19.116  -7.228  34.803  1.00  0.00     0.001 A 
HETATM   10  C20 UNK     1      20.076  -6.475  35.480  1.00  0.00     0.013 A 
ENDBRANCH   3   5
BRANCH   2  11
HETATM   11  C3  UNK     1      20.024  -2.769  36.365  1.00  0.00    -0.032 A 
HETATM   12  C4  UNK     1      18.925  -2.095  36.900  1.00  0.00     0.051 A 
HETATM   13  C2  UNK     1      18.146  -1.276  36.084  1.00  0.00     0.102 A 
HETATM   14  C1  UNK     1      18.464  -1.129  34.734  1.00  0.00     0.102 A 
HETATM   15  C6  UNK     1      19.563  -1.802  34.199  1.00  0.00     0.040 A 
HETATM   16  C7  UNK     1      20.342  -2.622  35.014  1.00  0.00     0.014 A 
BRANCH  13  17
HETATM   17  O2  UNK     1      17.076  -0.623  36.618  1.00  0.00    -0.349 OA
BRANCH  17  18
HETATM   18  C15 UNK     1      17.297   0.108  37.822  1.00  0.00     0.171 C 
HETATM   19  C22 UNK     1      17.755   1.508  37.472  1.00  0.00     0.034 C 
ENDBRANCH  17  18
ENDBRANCH  13  17
BRANCH  14  20
HETATM   20  O1  UNK     1      17.711  -0.330  33.928  1.00  0.00    -0.346 OA
BRANCH  20  21
HETATM   21  C5  UNK     1      18.009   1.065  33.938  1.00  0.00     0.202 C 
BRANCH  21  22
HETATM   22  C8  UNK     1      18.526   1.470  32.571  1.00  0.00     0.202 C 
BRANCH  22  23
HETATM   23  O3  UNK     1      17.691   2.494  32.044  1.00  0.00    -0.349 OA
BRANCH  23  24
HETATM   24  C10 UNK     1      18.292   3.690  31.750  1.00  0.00     0.069 A 
HETATM   25  C14 UNK     1      18.387   4.681  32.726  1.00  0.00     0.043 A 
HETATM   26  C12 UNK     1      18.999   5.899  32.427  1.00  0.00    -0.059 A 
HETATM   27  C17 UNK     1      19.517   6.124  31.152  1.00  0.00     0.007 A 
HETATM   28  C21 UNK     1      19.104   6.958  33.472  1.00  0.00     0.048 C 
HETATM   29  C18 UNK     1      19.420   5.133  30.175  1.00  0.00     0.003 A 
HETATM   30  C16 UNK     1      18.809   3.916  30.474  1.00  0.00     0.037 A 
ENDBRANCH  23  24
ENDBRANCH  22  23
ENDBRANCH  21  22
ENDBRANCH  20  21
ENDBRANCH  14  20
ENDBRANCH   2  11
TORSDOF 9
ENDMDL
MODEL 4
REMARK VINA RESULT:      -8.9     14.589     17.226
REMARK  9 active torsions:
REMARK  status: ('A' for Active; 'I' for Inactive)
REMARK    1  A    between atoms: C1_5  and  O1_1 
REMARK    2  A    between atoms: C5_9  and  O1_1 
REMARK    3  A    between atoms: C15_19  and  O2_2 
REMARK    4  A    between atoms: C2_6  and  O2_2 
REMARK    5  A    between atoms: C10_14  and  O3_3 
REMARK    6  A    between atoms: C8_12  and  O3_3 
REMARK    7  A    between atoms: C3_7  and  C9_13 
REMARK    8  A    between atoms: C5_9  and  C8_12 
REMARK    9  A    between atoms: C11_15  and  C13_17 
ROOT
HETATM    1  N1  UNK     1      30.118  -2.976  30.080  1.00  0.00    -0.191 NA
HETATM    2  C9  UNK     1      30.542  -5.117  32.750  1.00  0.00     0.035 C 
HETATM    3  C11 UNK     1      29.906  -5.112  31.549  1.00  0.00     0.055 C 
HETATM    4  C26 UNK     1      30.029  -3.926  30.743  1.00  0.00     0.100 C 
ENDROOT
BRANCH   3   5
HETATM    5  C13 UNK     1      29.126  -6.230  31.041  1.00  0.00    -0.015 A 
HETATM    6  C19 UNK     1      29.741  -7.214  30.266  1.00  0.00     0.013 A 
HETATM    7  C23 UNK     1      28.993  -8.287  29.779  1.00  0.00     0.001 A 
HETATM    8  C25 UNK     1      27.631  -8.374  30.066  1.00  0.00     0.000 A 
HETATM    9  C24 UNK     1      27.017  -7.390  30.840  1.00  0.00     0.001 A 
HETATM   10  C20 UNK     1      27.764  -6.318  31.328  1.00  0.00     0.013 A 
ENDBRANCH   3   5
BRANCH   2  11
HETATM   11  C3  UNK     1      30.522  -6.217  33.726  1.00  0.00    -0.032 A 
HETATM   12  C4  UNK     1      29.504  -6.287  34.678  1.00  0.00     0.051 A 
HETATM   13  C2  UNK     1      29.487  -7.330  35.603  1.00  0.00     0.102 A 
HETATM   14  C1  UNK     1      30.486  -8.304  35.578  1.00  0.00     0.102 A 
HETATM   15  C6  UNK     1      31.503  -8.233  34.626  1.00  0.00     0.040 A 
HETATM   16  C7  UNK     1      31.521  -7.190  33.700  1.00  0.00     0.014 A 
BRANCH  13  17
HETATM   17  O2  UNK     1      28.488  -7.388  36.528  1.00  0.00    -0.349 OA
BRANCH  17  18
HETATM   18  C15 UNK     1      28.407  -6.313  37.462  1.00  0.00     0.171 C 
HETATM   19  C22 UNK     1      28.382  -6.879  38.865  1.00  0.00     0.034 C 
ENDBRANCH  17  18
ENDBRANCH  13  17
BRANCH  14  20
HETATM   20  O1  UNK     1      30.478  -9.328  36.476  1.00  0.00    -0.346 OA
BRANCH  20  21
HETATM   21  C5  UNK     1      31.660  -9.520  37.250  1.00  0.00     0.202 C 
BRANCH  21  22
HETATM   22  C8  UNK     1      31.744  -8.431  38.303  1.00  0.00     0.202 C 
BRANCH  22  23
HETATM   23  O3  UNK     1      32.938  -7.684  38.102  1.00  0.00    -0.349 OA
BRANCH  23  24
HETATM   24  C10 UNK     1      32.809  -6.467  37.486  1.00  0.00     0.069 A 
HETATM   25  C14 UNK     1      33.695  -6.102  36.472  1.00  0.00     0.043 A 
HETATM   26  C12 UNK     1      33.563  -4.863  35.844  1.00  0.00    -0.059 A 
HETATM   27  C17 UNK     1      32.546  -3.991  36.229  1.00  0.00     0.007 A 
HETATM   28  C21 UNK     1      34.508  -4.474  34.758  1.00  0.00     0.048 C 
HETATM   29  C18 UNK     1      31.661  -4.356  37.244  1.00  0.00     0.003 A 
HETATM   30  C16 UNK     1      31.792  -5.594  37.872  1.00  0.00     0.037 A 
ENDBRANCH  23  24
ENDBRANCH  22  23
ENDBRANCH  21  22
ENDBRANCH  20  21
ENDBRANCH  14  20
ENDBRANCH   2  11
TORSDOF 9
ENDMDL
MODEL 5
REMARK VINA RESULT:      -8.8     14.865     17.563
REMARK  9 active torsions:
REMARK  status: ('A' for Active; 'I' for Inactive)
REMARK    1  A    between atoms: C1_5  and  O1_1 
REMARK    2  A    between atoms: C5_9  and  O1_1 
REMARK    3  A    between atoms: C15_19  and  O2_2 
REMARK    4  A    between atoms: C2_6  and  O2_2 
REMARK    5  A    between atoms: C10_14  and  O3_3 
REMARK    6  A    between atoms: C8_12  and  O3_3 
REMARK    7  A    between atoms: C3_7  and  C9_13 
REMARK    8  A    between atoms: C5_9  and  C8_12 
REMARK    9  A    between atoms: C11_15  and  C13_17 
ROOT
HETATM    1  N1  UNK     1      30.129  -2.962  30.043  1.00  0.00    -0.191 NA
HETATM    2  C9  UNK     1      30.542  -5.142  32.684  1.00  0.00     0.035 C 
HETATM    3  C11 UNK     1      29.907  -5.117  31.481  1.00  0.00     0.055 C 
HETATM    4  C26 UNK     1      30.035  -3.920  30.693  1.00  0.00     0.100 C 
ENDROOT
BRANCH   3   5
HETATM    5  C13 UNK     1      29.123  -6.225  30.957  1.00  0.00    -0.015 A 
HETATM    6  C19 UNK     1      27.760  -6.310  31.242  1.00  0.00     0.013 A 
HETATM    7  C23 UNK     1      27.007  -7.372  30.739  1.00  0.00     0.001 A 
HETATM    8  C25 UNK     1      27.619  -8.349  29.953  1.00  0.00     0.000 A 
HETATM    9  C24 UNK     1      28.981  -8.264  29.670  1.00  0.00     0.001 A 
HETATM   10  C20 UNK     1      29.734  -7.202  30.171  1.00  0.00     0.013 A 
ENDBRANCH   3   5
BRANCH   2  11
HETATM   11  C3  UNK     1      30.517  -6.255  33.644  1.00  0.00    -0.032 A 
HETATM   12  C4  UNK     1      31.529  -7.215  33.625  1.00  0.00     0.051 A 
HETATM   13  C2  UNK     1      31.504  -8.271  34.536  1.00  0.00     0.102 A 
HETATM   14  C1  UNK     1      30.468  -8.367  35.465  1.00  0.00     0.102 A 
HETATM   15  C6  UNK     1      29.456  -7.407  35.483  1.00  0.00     0.040 A 
HETATM   16  C7  UNK     1      29.481  -6.351  34.573  1.00  0.00     0.014 A 
BRANCH  13  17
HETATM   17  O2  UNK     1      32.498  -9.202  34.508  1.00  0.00    -0.349 OA
BRANCH  17  18
HETATM   18  C15 UNK     1      33.823  -8.729  34.273  1.00  0.00     0.171 C 
HETATM   19  C22 UNK     1      34.564  -9.740  33.425  1.00  0.00     0.034 C 
ENDBRANCH  17  18
ENDBRANCH  13  17
BRANCH  14  20
HETATM   20  O1  UNK     1      30.434  -9.394  36.360  1.00  0.00    -0.346 OA
BRANCH  20  21
HETATM   21  C5  UNK     1      30.575  -9.056  37.739  1.00  0.00     0.202 C 
BRANCH  21  22
HETATM   22  C8  UNK     1      32.001  -8.606  37.995  1.00  0.00     0.202 C 
BRANCH  22  23
HETATM   23  O3  UNK     1      31.978  -7.385  38.723  1.00  0.00    -0.349 OA
BRANCH  23  24
HETATM   24  C10 UNK     1      31.906  -6.230  37.989  1.00  0.00     0.069 A 
HETATM   25  C14 UNK     1      32.844  -5.982  36.987  1.00  0.00     0.043 A 
HETATM   26  C12 UNK     1      32.770  -4.806  36.239  1.00  0.00    -0.059 A 
HETATM   27  C17 UNK     1      31.759  -3.880  36.493  1.00  0.00     0.007 A 
HETATM   28  C21 UNK     1      33.771  -4.542  35.165  1.00  0.00     0.048 C 
HETATM   29  C18 UNK     1      30.822  -4.128  37.496  1.00  0.00     0.003 A 
HETATM   30  C16 UNK     1      30.895  -5.303  38.244  1.00  0.00     0.037 A 
ENDBRANCH  23  24
ENDBRANCH  22  23
ENDBRANCH  21  22
ENDBRANCH  20  21
ENDBRANCH  14  20
ENDBRANCH   2  11
TORSDOF 9
ENDMDL
MODEL 6
REMARK VINA RESULT:      -8.4     14.999     18.318
REMARK  9 active torsions:
REMARK  status: ('A' for Active; 'I' for Inactive)
REMARK    1  A    between atoms: C1_5  and  O1_1 
REMARK    2  A    between atoms: C5_9  and  O1_1 
REMARK    3  A    between atoms: C15_19  and  O2_2 
REMARK    4  A    between atoms: C2_6  and  O2_2 
REMARK    5  A    between atoms: C10_14  and  O3_3 
REMARK    6  A    between atoms: C8_12  and  O3_3 
REMARK    7  A    between atoms: C3_7  and  C9_13 
REMARK    8  A    between atoms: C5_9  and  C8_12 
REMARK    9  A    between atoms: C11_15  and  C13_17 
ROOT
HETATM    1  N1  UNK     1      31.962  -8.829  27.852  1.00  0.00    -0.191 NA
HETATM    2  C9  UNK     1      31.802  -8.050  31.208  1.00  0.00     0.035 C 
HETATM    3  C11 UNK     1      30.961  -8.104  30.140  1.00  0.00     0.055 C 
HETATM    4  C26 UNK     1      31.524  -8.506  28.878  1.00  0.00     0.100 C 
ENDROOT
BRANCH   3   5
HETATM    5  C13 UNK     1      29.543  -7.789  30.210  1.00  0.00    -0.015 A 
HETATM    6  C19 UNK     1      29.119  -6.462  30.125  1.00  0.00     0.013 A 
HETATM    7  C23 UNK     1      27.759  -6.159  30.191  1.00  0.00     0.001 A 
HETATM    8  C25 UNK     1      26.823  -7.182  30.344  1.00  0.00     0.000 A 
HETATM    9  C24 UNK     1      27.247  -8.508  30.429  1.00  0.00     0.001 A 
HETATM   10  C20 UNK     1      28.607  -8.812  30.362  1.00  0.00     0.013 A 
ENDBRANCH   3   5
BRANCH   2  11
HETATM   11  C3  UNK     1      31.430  -7.644  32.571  1.00  0.00    -0.032 A 
HETATM   12  C4  UNK     1      31.094  -8.610  33.520  1.00  0.00     0.051 A 
HETATM   13  C2  UNK     1      30.741  -8.224  34.812  1.00  0.00     0.102 A 
HETATM   14  C1  UNK     1      30.725  -6.873  35.158  1.00  0.00     0.102 A 
HETATM   15  C6  UNK     1      31.062  -5.907  34.209  1.00  0.00     0.040 A 
HETATM   16  C7  UNK     1      31.415  -6.292  32.917  1.00  0.00     0.014 A 
BRANCH  13  17
HETATM   17  O2  UNK     1      30.414  -9.177  35.730  1.00  0.00    -0.349 OA
BRANCH  17  18
HETATM   18  C15 UNK     1      31.491  -9.823  36.405  1.00  0.00     0.171 C 
HETATM   19  C22 UNK     1      31.150  -9.944  37.875  1.00  0.00     0.034 C 
ENDBRANCH  17  18
ENDBRANCH  13  17
BRANCH  14  20
HETATM   20  O1  UNK     1      30.383  -6.484  36.418  1.00  0.00    -0.346 OA
BRANCH  20  21
HETATM   21  C5  UNK     1      31.280  -5.601  37.089  1.00  0.00     0.202 C 
BRANCH  21  22
HETATM   22  C8  UNK     1      32.310  -6.421  37.843  1.00  0.00     0.202 C 
BRANCH  22  23
HETATM   23  O3  UNK     1      33.604  -5.886  37.589  1.00  0.00    -0.349 OA
BRANCH  23  24
HETATM   24  C10 UNK     1      34.079  -6.001  36.309  1.00  0.00     0.069 A 
HETATM   25  C14 UNK     1      34.217  -7.262  35.728  1.00  0.00     0.043 A 
HETATM   26  C12 UNK     1      34.700  -7.379  34.424  1.00  0.00    -0.059 A 
HETATM   27  C17 UNK     1      35.044  -6.237  33.702  1.00  0.00     0.007 A 
HETATM   28  C21 UNK     1      34.846  -8.727  33.801  1.00  0.00     0.048 C 
HETATM   29  C18 UNK     1      34.906  -4.977  34.284  1.00  0.00     0.003 A 
HETATM   30  C16 UNK     1      34.423  -4.859  35.587  1.00  0.00     0.037 A 
ENDBRANCH  23  24
ENDBRANCH  22  23
ENDBRANCH  21  22
ENDBRANCH  20  21
ENDBRANCH  14  20
ENDBRANCH   2  11
TORSDOF 9
ENDMDL
MODEL 7
REMARK VINA RESULT:      -8.2     15.428     17.702
REMARK  9 active torsions:
REMARK  status: ('A' for Active; 'I' for Inactive)
REMARK    1  A    between atoms: C1_5  and  O1_1 
REMARK    2  A    between atoms: C5_9  and  O1_1 
REMARK    3  A    between atoms: C15_19  and  O2_2 
REMARK    4  A    between atoms: C2_6  and  O2_2 
REMARK    5  A    between atoms: C10_14  and  O3_3 
REMARK    6  A    between atoms: C8_12  and  O3_3 
REMARK    7  A    between atoms: C3_7  and  C9_13 
REMARK    8  A    between atoms: C5_9  and  C8_12 
REMARK    9  A    between atoms: C11_15  and  C13_17 
ROOT
HETATM    1  N1  UNK     1      29.516  -3.745  39.892  1.00  0.00    -0.191 NA
HETATM    2  C9  UNK     1      31.056  -4.537  36.909  1.00  0.00     0.035 C 
HETATM    3  C11 UNK     1      30.528  -5.188  37.980  1.00  0.00     0.055 C 
HETATM    4  C26 UNK     1      29.971  -4.381  39.033  1.00  0.00     0.100 C 
ENDROOT
BRANCH   3   5
HETATM    5  C13 UNK     1      30.493  -6.637  38.109  1.00  0.00    -0.015 A 
HETATM    6  C19 UNK     1      31.682  -7.352  38.257  1.00  0.00     0.013 A 
HETATM    7  C23 UNK     1      31.649  -8.742  38.382  1.00  0.00     0.001 A 
HETATM    8  C25 UNK     1      30.427  -9.415  38.357  1.00  0.00     0.000 A 
HETATM    9  C24 UNK     1      29.239  -8.700  38.208  1.00  0.00     0.001 A 
HETATM   10  C20 UNK     1      29.272  -7.310  38.085  1.00  0.00     0.013 A 
ENDBRANCH   3   5
BRANCH   2  11
HETATM   11  C3  UNK     1      31.690  -5.174  35.746  1.00  0.00    -0.032 A 
HETATM   12  C4  UNK     1      33.074  -5.100  35.578  1.00  0.00     0.051 A 
HETATM   13  C2  UNK     1      33.674  -5.704  34.474  1.00  0.00     0.102 A 
HETATM   14  C1  UNK     1      32.893  -6.381  33.537  1.00  0.00     0.102 A 
HETATM   15  C6  UNK     1      31.511  -6.455  33.706  1.00  0.00     0.040 A 
HETATM   16  C7  UNK     1      30.909  -5.851  34.810  1.00  0.00     0.014 A 
BRANCH  13  17
HETATM   17  O2  UNK     1      35.026  -5.625  34.320  1.00  0.00    -0.349 OA
BRANCH  17  18
HETATM   18  C15 UNK     1      35.823  -6.455  35.163  1.00  0.00     0.171 C 
HETATM   19  C22 UNK     1      36.680  -7.356  34.300  1.00  0.00     0.034 C 
ENDBRANCH  17  18
ENDBRANCH  13  17
BRANCH  14  20
HETATM   20  O1  UNK     1      33.470  -6.976  32.455  1.00  0.00    -0.346 OA
BRANCH  20  21
HETATM   21  C5  UNK     1      32.805  -8.115  31.912  1.00  0.00     0.202 C 
BRANCH  21  22
HETATM   22  C8  UNK     1      32.497  -7.858  30.449  1.00  0.00     0.202 C 
BRANCH  22  23
HETATM   23  O3  UNK     1      31.435  -6.917  30.358  1.00  0.00    -0.349 OA
BRANCH  23  24
HETATM   24  C10 UNK     1      30.167  -7.425  30.243  1.00  0.00     0.069 A 
HETATM   25  C14 UNK     1      29.921  -8.493  29.380  1.00  0.00     0.043 A 
HETATM   26  C12 UNK     1      28.631  -9.011  29.264  1.00  0.00    -0.059 A 
HETATM   27  C17 UNK     1      27.589  -8.464  30.011  1.00  0.00     0.007 A 
HETATM   28  C21 UNK     1      28.366 -10.154  28.342  1.00  0.00     0.048 C 
HETATM   29  C18 UNK     1      27.836  -7.396  30.874  1.00  0.00     0.003 A 
HETATM   30  C16 UNK     1      29.126  -6.878  30.991  1.00  0.00     0.037 A 
ENDBRANCH  23  24
ENDBRANCH  22  23
ENDBRANCH  21  22
ENDBRANCH  20  21
ENDBRANCH  14  20
ENDBRANCH   2  11
TORSDOF 9
ENDMDL
MODEL 8
REMARK VINA RESULT:      -8.2     14.615     17.741
REMARK  9 active torsions:
REMARK  status: ('A' for Active; 'I' for Inactive)
REMARK    1  A    between atoms: C1_5  and  O1_1 
REMARK    2  A    between atoms: C5_9  and  O1_1 
REMARK    3  A    between atoms: C15_19  and  O2_2 
REMARK    4  A    between atoms: C2_6  and  O2_2 
REMARK    5  A    between atoms: C10_14  and  O3_3 
REMARK    6  A    between atoms: C8_12  and  O3_3 
REMARK    7  A    between atoms: C3_7  and  C9_13 
REMARK    8  A    between atoms: C5_9  and  C8_12 
REMARK    9  A    between atoms: C11_15  and  C13_17 
ROOT
HETATM    1  N1  UNK     1      26.134  -8.116  37.474  1.00  0.00    -0.191 NA
HETATM    2  C9  UNK     1      28.275  -8.263  34.774  1.00  0.00     0.035 C 
HETATM    3  C11 UNK     1      28.358  -8.230  36.130  1.00  0.00     0.055 C 
HETATM    4  C26 UNK     1      27.122  -8.167  36.865  1.00  0.00     0.100 C 
ENDROOT
BRANCH   3   5
HETATM    5  C13 UNK     1      29.613  -8.263  36.865  1.00  0.00    -0.015 A 
HETATM    6  C19 UNK     1      30.147  -7.082  37.384  1.00  0.00     0.013 A 
HETATM    7  C23 UNK     1      31.351  -7.113  38.089  1.00  0.00     0.001 A 
HETATM    8  C25 UNK     1      32.020  -8.323  38.275  1.00  0.00     0.000 A 
HETATM    9  C24 UNK     1      31.486  -9.501  37.756  1.00  0.00     0.001 A 
HETATM   10  C20 UNK     1      30.282  -9.472  37.052  1.00  0.00     0.013 A 
ENDBRANCH   3   5
BRANCH   2  11
HETATM   11  C3  UNK     1      29.414  -8.306  33.846  1.00  0.00    -0.032 A 
HETATM   12  C4  UNK     1      29.713  -9.485  33.161  1.00  0.00     0.051 A 
HETATM   13  C2  UNK     1      30.794  -9.525  32.282  1.00  0.00     0.102 A 
HETATM   14  C1  UNK     1      31.578  -8.387  32.086  1.00  0.00     0.102 A 
HETATM   15  C6  UNK     1      31.279  -7.209  32.771  1.00  0.00     0.040 A 
HETATM   16  C7  UNK     1      30.198  -7.169  33.650  1.00  0.00     0.014 A 
BRANCH  13  17
HETATM   17  O2  UNK     1      31.076 -10.681  31.619  1.00  0.00    -0.349 OA
BRANCH  17  18
HETATM   18  C15 UNK     1      30.296 -11.827  31.954  1.00  0.00     0.171 C 
HETATM   19  C22 UNK     1      30.261 -12.765  30.767  1.00  0.00     0.034 C 
ENDBRANCH  17  18
ENDBRANCH  13  17
BRANCH  14  20
HETATM   20  O1  UNK     1      32.636  -8.414  31.228  1.00  0.00    -0.346 OA
BRANCH  20  21
HETATM   21  C5  UNK     1      32.728  -7.352  30.280  1.00  0.00     0.202 C 
BRANCH  21  22
HETATM   22  C8  UNK     1      32.237  -7.847  28.933  1.00  0.00     0.202 C 
BRANCH  22  23
HETATM   23  O3  UNK     1      31.035  -7.165  28.599  1.00  0.00    -0.349 OA
BRANCH  23  24
HETATM   24  C10 UNK     1      29.872  -7.674  29.114  1.00  0.00     0.069 A 
HETATM   25  C14 UNK     1      29.080  -6.890  29.954  1.00  0.00     0.043 A 
HETATM   26  C12 UNK     1      27.895  -7.408  30.478  1.00  0.00    -0.059 A 
HETATM   27  C17 UNK     1      27.502  -8.708  30.162  1.00  0.00     0.007 A 
HETATM   28  C21 UNK     1      27.046  -6.569  31.373  1.00  0.00     0.048 C 
HETATM   29  C18 UNK     1      28.295  -9.492  29.323  1.00  0.00     0.003 A 
HETATM   30  C16 UNK     1      29.479  -8.974  28.799  1.00  0.00     0.037 A 
ENDBRANCH  23  24
ENDBRANCH  22  23
ENDBRANCH  21  22
ENDBRANCH  20  21
ENDBRANCH  14  20
ENDBRANCH   2  11
TORSDOF 9
ENDMDL
MODEL 9
REMARK VINA RESULT:      -8.2     14.762     16.825
REMARK  9 active torsions:
REMARK  status: ('A' for Active; 'I' for Inactive)
REMARK    1  A    between atoms: C1_5  and  O1_1 
REMARK    2  A    between atoms: C5_9  and  O1_1 
REMARK    3  A    between atoms: C15_19  and  O2_2 
REMARK    4  A    between atoms: C2_6  and  O2_2 
REMARK    5  A    between atoms: C10_14  and  O3_3 
REMARK    6  A    between atoms: C8_12  and  O3_3 
REMARK    7  A    between atoms: C3_7  and  C9_13 
REMARK    8  A    between atoms: C5_9  and  C8_12 
REMARK    9  A    between atoms: C11_15  and  C13_17 
ROOT
HETATM    1  N1  UNK     1      35.298  -5.553  36.444  1.00  0.00    -0.191 NA
HETATM    2  C9  UNK     1      32.535  -6.054  34.443  1.00  0.00     0.035 C 
HETATM    3  C11 UNK     1      32.803  -5.700  35.728  1.00  0.00     0.055 C 
HETATM    4  C26 UNK     1      34.186  -5.621  36.115  1.00  0.00     0.100 C 
ENDROOT
BRANCH   3   5
HETATM    5  C13 UNK     1      31.777  -5.394  36.713  1.00  0.00    -0.015 A 
HETATM    6  C19 UNK     1      31.292  -6.400  37.549  1.00  0.00     0.013 A 
HETATM    7  C23 UNK     1      30.309  -6.108  38.495  1.00  0.00     0.001 A 
HETATM    8  C25 UNK     1      29.811  -4.809  38.604  1.00  0.00     0.000 A 
HETATM    9  C24 UNK     1      30.295  -3.804  37.768  1.00  0.00     0.001 A 
HETATM   10  C20 UNK     1      31.279  -4.096  36.823  1.00  0.00     0.013 A 
ENDBRANCH   3   5
BRANCH   2  11
HETATM   11  C3  UNK     1      31.195  -6.212  33.858  1.00  0.00    -0.032 A 
HETATM   12  C4  UNK     1      30.388  -7.284  34.243  1.00  0.00     0.051 A 
HETATM   13  C2  UNK     1      29.117  -7.433  33.687  1.00  0.00     0.102 A 
HETATM   14  C1  UNK     1      28.653  -6.512  32.749  1.00  0.00     0.102 A 
HETATM   15  C6  UNK     1      29.460  -5.441  32.365  1.00  0.00     0.040 A 
HETATM   16  C7  UNK     1      30.730  -5.291  32.919  1.00  0.00     0.014 A 
BRANCH  13  17
HETATM   17  O2  UNK     1      28.339  -8.483  34.070  1.00  0.00    -0.349 OA
BRANCH  17  18
HETATM   18  C15 UNK     1      29.011  -9.670  34.488  1.00  0.00     0.171 C 
HETATM   19  C22 UNK     1      29.129 -10.612  33.309  1.00  0.00     0.034 C 
ENDBRANCH  17  18
ENDBRANCH  13  17
BRANCH  14  20
HETATM   20  O1  UNK     1      27.413  -6.647  32.201  1.00  0.00    -0.346 OA
BRANCH  20  21
HETATM   21  C5  UNK     1      27.345  -6.819  30.786  1.00  0.00     0.202 C 
BRANCH  21  22
HETATM   22  C8  UNK     1      27.805  -8.220  30.435  1.00  0.00     0.202 C 
BRANCH  22  23
HETATM   23  O3  UNK     1      28.752  -8.145  29.376  1.00  0.00    -0.349 OA
BRANCH  23  24
HETATM   24  C10 UNK     1      30.060  -7.940  29.730  1.00  0.00     0.069 A 
HETATM   25  C14 UNK     1      30.657  -8.754  30.693  1.00  0.00     0.043 A 
HETATM   26  C12 UNK     1      31.989  -8.546  31.053  1.00  0.00    -0.059 A 
HETATM   27  C17 UNK     1      32.723  -7.525  30.450  1.00  0.00     0.007 A 
HETATM   28  C21 UNK     1      32.629  -9.418  32.080  1.00  0.00     0.048 C 
HETATM   29  C18 UNK     1      32.125  -6.710  29.488  1.00  0.00     0.003 A 
HETATM   30  C16 UNK     1      30.794  -6.919  29.128  1.00  0.00     0.037 A 
ENDBRANCH  23  24
ENDBRANCH  22  23
ENDBRANCH  21  22
ENDBRANCH  20  21
ENDBRANCH  14  20
ENDBRANCH   2  11
TORSDOF 9
ENDMDL
MODEL 10
REMARK VINA RESULT:      -8.1     14.660     17.560
REMARK  9 active torsions:
REMARK  status: ('A' for Active; 'I' for Inactive)
REMARK    1  A    between atoms: C1_5  and  O1_1 
REMARK    2  A    between atoms: C5_9  and  O1_1 
REMARK    3  A    between atoms: C15_19  and  O2_2 
REMARK    4  A    between atoms: C2_6  and  O2_2 
REMARK    5  A    between atoms: C10_14  and  O3_3 
REMARK    6  A    between atoms: C8_12  and  O3_3 
REMARK    7  A    between atoms: C3_7  and  C9_13 
REMARK    8  A    between atoms: C5_9  and  C8_12 
REMARK    9  A    between atoms: C11_15  and  C13_17 
ROOT
HETATM    1  N1  UNK     1      29.967  -4.040  37.630  1.00  0.00    -0.191 NA
HETATM    2  C9  UNK     1      30.296  -6.177  34.944  1.00  0.00     0.035 C 
HETATM    3  C11 UNK     1      30.260  -6.255  36.301  1.00  0.00     0.055 C 
HETATM    4  C26 UNK     1      30.098  -5.024  37.028  1.00  0.00     0.100 C 
ENDROOT
BRANCH   3   5
HETATM    5  C13 UNK     1      30.370  -7.502  37.043  1.00  0.00    -0.015 A 
HETATM    6  C19 UNK     1      31.624  -8.069  37.272  1.00  0.00     0.013 A 
HETATM    7  C23 UNK     1      31.730  -9.264  37.984  1.00  0.00     0.001 A 
HETATM    8  C25 UNK     1      30.581  -9.893  38.465  1.00  0.00     0.000 A 
HETATM    9  C24 UNK     1      29.328  -9.326  38.235  1.00  0.00     0.001 A 
HETATM   10  C20 UNK     1      29.222  -8.131  37.524  1.00  0.00     0.013 A 
ENDBRANCH   3   5
BRANCH   2  11
HETATM   11  C3  UNK     1      30.476  -7.310  34.024  1.00  0.00    -0.032 A 
HETATM   12  C4  UNK     1      31.687  -7.478  33.353  1.00  0.00     0.051 A 
HETATM   13  C2  UNK     1      31.857  -8.553  32.480  1.00  0.00     0.102 A 
HETATM   14  C1  UNK     1      30.816  -9.460  32.278  1.00  0.00     0.102 A 
HETATM   15  C6  UNK     1      29.605  -9.291  32.950  1.00  0.00     0.040 A 
HETATM   16  C7  UNK     1      29.435  -8.217  33.822  1.00  0.00     0.014 A 
BRANCH  13  17
HETATM   17  O2  UNK     1      33.044  -8.706  31.830  1.00  0.00    -0.349 OA
BRANCH  17  18
HETATM   18  C15 UNK     1      33.681  -7.521  31.355  1.00  0.00     0.171 C 
HETATM   19  C22 UNK     1      33.499  -7.431  29.855  1.00  0.00     0.034 C 
ENDBRANCH  17  18
ENDBRANCH  13  17
BRANCH  14  20
HETATM   20  O1  UNK     1      30.972 -10.514  31.429  1.00  0.00    -0.346 OA
BRANCH  20  21
HETATM   21  C5  UNK     1      30.066 -10.599  30.331  1.00  0.00     0.202 C 
BRANCH  21  22
HETATM   22  C8  UNK     1      30.545  -9.684  29.221  1.00  0.00     0.202 C 
BRANCH  22  23
HETATM   23  O3  UNK     1      29.439  -8.943  28.721  1.00  0.00    -0.349 OA
BRANCH  23  24
HETATM   24  C10 UNK     1      28.879  -8.022  29.567  1.00  0.00     0.069 A 
HETATM   25  C14 UNK     1      29.621  -6.915  29.981  1.00  0.00     0.043 A 
HETATM   26  C12 UNK     1      29.051  -5.976  30.842  1.00  0.00    -0.059 A 
HETATM   27  C17 UNK     1      27.740  -6.144  31.287  1.00  0.00     0.007 A 
HETATM   28  C21 UNK     1      29.842  -4.791  31.283  1.00  0.00     0.048 C 
HETATM   29  C18 UNK     1      26.999  -7.251  30.874  1.00  0.00     0.003 A 
HETATM   30  C16 UNK     1      27.568  -8.189  30.013  1.00  0.00     0.037 A 
ENDBRANCH  23  24
ENDBRANCH  22  23
ENDBRANCH  21  22
ENDBRANCH  20  21
ENDBRANCH  14  20
ENDBRANCH   2  11
TORSDOF 9
ENDMDL
