MODEL 1
REMARK VINA RESULT:      -9.6      0.000      0.000
REMARK  1 active torsions:
REMARK  status: ('A' for Active; 'I' for Inactive)
REMARK    1  A    between atoms: C7_11  and  C8_12 
ROOT
HETATM    1  O3  UNK     1      22.424  -5.007  38.186  1.00  0.00    -0.287 OA
HETATM    2  C1  UNK     1      19.183  -5.418  36.476  1.00  0.00     0.047 C 
HETATM    3  C2  UNK     1      18.550  -6.342  37.509  1.00  0.00     0.044 C 
HETATM    4  C3  UNK     1      20.341  -4.674  37.068  1.00  0.00    -0.006 C 
HETATM    5  C4  UNK     1      19.582  -7.243  38.133  1.00  0.00    -0.044 A 
HETATM    6  C5  UNK     1      20.905  -6.809  38.316  1.00  0.00     0.021 A 
HETATM    7  C6  UNK     1      21.323  -5.449  37.883  1.00  0.00     0.189 C 
HETATM    8  C7  UNK     1      20.539  -3.360  36.905  1.00  0.00     0.025 C 
HETATM    9  C11 UNK     1      19.213  -8.515  38.590  1.00  0.00     0.008 A 
HETATM   10  C12 UNK     1      21.843  -7.646  38.932  1.00  0.00     0.016 A 
HETATM   11  C16 UNK     1      20.151  -9.349  39.199  1.00  0.00     0.001 A 
HETATM   12  C18 UNK     1      21.464  -8.915  39.367  1.00  0.00     0.001 A 
ENDROOT
BRANCH   8  13
HETATM   13  C8  UNK     1      19.675  -2.451  36.135  1.00  0.00     0.000 A 
HETATM   14  C14 UNK     1      18.648  -1.783  36.800  1.00  0.00     0.038 A 
HETATM   15  C17 UNK     1      17.808  -0.918  36.100  1.00  0.00     0.035 A 
HETATM   16  C15 UNK     1      17.997  -0.712  34.733  1.00  0.00     0.036 A 
HETATM   17 Cl1  UNK     1      16.536  -0.101  36.923  1.00  0.00    -0.084 Cl
HETATM   18  C10 UNK     1      19.033  -1.368  34.060  1.00  0.00     0.002 A 
HETATM   19  C9  UNK     1      19.859  -2.252  34.765  1.00  0.00     0.090 A 
HETATM   20  C13 UNK     1      19.246  -1.164  32.591  1.00  0.00     0.212 C 
HETATM   21  O1  UNK     1      20.886  -2.937  34.168  1.00  0.00    -0.325 OA
HETATM   22  C19 UNK     1      20.858  -2.854  32.739  1.00  0.00     0.345 C 
HETATM   23  O2  UNK     1      20.571  -1.554  32.232  1.00  0.00    -0.362 OA
ENDBRANCH   8  13
TORSDOF 1
ENDMDL
MODEL 2
REMARK VINA RESULT:      -9.3      2.086      2.808
REMARK  1 active torsions:
REMARK  status: ('A' for Active; 'I' for Inactive)
REMARK    1  A    between atoms: C7_11  and  C8_12 
ROOT
HETATM    1  O3  UNK     1      22.354  -4.949  38.209  1.00  0.00    -0.287 OA
HETATM    2  C1  UNK     1      19.379  -5.465  36.092  1.00  0.00     0.047 C 
HETATM    3  C2  UNK     1      18.594  -6.310  37.087  1.00  0.00     0.044 C 
HETATM    4  C3  UNK     1      20.454  -4.687  36.788  1.00  0.00    -0.006 C 
HETATM    5  C4  UNK     1      19.515  -7.170  37.912  1.00  0.00    -0.044 A 
HETATM    6  C5  UNK     1      20.805  -6.730  38.249  1.00  0.00     0.021 A 
HETATM    7  C6  UNK     1      21.300  -5.407  37.785  1.00  0.00     0.189 C 
HETATM    8  C7  UNK     1      20.692  -3.388  36.563  1.00  0.00     0.025 C 
HETATM    9  C11 UNK     1      19.066  -8.405  38.399  1.00  0.00     0.008 A 
HETATM   10  C12 UNK     1      21.635  -7.526  39.047  1.00  0.00     0.016 A 
HETATM   11  C16 UNK     1      19.897  -9.198  39.191  1.00  0.00     0.001 A 
HETATM   12  C18 UNK     1      21.180  -8.759  39.512  1.00  0.00     0.001 A 
ENDROOT
BRANCH   8  13
HETATM   13  C8  UNK     1      19.959  -2.532  35.618  1.00  0.00     0.000 A 
HETATM   14  C14 UNK     1      20.292  -2.591  34.266  1.00  0.00     0.038 A 
HETATM   15  C17 UNK     1      19.620  -1.790  33.344  1.00  0.00     0.035 A 
HETATM   16  C15 UNK     1      18.607  -0.931  33.770  1.00  0.00     0.036 A 
HETATM   17 Cl1  UNK     1      20.040  -1.861  31.676  1.00  0.00    -0.084 Cl
HETATM   18  C10 UNK     1      18.257  -0.874  35.122  1.00  0.00     0.002 A 
HETATM   19  C9  UNK     1      18.951  -1.666  36.046  1.00  0.00     0.090 A 
HETATM   20  C13 UNK     1      17.175   0.047  35.599  1.00  0.00     0.212 C 
HETATM   21  O1  UNK     1      18.669  -1.653  37.388  1.00  0.00    -0.325 OA
HETATM   22  C19 UNK     1      17.795  -0.583  37.766  1.00  0.00     0.345 C 
HETATM   23  O2  UNK     1      16.701  -0.376  36.876  1.00  0.00    -0.362 OA
ENDBRANCH   8  13
TORSDOF 1
ENDMDL
MODEL 3
REMARK VINA RESULT:      -8.7      8.508     11.606
REMARK  1 active torsions:
REMARK  status: ('A' for Active; 'I' for Inactive)
REMARK    1  A    between atoms: C7_11  and  C8_12 
ROOT
HETATM    1  O3  UNK     1      18.123   2.728  33.896  1.00  0.00    -0.287 OA
HETATM    2  C1  UNK     1      19.102   5.385  31.533  1.00  0.00     0.047 C 
HETATM    3  C2  UNK     1      18.566   4.713  30.275  1.00  0.00     0.044 C 
HETATM    4  C3  UNK     1      18.470   4.798  32.758  1.00  0.00    -0.006 C 
HETATM    5  C4  UNK     1      18.704   3.216  30.360  1.00  0.00    -0.044 A 
HETATM    6  C5  UNK     1      18.604   2.550  31.592  1.00  0.00     0.021 A 
HETATM    7  C6  UNK     1      18.374   3.311  32.848  1.00  0.00     0.189 C 
HETATM    8  C7  UNK     1      17.990   5.534  33.769  1.00  0.00     0.025 C 
HETATM    9  C11 UNK     1      18.880   2.464  29.190  1.00  0.00     0.008 A 
HETATM   10  C12 UNK     1      18.698   1.155  31.648  1.00  0.00     0.016 A 
HETATM   11  C16 UNK     1      18.979   1.074  29.250  1.00  0.00     0.001 A 
HETATM   12  C18 UNK     1      18.889   0.421  30.478  1.00  0.00     0.001 A 
ENDROOT
BRANCH   8  13
HETATM   13  C8  UNK     1      18.005   7.004  33.843  1.00  0.00     0.000 A 
HETATM   14  C14 UNK     1      19.208   7.645  34.135  1.00  0.00     0.038 A 
HETATM   15  C17 UNK     1      19.257   9.036  34.217  1.00  0.00     0.035 A 
HETATM   16  C15 UNK     1      18.103   9.791  34.002  1.00  0.00     0.036 A 
HETATM   17 Cl1  UNK     1      20.742   9.825  34.586  1.00  0.00    -0.084 Cl
HETATM   18  C10 UNK     1      16.895   9.157  33.696  1.00  0.00     0.002 A 
HETATM   19  C9  UNK     1      16.849   7.759  33.636  1.00  0.00     0.090 A 
HETATM   20  C13 UNK     1      15.645   9.952  33.467  1.00  0.00     0.212 C 
HETATM   21  O1  UNK     1      15.697   7.069  33.353  1.00  0.00    -0.325 OA
HETATM   22  C19 UNK     1      14.529   7.896  33.383  1.00  0.00     0.345 C 
HETATM   23  O2  UNK     1      14.690   9.166  32.755  1.00  0.00    -0.362 OA
ENDBRANCH   8  13
TORSDOF 1
ENDMDL
MODEL 4
REMARK VINA RESULT:      -8.4      6.790     11.750
REMARK  1 active torsions:
REMARK  status: ('A' for Active; 'I' for Inactive)
REMARK    1  A    between atoms: C7_11  and  C8_12 
ROOT
HETATM    1  O3  UNK     1      16.252   6.685  32.361  1.00  0.00    -0.287 OA
HETATM    2  C1  UNK     1      19.690   5.356  32.492  1.00  0.00     0.047 C 
HETATM    3  C2  UNK     1      20.150   6.164  33.699  1.00  0.00     0.044 C 
HETATM    4  C3  UNK     1      18.194   5.297  32.431  1.00  0.00    -0.006 C 
HETATM    5  C4  UNK     1      19.497   7.521  33.722  1.00  0.00    -0.044 A 
HETATM    6  C5  UNK     1      18.197   7.707  33.223  1.00  0.00     0.021 A 
HETATM    7  C6  UNK     1      17.438   6.567  32.645  1.00  0.00     0.189 C 
HETATM    8  C7  UNK     1      17.505   4.172  32.197  1.00  0.00     0.025 C 
HETATM    9  C11 UNK     1      20.169   8.609  34.296  1.00  0.00     0.008 A 
HETATM   10  C12 UNK     1      17.592   8.967  33.285  1.00  0.00     0.016 A 
HETATM   11  C16 UNK     1      19.565   9.865  34.352  1.00  0.00     0.001 A 
HETATM   12  C18 UNK     1      18.279  10.043  33.846  1.00  0.00     0.001 A 
ENDROOT
BRANCH   8  13
HETATM   13  C8  UNK     1      18.089   2.842  31.964  1.00  0.00     0.000 A 
HETATM   14  C14 UNK     1      18.532   2.522  30.682  1.00  0.00     0.038 A 
HETATM   15  C17 UNK     1      19.085   1.269  30.426  1.00  0.00     0.035 A 
HETATM   16  C15 UNK     1      19.204   0.332  31.454  1.00  0.00     0.036 A 
HETATM   17 Cl1  UNK     1      19.625   0.874  28.839  1.00  0.00    -0.084 Cl
HETATM   18  C10 UNK     1      18.774   0.649  32.745  1.00  0.00     0.002 A 
HETATM   19  C9  UNK     1      18.199   1.902  32.991  1.00  0.00     0.090 A 
HETATM   20  C13 UNK     1      18.887  -0.347  33.859  1.00  0.00     0.212 C 
HETATM   21  O1  UNK     1      17.745   2.276  34.230  1.00  0.00    -0.325 OA
HETATM   22  C19 UNK     1      17.684   1.186  35.156  1.00  0.00     0.345 C 
HETATM   23  O2  UNK     1      18.815   0.320  35.119  1.00  0.00    -0.362 OA
ENDBRANCH   8  13
TORSDOF 1
ENDMDL
MODEL 5
REMARK VINA RESULT:      -8.0      2.837      7.084
REMARK  1 active torsions:
REMARK  status: ('A' for Active; 'I' for Inactive)
REMARK    1  A    between atoms: C7_11  and  C8_12 
ROOT
HETATM    1  O3  UNK     1      19.900  -1.690  34.244  1.00  0.00    -0.287 OA
HETATM    2  C1  UNK     1      19.501  -2.511  37.817  1.00  0.00     0.047 C 
HETATM    3  C2  UNK     1      18.184  -1.774  38.026  1.00  0.00     0.044 C 
HETATM    4  C3  UNK     1      19.734  -2.780  36.362  1.00  0.00    -0.006 C 
HETATM    5  C4  UNK     1      18.116  -0.536  37.171  1.00  0.00    -0.044 A 
HETATM    6  C5  UNK     1      18.740  -0.490  35.914  1.00  0.00     0.021 A 
HETATM    7  C6  UNK     1      19.496  -1.662  35.401  1.00  0.00     0.189 C 
HETATM    8  C7  UNK     1      20.142  -3.963  35.883  1.00  0.00     0.025 C 
HETATM    9  C11 UNK     1      17.378   0.573  37.606  1.00  0.00     0.008 A 
HETATM   10  C12 UNK     1      18.636   0.655  35.116  1.00  0.00     0.016 A 
HETATM   11  C16 UNK     1      17.280   1.715  36.812  1.00  0.00     0.001 A 
HETATM   12  C18 UNK     1      17.910   1.756  35.570  1.00  0.00     0.001 A 
ENDROOT
BRANCH   8  13
HETATM   13  C8  UNK     1      20.423  -5.163  36.685  1.00  0.00     0.000 A 
HETATM   14  C14 UNK     1      21.463  -5.119  37.612  1.00  0.00     0.038 A 
HETATM   15  C17 UNK     1      21.759  -6.240  38.385  1.00  0.00     0.035 A 
HETATM   16  C15 UNK     1      21.011  -7.409  38.240  1.00  0.00     0.036 A 
HETATM   17 Cl1  UNK     1      23.050  -6.184  39.523  1.00  0.00    -0.084 Cl
HETATM   18  C10 UNK     1      19.957  -7.458  37.323  1.00  0.00     0.002 A 
HETATM   19  C9  UNK     1      19.679  -6.335  36.533  1.00  0.00     0.090 A 
HETATM   20  C13 UNK     1      19.147  -8.707  37.149  1.00  0.00     0.212 C 
HETATM   21  O1  UNK     1      18.668  -6.316  35.606  1.00  0.00    -0.325 OA
HETATM   22  C19 UNK     1      18.116  -7.613  35.355  1.00  0.00     0.345 C 
HETATM   23  O2  UNK     1      17.901  -8.397  36.525  1.00  0.00    -0.362 OA
ENDBRANCH   8  13
TORSDOF 1
ENDMDL
MODEL 6
REMARK VINA RESULT:      -8.0      9.162     11.581
REMARK  1 active torsions:
REMARK  status: ('A' for Active; 'I' for Inactive)
REMARK    1  A    between atoms: C7_11  and  C8_12 
ROOT
HETATM    1  O3  UNK     1      27.166  -6.675  31.895  1.00  0.00    -0.287 OA
HETATM    2  C1  UNK     1      29.289  -8.929  33.897  1.00  0.00     0.047 C 
HETATM    3  C2  UNK     1      30.239  -9.327  32.774  1.00  0.00     0.044 C 
HETATM    4  C3  UNK     1      28.567  -7.661  33.557  1.00  0.00    -0.006 C 
HETATM    5  C4  UNK     1      29.519  -9.385  31.452  1.00  0.00    -0.044 A 
HETATM    6  C5  UNK     1      28.447  -8.522  31.174  1.00  0.00     0.021 A 
HETATM    7  C6  UNK     1      27.986  -7.537  32.187  1.00  0.00     0.189 C 
HETATM    8  C7  UNK     1      28.418  -6.641  34.412  1.00  0.00     0.025 C 
HETATM    9  C11 UNK     1      29.953 -10.274  30.460  1.00  0.00     0.008 A 
HETATM   10  C12 UNK     1      27.813  -8.564  29.927  1.00  0.00     0.016 A 
HETATM   11  C16 UNK     1      29.316 -10.318  29.219  1.00  0.00     0.001 A 
HETATM   12  C18 UNK     1      28.247  -9.465  28.955  1.00  0.00     0.001 A 
ENDROOT
BRANCH   8  13
HETATM   13  C8  UNK     1      28.924  -6.598  35.793  1.00  0.00     0.000 A 
HETATM   14  C14 UNK     1      30.160  -6.001  36.034  1.00  0.00     0.038 A 
HETATM   15  C17 UNK     1      30.671  -5.947  37.329  1.00  0.00     0.035 A 
HETATM   16  C15 UNK     1      29.943  -6.485  38.392  1.00  0.00     0.036 A 
HETATM   17 Cl1  UNK     1      32.201  -5.216  37.621  1.00  0.00    -0.084 Cl
HETATM   18  C10 UNK     1      28.697  -7.075  38.162  1.00  0.00     0.002 A 
HETATM   19  C9  UNK     1      28.199  -7.145  36.855  1.00  0.00     0.090 A 
HETATM   20  C13 UNK     1      27.905  -7.663  39.290  1.00  0.00     0.212 C 
HETATM   21  O1  UNK     1      26.990  -7.719  36.554  1.00  0.00    -0.325 OA
HETATM   22  C19 UNK     1      26.430  -8.449  37.651  1.00  0.00     0.345 C 
HETATM   23  O2  UNK     1      26.535  -7.790  38.910  1.00  0.00    -0.362 OA
ENDBRANCH   8  13
TORSDOF 1
ENDMDL
MODEL 7
REMARK VINA RESULT:      -7.9      9.614     11.754
REMARK  1 active torsions:
REMARK  status: ('A' for Active; 'I' for Inactive)
REMARK    1  A    between atoms: C7_11  and  C8_12 
ROOT
HETATM    1  O3  UNK     1      27.189  -6.639  31.895  1.00  0.00    -0.287 OA
HETATM    2  C1  UNK     1      29.199  -9.001  33.890  1.00  0.00     0.047 C 
HETATM    3  C2  UNK     1      30.149  -9.418  32.774  1.00  0.00     0.044 C 
HETATM    4  C3  UNK     1      28.530  -7.702  33.560  1.00  0.00    -0.006 C 
HETATM    5  C4  UNK     1      29.446  -9.429  31.442  1.00  0.00    -0.044 A 
HETATM    6  C5  UNK     1      28.411  -8.522  31.163  1.00  0.00     0.021 A 
HETATM    7  C6  UNK     1      27.973  -7.536  32.185  1.00  0.00     0.189 C 
HETATM    8  C7  UNK     1      28.407  -6.691  34.429  1.00  0.00     0.025 C 
HETATM    9  C11 UNK     1      29.861 -10.319  30.442  1.00  0.00     0.008 A 
HETATM   10  C12 UNK     1      27.793  -8.522  29.907  1.00  0.00     0.016 A 
HETATM   11  C16 UNK     1      29.240 -10.319  29.192  1.00  0.00     0.001 A 
HETATM   12  C18 UNK     1      28.206  -9.424  28.927  1.00  0.00     0.001 A 
ENDROOT
BRANCH   8  13
HETATM   13  C8  UNK     1      28.894  -6.688  35.818  1.00  0.00     0.000 A 
HETATM   14  C14 UNK     1      28.096  -7.258  36.807  1.00  0.00     0.038 A 
HETATM   15  C17 UNK     1      28.525  -7.268  38.133  1.00  0.00     0.035 A 
HETATM   16  C15 UNK     1      29.760  -6.713  38.474  1.00  0.00     0.036 A 
HETATM   17 Cl1  UNK     1      27.532  -7.965  39.354  1.00  0.00    -0.084 Cl
HETATM   18  C10 UNK     1      30.573  -6.151  37.486  1.00  0.00     0.002 A 
HETATM   19  C9  UNK     1      30.126  -6.125  36.159  1.00  0.00     0.090 A 
HETATM   20  C13 UNK     1      31.899  -5.545  37.834  1.00  0.00     0.212 C 
HETATM   21  O1  UNK     1      30.866  -5.580  35.141  1.00  0.00    -0.325 OA
HETATM   22  C19 UNK     1      31.992  -4.829  35.608  1.00  0.00     0.345 C 
HETATM   23  O2  UNK     1      32.715  -5.452  36.667  1.00  0.00    -0.362 OA
ENDBRANCH   8  13
TORSDOF 1
ENDMDL
MODEL 8
REMARK VINA RESULT:      -7.9      9.507     11.906
REMARK  1 active torsions:
REMARK  status: ('A' for Active; 'I' for Inactive)
REMARK    1  A    between atoms: C7_11  and  C8_12 
ROOT
HETATM    1  O3  UNK     1      29.389  -9.802  33.695  1.00  0.00    -0.287 OA
HETATM    2  C1  UNK     1      29.895  -6.151  33.795  1.00  0.00     0.047 C 
HETATM    3  C2  UNK     1      28.608  -5.771  33.073  1.00  0.00     0.044 C 
HETATM    4  C3  UNK     1      29.805  -7.542  34.343  1.00  0.00    -0.006 C 
HETATM    5  C4  UNK     1      28.247  -6.800  32.034  1.00  0.00    -0.044 A 
HETATM    6  C5  UNK     1      28.557  -8.157  32.223  1.00  0.00     0.021 A 
HETATM    7  C6  UNK     1      29.264  -8.609  33.449  1.00  0.00     0.189 C 
HETATM    8  C7  UNK     1      30.182  -7.876  35.584  1.00  0.00     0.025 C 
HETATM    9  C11 UNK     1      27.544  -6.414  30.885  1.00  0.00     0.008 A 
HETATM   10  C12 UNK     1      28.181  -9.105  31.264  1.00  0.00     0.016 A 
HETATM   11  C16 UNK     1      27.176  -7.360  29.929  1.00  0.00     0.001 A 
HETATM   12  C18 UNK     1      27.495  -8.703  30.118  1.00  0.00     0.001 A 
ENDROOT
BRANCH   8  13
HETATM   13  C8  UNK     1      30.735  -6.955  36.590  1.00  0.00     0.000 A 
HETATM   14  C14 UNK     1      32.119  -6.832  36.693  1.00  0.00     0.038 A 
HETATM   15  C17 UNK     1      32.677  -5.973  37.638  1.00  0.00     0.035 A 
HETATM   16  C15 UNK     1      31.851  -5.226  38.480  1.00  0.00     0.036 A 
HETATM   17 Cl1  UNK     1      34.388  -5.830  37.768  1.00  0.00    -0.084 Cl
HETATM   18  C10 UNK     1      30.461  -5.333  38.374  1.00  0.00     0.002 A 
HETATM   19  C9  UNK     1      29.908  -6.215  37.438  1.00  0.00     0.090 A 
HETATM   20  C13 UNK     1      29.559  -4.544  39.274  1.00  0.00     0.212 C 
HETATM   21  O1  UNK     1      28.554  -6.379  37.287  1.00  0.00    -0.325 OA
HETATM   22  C19 UNK     1      27.797  -5.767  38.337  1.00  0.00     0.345 C 
HETATM   23  O2  UNK     1      28.250  -4.468  38.708  1.00  0.00    -0.362 OA
ENDBRANCH   8  13
TORSDOF 1
ENDMDL
MODEL 9
REMARK VINA RESULT:      -7.9     28.711     30.919
REMARK  1 active torsions:
REMARK  status: ('A' for Active; 'I' for Inactive)
REMARK    1  A    between atoms: C7_11  and  C8_12 
ROOT
HETATM    1  O3  UNK     1      14.807   5.050  10.467  1.00  0.00    -0.287 OA
HETATM    2  C1  UNK     1      12.573   7.846   9.578  1.00  0.00     0.047 C 
HETATM    3  C2  UNK     1      13.603   8.661   8.806  1.00  0.00     0.044 C 
HETATM    4  C3  UNK     1      13.008   6.417   9.697  1.00  0.00    -0.006 C 
HETATM    5  C4  UNK     1      14.976   8.502   9.403  1.00  0.00    -0.044 A 
HETATM    6  C5  UNK     1      15.366   7.297  10.010  1.00  0.00     0.021 A 
HETATM    7  C6  UNK     1      14.424   6.150  10.090  1.00  0.00     0.189 C 
HETATM    8  C7  UNK     1      12.198   5.375   9.469  1.00  0.00     0.025 C 
HETATM    9  C11 UNK     1      15.904   9.549   9.308  1.00  0.00     0.008 A 
HETATM   10  C12 UNK     1      16.659   7.154  10.527  1.00  0.00     0.016 A 
HETATM   11  C16 UNK     1      17.190   9.405   9.829  1.00  0.00     0.001 A 
HETATM   12  C18 UNK     1      17.565   8.210  10.439  1.00  0.00     0.001 A 
ENDROOT
BRANCH   8  13
HETATM   13  C8  UNK     1      10.782   5.457   9.077  1.00  0.00     0.000 A 
HETATM   14  C14 UNK     1       9.808   5.141  10.023  1.00  0.00     0.038 A 
HETATM   15  C17 UNK     1       8.458   5.204   9.684  1.00  0.00     0.035 A 
HETATM   16  C15 UNK     1       8.076   5.592   8.398  1.00  0.00     0.036 A 
HETATM   17 Cl1  UNK     1       7.257   4.805  10.851  1.00  0.00    -0.084 Cl
HETATM   18  C10 UNK     1       9.046   5.923   7.448  1.00  0.00     0.002 A 
HETATM   19  C9  UNK     1      10.401   5.836   7.789  1.00  0.00     0.090 A 
HETATM   20  C13 UNK     1       8.654   6.334   6.061  1.00  0.00     0.212 C 
HETATM   21  O1  UNK     1      11.406   6.135   6.904  1.00  0.00    -0.325 OA
HETATM   22  C19 UNK     1      10.940   6.287   5.559  1.00  0.00     0.345 C 
HETATM   23  O2  UNK     1       9.731   7.032   5.436  1.00  0.00    -0.362 OA
ENDBRANCH   8  13
TORSDOF 1
ENDMDL
MODEL 10
REMARK VINA RESULT:      -7.8     11.109     13.255
REMARK  1 active torsions:
REMARK  status: ('A' for Active; 'I' for Inactive)
REMARK    1  A    between atoms: C7_11  and  C8_12 
ROOT
HETATM    1  O3  UNK     1      29.680  -4.386  31.925  1.00  0.00    -0.287 OA
HETATM    2  C1  UNK     1      30.425  -7.389  33.931  1.00  0.00     0.047 C 
HETATM    3  C2  UNK     1      30.214  -8.407  32.818  1.00  0.00     0.044 C 
HETATM    4  C3  UNK     1      30.656  -6.021  33.364  1.00  0.00    -0.006 C 
HETATM    5  C4  UNK     1      29.128  -7.960  31.875  1.00  0.00    -0.044 A 
HETATM    6  C5  UNK     1      28.915  -6.597  31.612  1.00  0.00     0.021 A 
HETATM    7  C6  UNK     1      29.750  -5.559  32.272  1.00  0.00     0.189 C 
HETATM    8  C7  UNK     1      31.627  -5.200  33.783  1.00  0.00     0.025 C 
HETATM    9  C11 UNK     1      28.349  -8.913  31.205  1.00  0.00     0.008 A 
HETATM   10  C12 UNK     1      27.925  -6.200  30.705  1.00  0.00     0.016 A 
HETATM   11  C16 UNK     1      27.360  -8.515  30.306  1.00  0.00     0.001 A 
HETATM   12  C18 UNK     1      27.148  -7.160  30.058  1.00  0.00     0.001 A 
ENDROOT
BRANCH   8  13
HETATM   13  C8  UNK     1      32.603  -5.495  34.845  1.00  0.00     0.000 A 
HETATM   14  C14 UNK     1      33.873  -5.938  34.480  1.00  0.00     0.038 A 
HETATM   15  C17 UNK     1      34.820  -6.231  35.461  1.00  0.00     0.035 A 
HETATM   16  C15 UNK     1      34.501  -6.075  36.811  1.00  0.00     0.036 A 
HETATM   17 Cl1  UNK     1      36.385  -6.786  35.007  1.00  0.00    -0.084 Cl
HETATM   18  C10 UNK     1      33.234  -5.619  37.185  1.00  0.00     0.002 A 
HETATM   19  C9  UNK     1      32.281  -5.347  36.195  1.00  0.00     0.090 A 
HETATM   20  C13 UNK     1      32.872  -5.451  38.629  1.00  0.00     0.212 C 
HETATM   21  O1  UNK     1      31.015  -4.908  36.490  1.00  0.00    -0.325 OA
HETATM   22  C19 UNK     1      30.699  -5.005  37.883  1.00  0.00     0.345 C 
HETATM   23  O2  UNK     1      31.746  -4.584  38.754  1.00  0.00    -0.362 OA
ENDBRANCH   8  13
TORSDOF 1
ENDMDL
