MODEL 1
REMARK VINA RESULT:      -9.1      0.000      0.000
REMARK  6 active torsions:
REMARK  status: ('A' for Active; 'I' for Inactive)
REMARK    1  A    between atoms: C2_7  and  O1_3 
REMARK    2  A    between atoms: C5_10  and  O1_3 
REMARK    3  A    between atoms: C3_8  and  O2_4 
REMARK    4  A    between atoms: C1_6  and  C9_14 
REMARK    5  A    between atoms: C5_10  and  C8_13 
REMARK    6  A    between atoms: C10_15  and  C11_16 
ROOT
HETATM    1  N1  UNK     1      21.975  -1.753  35.379  1.00  0.00    -0.191 NA
HETATM    2  C9  UNK     1      18.632  -2.388  35.934  1.00  0.00     0.036 C 
HETATM    3  C10 UNK     1      19.828  -2.997  36.154  1.00  0.00     0.055 C 
HETATM    4  C23 UNK     1      21.011  -2.301  35.721  1.00  0.00     0.100 C 
ENDROOT
BRANCH   3   5
HETATM    5  C11 UNK     1      19.971  -4.292  36.801  1.00  0.00    -0.014 A 
HETATM    6  C14 UNK     1      21.124  -4.586  37.529  1.00  0.00     0.032 A 
HETATM    7  C19 UNK     1      21.259  -5.828  38.148  1.00  0.00     0.011 A 
HETATM    8 Br2  UNK     1      22.821  -6.228  39.135  1.00  0.00    -0.051 Br
HETATM    9  C21 UNK     1      20.240  -6.775  38.042  1.00  0.00     0.019 A 
HETATM   10  C20 UNK     1      19.088  -6.481  37.315  1.00  0.00     0.002 A 
HETATM   11  C15 UNK     1      18.952  -5.239  36.695  1.00  0.00     0.013 A 
ENDBRANCH   3   5
BRANCH   2  12
HETATM   12  C1  UNK     1      18.441  -1.080  35.291  1.00  0.00    -0.015 A 
HETATM   13  C4  UNK     1      18.623  -1.019  33.914  1.00  0.00     0.052 A 
HETATM   14  C3  UNK     1      18.455   0.196  33.252  1.00  0.00     0.102 A 
HETATM   15  C2  UNK     1      18.107   1.341  33.969  1.00  0.00     0.103 A 
HETATM   16  C7  UNK     1      17.927   1.269  35.351  1.00  0.00     0.059 A 
HETATM   17  C6  UNK     1      18.095   0.054  36.014  1.00  0.00     0.024 A 
HETATM   18 Br1  UNK     1      17.834   0.026  37.896  1.00  0.00    -0.050 Br
BRANCH  14  19
HETATM   19  O2  UNK     1      18.633   0.254  31.902  1.00  0.00    -0.353 OA
HETATM   20  C22 UNK     1      19.709  -0.507  31.357  1.00  0.00     0.210 C 
ENDBRANCH  14  19
BRANCH  15  21
HETATM   21  O1  UNK     1      17.939   2.532  33.333  1.00  0.00    -0.344 OA
BRANCH  21  22
HETATM   22  C5  UNK     1      18.333   3.707  34.040  1.00  0.00     0.214 C 
BRANCH  22  23
HETATM   23  C8  UNK     1      18.177   4.897  33.138  1.00  0.00    -0.034 A 
HETATM   24  C12 UNK     1      18.676   4.848  31.841  1.00  0.00     0.009 A 
HETATM   25  C16 UNK     1      18.530   5.954  31.003  1.00  0.00     0.001 A 
HETATM   26  C18 UNK     1      17.889   7.102  31.469  1.00  0.00     0.000 A 
HETATM   27  C17 UNK     1      17.391   7.143  32.772  1.00  0.00     0.001 A 
HETATM   28  C13 UNK     1      17.537   6.037  33.609  1.00  0.00     0.009 A 
ENDBRANCH  22  23
ENDBRANCH  21  22
ENDBRANCH  15  21
ENDBRANCH   2  12
TORSDOF 6
ENDMDL
MODEL 2
REMARK VINA RESULT:      -8.8      6.143      8.261
REMARK  6 active torsions:
REMARK  status: ('A' for Active; 'I' for Inactive)
REMARK    1  A    between atoms: C2_7  and  O1_3 
REMARK    2  A    between atoms: C5_10  and  O1_3 
REMARK    3  A    between atoms: C3_8  and  O2_4 
REMARK    4  A    between atoms: C1_6  and  C9_14 
REMARK    5  A    between atoms: C5_10  and  C8_13 
REMARK    6  A    between atoms: C10_15  and  C11_16 
ROOT
HETATM    1  N1  UNK     1      17.943   2.641  33.851  1.00  0.00    -0.191 NA
HETATM    2  C9  UNK     1      18.413   4.572  31.034  1.00  0.00     0.036 C 
HETATM    3  C10 UNK     1      18.404   3.253  31.368  1.00  0.00     0.055 C 
HETATM    4  C23 UNK     1      18.148   2.924  32.745  1.00  0.00     0.100 C 
ENDROOT
BRANCH   3   5
HETATM    5  C11 UNK     1      18.628   2.176  30.416  1.00  0.00    -0.014 A 
HETATM    6  C14 UNK     1      19.412   1.079  30.775  1.00  0.00     0.032 A 
HETATM    7  C19 UNK     1      19.625   0.047  29.862  1.00  0.00     0.011 A 
HETATM    8 Br2  UNK     1      20.686  -1.441  30.347  1.00  0.00    -0.051 Br
HETATM    9  C21 UNK     1      19.055   0.111  28.590  1.00  0.00     0.019 A 
HETATM   10  C20 UNK     1      18.273   1.207  28.231  1.00  0.00     0.002 A 
HETATM   11  C15 UNK     1      18.058   2.240  29.145  1.00  0.00     0.013 A 
ENDBRANCH   3   5
BRANCH   2  12
HETATM   12  C1  UNK     1      18.186   5.691  31.959  1.00  0.00    -0.015 A 
HETATM   13  C4  UNK     1      16.867   5.980  32.291  1.00  0.00     0.052 A 
HETATM   14  C3  UNK     1      16.593   7.032  33.164  1.00  0.00     0.102 A 
HETATM   15  C2  UNK     1      17.637   7.787  33.698  1.00  0.00     0.103 A 
HETATM   16  C7  UNK     1      18.957   7.489  33.359  1.00  0.00     0.059 A 
HETATM   17  C6  UNK     1      19.232   6.437  32.485  1.00  0.00     0.024 A 
HETATM   18 Br1  UNK     1      21.052   6.085  32.064  1.00  0.00    -0.050 Br
BRANCH  14  19
HETATM   19  O2  UNK     1      15.299   7.313  33.489  1.00  0.00    -0.353 OA
HETATM   20  C22 UNK     1      14.360   7.369  32.418  1.00  0.00     0.210 C 
ENDBRANCH  14  19
BRANCH  15  21
HETATM   21  O1  UNK     1      17.381   8.815  34.553  1.00  0.00    -0.344 OA
BRANCH  21  22
HETATM   22  C5  UNK     1      17.481  10.137  34.027  1.00  0.00     0.214 C 
BRANCH  22  23
HETATM   23  C8  UNK     1      16.279  10.927  34.454  1.00  0.00    -0.034 A 
HETATM   24  C12 UNK     1      15.230  10.287  35.105  1.00  0.00     0.009 A 
HETATM   25  C16 UNK     1      14.113  11.023  35.502  1.00  0.00     0.001 A 
HETATM   26  C18 UNK     1      14.052  12.392  35.245  1.00  0.00     0.000 A 
HETATM   27  C17 UNK     1      15.109  13.028  34.592  1.00  0.00     0.001 A 
HETATM   28  C13 UNK     1      16.226  12.292  34.195  1.00  0.00     0.009 A 
ENDBRANCH  22  23
ENDBRANCH  21  22
ENDBRANCH  15  21
ENDBRANCH   2  12
TORSDOF 6
ENDMDL
MODEL 3
REMARK VINA RESULT:      -8.7     12.236     14.322
REMARK  6 active torsions:
REMARK  status: ('A' for Active; 'I' for Inactive)
REMARK    1  A    between atoms: C2_7  and  O1_3 
REMARK    2  A    between atoms: C5_10  and  O1_3 
REMARK    3  A    between atoms: C3_8  and  O2_4 
REMARK    4  A    between atoms: C1_6  and  C9_14 
REMARK    5  A    between atoms: C5_10  and  C8_13 
REMARK    6  A    between atoms: C10_15  and  C11_16 
ROOT
HETATM    1  N1  UNK     1      27.273 -10.364  39.775  1.00  0.00    -0.191 NA
HETATM    2  C9  UNK     1      27.456  -8.889  36.664  1.00  0.00     0.036 C 
HETATM    3  C10 UNK     1      26.639  -9.748  37.330  1.00  0.00     0.055 C 
HETATM    4  C23 UNK     1      26.998 -10.083  38.683  1.00  0.00     0.100 C 
ENDROOT
BRANCH   3   5
HETATM    5  C11 UNK     1      25.436 -10.331  36.757  1.00  0.00    -0.014 A 
HETATM    6  C14 UNK     1      24.277  -9.564  36.636  1.00  0.00     0.032 A 
HETATM    7  C19 UNK     1      23.125 -10.124  36.085  1.00  0.00     0.011 A 
HETATM    8 Br2  UNK     1      21.555  -9.085  35.920  1.00  0.00    -0.051 Br
HETATM    9  C21 UNK     1      23.131 -11.451  35.656  1.00  0.00     0.019 A 
HETATM   10  C20 UNK     1      24.289 -12.218  35.777  1.00  0.00     0.002 A 
HETATM   11  C15 UNK     1      25.442 -11.658  36.327  1.00  0.00     0.013 A 
ENDBRANCH   3   5
BRANCH   2  12
HETATM   12  C1  UNK     1      28.676  -8.272  37.205  1.00  0.00    -0.015 A 
HETATM   13  C4  UNK     1      29.887  -8.868  36.874  1.00  0.00     0.052 A 
HETATM   14  C3  UNK     1      31.076  -8.325  37.360  1.00  0.00     0.102 A 
HETATM   15  C2  UNK     1      31.046  -7.191  38.171  1.00  0.00     0.103 A 
HETATM   16  C7  UNK     1      29.825  -6.600  38.498  1.00  0.00     0.059 A 
HETATM   17  C6  UNK     1      28.635  -7.144  38.013  1.00  0.00     0.024 A 
HETATM   18 Br1  UNK     1      27.008  -6.289  38.496  1.00  0.00    -0.050 Br
BRANCH  14  19
HETATM   19  O2  UNK     1      32.262  -8.911  37.033  1.00  0.00    -0.353 OA
HETATM   20  C22 UNK     1      32.662  -8.847  35.666  1.00  0.00     0.210 C 
ENDBRANCH  14  19
BRANCH  15  21
HETATM   21  O1  UNK     1      32.200  -6.652  38.650  1.00  0.00    -0.344 OA
BRANCH  21  22
HETATM   22  C5  UNK     1      32.510  -5.319  38.247  1.00  0.00     0.214 C 
BRANCH  22  23
HETATM   23  C8  UNK     1      33.361  -5.366  37.012  1.00  0.00    -0.034 A 
HETATM   24  C12 UNK     1      32.889  -4.812  35.827  1.00  0.00     0.009 A 
HETATM   25  C16 UNK     1      33.681  -4.856  34.680  1.00  0.00     0.001 A 
HETATM   26  C18 UNK     1      34.940  -5.455  34.724  1.00  0.00     0.000 A 
HETATM   27  C17 UNK     1      35.408  -6.009  35.916  1.00  0.00     0.001 A 
HETATM   28  C13 UNK     1      34.615  -5.965  37.063  1.00  0.00     0.009 A 
ENDBRANCH  22  23
ENDBRANCH  21  22
ENDBRANCH  15  21
ENDBRANCH   2  12
TORSDOF 6
ENDMDL
MODEL 4
REMARK VINA RESULT:      -8.3      5.187     10.574
REMARK  6 active torsions:
REMARK  status: ('A' for Active; 'I' for Inactive)
REMARK    1  A    between atoms: C2_7  and  O1_3 
REMARK    2  A    between atoms: C5_10  and  O1_3 
REMARK    3  A    between atoms: C3_8  and  O2_4 
REMARK    4  A    between atoms: C1_6  and  C9_14 
REMARK    5  A    between atoms: C5_10  and  C8_13 
REMARK    6  A    between atoms: C10_15  and  C11_16 
ROOT
HETATM    1  N1  UNK     1      21.330   6.623  33.021  1.00  0.00    -0.191 NA
HETATM    2  C9  UNK     1      17.887   6.511  33.143  1.00  0.00     0.036 C 
HETATM    3  C10 UNK     1      18.877   7.421  33.343  1.00  0.00     0.055 C 
HETATM    4  C23 UNK     1      20.232   6.970  33.163  1.00  0.00     0.100 C 
ENDROOT
BRANCH   3   5
HETATM    5  C11 UNK     1      18.641   8.807  33.715  1.00  0.00    -0.014 A 
HETATM    6  C14 UNK     1      17.344   9.322  33.704  1.00  0.00     0.032 A 
HETATM    7  C19 UNK     1      17.119  10.651  34.062  1.00  0.00     0.011 A 
HETATM    8 Br2  UNK     1      15.363  11.349  34.047  1.00  0.00    -0.051 Br
HETATM    9  C21 UNK     1      18.190  11.465  34.432  1.00  0.00     0.019 A 
HETATM   10  C20 UNK     1      19.486  10.950  34.443  1.00  0.00     0.002 A 
HETATM   11  C15 UNK     1      19.711   9.621  34.086  1.00  0.00     0.013 A 
ENDBRANCH   3   5
BRANCH   2  12
HETATM   12  C1  UNK     1      18.079   5.104  32.760  1.00  0.00    -0.015 A 
HETATM   13  C4  UNK     1      17.966   4.153  33.767  1.00  0.00     0.052 A 
HETATM   14  C3  UNK     1      18.139   2.804  33.460  1.00  0.00     0.102 A 
HETATM   15  C2  UNK     1      18.422   2.416  32.151  1.00  0.00     0.103 A 
HETATM   16  C7  UNK     1      18.533   3.378  31.147  1.00  0.00     0.059 A 
HETATM   17  C6  UNK     1      18.361   4.728  31.454  1.00  0.00     0.024 A 
HETATM   18 Br1  UNK     1      18.525   5.987  30.039  1.00  0.00    -0.050 Br
BRANCH  14  19
HETATM   19  O2  UNK     1      18.028   1.873  34.449  1.00  0.00    -0.353 OA
HETATM   20  C22 UNK     1      18.856   2.044  35.597  1.00  0.00     0.210 C 
ENDBRANCH  14  19
BRANCH  15  21
HETATM   21  O1  UNK     1      18.591   1.101  31.840  1.00  0.00    -0.344 OA
BRANCH  21  22
HETATM   22  C5  UNK     1      19.306   0.805  30.642  1.00  0.00     0.214 C 
BRANCH  22  23
HETATM   23  C8  UNK     1      19.900  -0.569  30.753  1.00  0.00    -0.034 A 
HETATM   24  C12 UNK     1      20.028  -1.166  32.002  1.00  0.00     0.009 A 
HETATM   25  C16 UNK     1      20.579  -2.443  32.105  1.00  0.00     0.001 A 
HETATM   26  C18 UNK     1      21.000  -3.115  30.957  1.00  0.00     0.000 A 
HETATM   27  C17 UNK     1      20.869  -2.510  29.706  1.00  0.00     0.001 A 
HETATM   28  C13 UNK     1      20.317  -1.233  29.604  1.00  0.00     0.009 A 
ENDBRANCH  22  23
ENDBRANCH  21  22
ENDBRANCH  15  21
ENDBRANCH   2  12
TORSDOF 6
ENDMDL
MODEL 5
REMARK VINA RESULT:      -8.3      6.570      8.803
REMARK  6 active torsions:
REMARK  status: ('A' for Active; 'I' for Inactive)
REMARK    1  A    between atoms: C2_7  and  O1_3 
REMARK    2  A    between atoms: C5_10  and  O1_3 
REMARK    3  A    between atoms: C3_8  and  O2_4 
REMARK    4  A    between atoms: C1_6  and  C9_14 
REMARK    5  A    between atoms: C5_10  and  C8_13 
REMARK    6  A    between atoms: C10_15  and  C11_16 
ROOT
HETATM    1  N1  UNK     1      20.143   6.159  29.804  1.00  0.00    -0.191 NA
HETATM    2  C9  UNK     1      17.852   4.613  31.865  1.00  0.00     0.036 C 
HETATM    3  C10 UNK     1      18.628   4.294  30.795  1.00  0.00     0.055 C 
HETATM    4  C23 UNK     1      19.463   5.332  30.253  1.00  0.00     0.100 C 
ENDROOT
BRANCH   3   5
HETATM    5  C11 UNK     1      18.662   2.973  30.186  1.00  0.00    -0.014 A 
HETATM    6  C14 UNK     1      19.392   1.946  30.784  1.00  0.00     0.032 A 
HETATM    7  C19 UNK     1      19.424   0.681  30.198  1.00  0.00     0.011 A 
HETATM    8 Br2  UNK     1      20.412  -0.712  31.008  1.00  0.00    -0.051 Br
HETATM    9  C21 UNK     1      18.725   0.442  29.014  1.00  0.00     0.019 A 
HETATM   10  C20 UNK     1      17.996   1.469  28.416  1.00  0.00     0.002 A 
HETATM   11  C15 UNK     1      17.964   2.735  29.002  1.00  0.00     0.013 A 
ENDBRANCH   3   5
BRANCH   2  12
HETATM   12  C1  UNK     1      17.790   5.930  32.517  1.00  0.00    -0.015 A 
HETATM   13  C4  UNK     1      16.876   6.845  32.009  1.00  0.00     0.052 A 
HETATM   14  C3  UNK     1      16.775   8.109  32.588  1.00  0.00     0.102 A 
HETATM   15  C2  UNK     1      17.587   8.449  33.670  1.00  0.00     0.103 A 
HETATM   16  C7  UNK     1      18.502   7.524  34.172  1.00  0.00     0.059 A 
HETATM   17  C6  UNK     1      18.604   6.259  33.592  1.00  0.00     0.024 A 
HETATM   18 Br1  UNK     1      19.870   5.046  34.325  1.00  0.00    -0.050 Br
BRANCH  14  19
HETATM   19  O2  UNK     1      15.877   9.005  32.089  1.00  0.00    -0.353 OA
HETATM   20  C22 UNK     1      14.699   9.239  32.858  1.00  0.00     0.210 C 
ENDBRANCH  14  19
BRANCH  15  21
HETATM   21  O1  UNK     1      17.496   9.680  34.244  1.00  0.00    -0.344 OA
BRANCH  21  22
HETATM   22  C5  UNK     1      18.511  10.626  33.916  1.00  0.00     0.214 C 
BRANCH  22  23
HETATM   23  C8  UNK     1      17.963  12.013  34.087  1.00  0.00    -0.034 A 
HETATM   24  C12 UNK     1      18.591  13.084  33.461  1.00  0.00     0.009 A 
HETATM   25  C16 UNK     1      18.080  14.372  33.619  1.00  0.00     0.001 A 
HETATM   26  C18 UNK     1      16.946  14.581  34.405  1.00  0.00     0.000 A 
HETATM   27  C17 UNK     1      16.322  13.502  35.030  1.00  0.00     0.001 A 
HETATM   28  C13 UNK     1      16.832  12.213  34.871  1.00  0.00     0.009 A 
ENDBRANCH  22  23
ENDBRANCH  21  22
ENDBRANCH  15  21
ENDBRANCH   2  12
TORSDOF 6
ENDMDL
MODEL 6
REMARK VINA RESULT:      -8.2     26.488     28.883
REMARK  6 active torsions:
REMARK  status: ('A' for Active; 'I' for Inactive)
REMARK    1  A    between atoms: C2_7  and  O1_3 
REMARK    2  A    between atoms: C5_10  and  O1_3 
REMARK    3  A    between atoms: C3_8  and  O2_4 
REMARK    4  A    between atoms: C1_6  and  C9_14 
REMARK    5  A    between atoms: C5_10  and  C8_13 
REMARK    6  A    between atoms: C10_15  and  C11_16 
ROOT
HETATM    1  N1  UNK     1      16.593  12.377  11.475  1.00  0.00    -0.191 NA
HETATM    2  C9  UNK     1      17.862  10.164   9.156  1.00  0.00     0.036 C 
HETATM    3  C10 UNK     1      18.283  11.254   9.850  1.00  0.00     0.055 C 
HETATM    4  C23 UNK     1      17.341  11.869  10.747  1.00  0.00     0.100 C 
ENDROOT
BRANCH   3   5
HETATM    5  C11 UNK     1      19.620  11.817   9.740  1.00  0.00    -0.014 A 
HETATM    6  C14 UNK     1      20.044  12.381   8.537  1.00  0.00     0.032 A 
HETATM    7  C19 UNK     1      21.326  12.921   8.433  1.00  0.00     0.011 A 
HETATM    8 Br2  UNK     1      21.900  13.686   6.803  1.00  0.00    -0.051 Br
HETATM    9  C21 UNK     1      22.184  12.897   9.532  1.00  0.00     0.019 A 
HETATM   10  C20 UNK     1      21.761  12.333  10.735  1.00  0.00     0.002 A 
HETATM   11  C15 UNK     1      20.478  11.794  10.840  1.00  0.00     0.013 A 
ENDBRANCH   3   5
BRANCH   2  12
HETATM   12  C1  UNK     1      16.525   9.558   9.241  1.00  0.00    -0.015 A 
HETATM   13  C4  UNK     1      16.395   8.419  10.027  1.00  0.00     0.052 A 
HETATM   14  C3  UNK     1      15.150   7.802  10.143  1.00  0.00     0.102 A 
HETATM   15  C2  UNK     1      14.045   8.328   9.474  1.00  0.00     0.103 A 
HETATM   16  C7  UNK     1      14.185   9.471   8.687  1.00  0.00     0.059 A 
HETATM   17  C6  UNK     1      15.431  10.088   8.570  1.00  0.00     0.024 A 
HETATM   18 Br1  UNK     1      15.553  11.643   7.483  1.00  0.00    -0.050 Br
BRANCH  14  19
HETATM   19  O2  UNK     1      15.024   6.686  10.914  1.00  0.00    -0.353 OA
HETATM   20  C22 UNK     1      15.182   5.427  10.263  1.00  0.00     0.210 C 
ENDBRANCH  14  19
BRANCH  15  21
HETATM   21  O1  UNK     1      12.824   7.735   9.581  1.00  0.00    -0.344 OA
BRANCH  21  22
HETATM   22  C5  UNK     1      11.699   8.480   9.119  1.00  0.00     0.214 C 
BRANCH  22  23
HETATM   23  C8  UNK     1      10.916   7.637   8.154  1.00  0.00    -0.034 A 
HETATM   24  C12 UNK     1       9.607   7.278   8.457  1.00  0.00     0.009 A 
HETATM   25  C16 UNK     1       8.881   6.496   7.559  1.00  0.00     0.001 A 
HETATM   26  C18 UNK     1       9.468   6.077   6.365  1.00  0.00     0.000 A 
HETATM   27  C17 UNK     1      10.781   6.441   6.068  1.00  0.00     0.001 A 
HETATM   28  C13 UNK     1      11.508   7.223   6.966  1.00  0.00     0.009 A 
ENDBRANCH  22  23
ENDBRANCH  21  22
ENDBRANCH  15  21
ENDBRANCH   2  12
TORSDOF 6
ENDMDL
MODEL 7
REMARK VINA RESULT:      -8.2     11.708     14.162
REMARK  6 active torsions:
REMARK  status: ('A' for Active; 'I' for Inactive)
REMARK    1  A    between atoms: C2_7  and  O1_3 
REMARK    2  A    between atoms: C5_10  and  O1_3 
REMARK    3  A    between atoms: C3_8  and  O2_4 
REMARK    4  A    between atoms: C1_6  and  C9_14 
REMARK    5  A    between atoms: C5_10  and  C8_13 
REMARK    6  A    between atoms: C10_15  and  C11_16 
ROOT
HETATM    1  N1  UNK     1      27.274 -10.208  39.647  1.00  0.00    -0.191 NA
HETATM    2  C9  UNK     1      27.378  -8.873  36.471  1.00  0.00     0.036 C 
HETATM    3  C10 UNK     1      26.591  -9.719  37.188  1.00  0.00     0.055 C 
HETATM    4  C23 UNK     1      26.977  -9.984  38.548  1.00  0.00     0.100 C 
ENDROOT
BRANCH   3   5
HETATM    5  C11 UNK     1      25.393 -10.353  36.660  1.00  0.00    -0.014 A 
HETATM    6  C14 UNK     1      24.208  -9.626  36.549  1.00  0.00     0.032 A 
HETATM    7  C19 UNK     1      23.060 -10.235  36.042  1.00  0.00     0.011 A 
HETATM    8 Br2  UNK     1      21.455  -9.250  35.891  1.00  0.00    -0.051 Br
HETATM    9  C21 UNK     1      23.098 -11.572  35.646  1.00  0.00     0.019 A 
HETATM   10  C20 UNK     1      24.282 -12.300  35.757  1.00  0.00     0.002 A 
HETATM   11  C15 UNK     1      25.430 -11.690  36.263  1.00  0.00     0.013 A 
ENDBRANCH   3   5
BRANCH   2  12
HETATM   12  C1  UNK     1      28.591  -8.206  36.964  1.00  0.00    -0.015 A 
HETATM   13  C4  UNK     1      28.421  -7.198  37.907  1.00  0.00     0.052 A 
HETATM   14  C3  UNK     1      29.537  -6.531  38.409  1.00  0.00     0.102 A 
HETATM   15  C2  UNK     1      30.814  -6.875  37.967  1.00  0.00     0.103 A 
HETATM   16  C7  UNK     1      30.975  -7.888  37.021  1.00  0.00     0.059 A 
HETATM   17  C6  UNK     1      29.858  -8.555  36.517  1.00  0.00     0.024 A 
HETATM   18 Br1  UNK     1      30.148  -9.924  35.232  1.00  0.00    -0.050 Br
BRANCH  14  19
HETATM   19  O2  UNK     1      29.368  -5.544  39.334  1.00  0.00    -0.353 OA
HETATM   20  C22 UNK     1      28.927  -4.276  38.854  1.00  0.00     0.210 C 
ENDBRANCH  14  19
BRANCH  15  21
HETATM   21  O1  UNK     1      31.912  -6.232  38.452  1.00  0.00    -0.344 OA
BRANCH  21  22
HETATM   22  C5  UNK     1      32.226  -4.964  37.881  1.00  0.00     0.214 C 
BRANCH  22  23
HETATM   23  C8  UNK     1      33.258  -5.152  36.808  1.00  0.00    -0.034 A 
HETATM   24  C12 UNK     1      33.125  -4.479  35.598  1.00  0.00     0.009 A 
HETATM   25  C16 UNK     1      34.086  -4.654  34.602  1.00  0.00     0.001 A 
HETATM   26  C18 UNK     1      35.172  -5.501  34.821  1.00  0.00     0.000 A 
HETATM   27  C17 UNK     1      35.300  -6.172  36.038  1.00  0.00     0.001 A 
HETATM   28  C13 UNK     1      34.339  -5.997  37.035  1.00  0.00     0.009 A 
ENDBRANCH  22  23
ENDBRANCH  21  22
ENDBRANCH  15  21
ENDBRANCH   2  12
TORSDOF 6
ENDMDL
MODEL 8
REMARK VINA RESULT:      -8.2     26.790     28.717
REMARK  6 active torsions:
REMARK  status: ('A' for Active; 'I' for Inactive)
REMARK    1  A    between atoms: C2_7  and  O1_3 
REMARK    2  A    between atoms: C5_10  and  O1_3 
REMARK    3  A    between atoms: C3_8  and  O2_4 
REMARK    4  A    between atoms: C1_6  and  C9_14 
REMARK    5  A    between atoms: C5_10  and  C8_13 
REMARK    6  A    between atoms: C10_15  and  C11_16 
ROOT
HETATM    1  N1  UNK     1      15.901  11.695   7.329  1.00  0.00    -0.191 NA
HETATM    2  C9  UNK     1      17.097   9.953  10.053  1.00  0.00     0.036 C 
HETATM    3  C10 UNK     1      17.549  10.880   9.166  1.00  0.00     0.055 C 
HETATM    4  C23 UNK     1      16.630  11.325   8.152  1.00  0.00     0.100 C 
ENDROOT
BRANCH   3   5
HETATM    5  C11 UNK     1      18.891  11.441   9.195  1.00  0.00    -0.014 A 
HETATM    6  C14 UNK     1      19.536  11.648  10.414  1.00  0.00     0.032 A 
HETATM    7  C19 UNK     1      20.822  12.187  10.440  1.00  0.00     0.011 A 
HETATM    8 Br2  UNK     1      21.697  12.467  12.092  1.00  0.00    -0.051 Br
HETATM    9  C21 UNK     1      21.464  12.517   9.247  1.00  0.00     0.019 A 
HETATM   10  C20 UNK     1      20.819  12.311   8.027  1.00  0.00     0.002 A 
HETATM   11  C15 UNK     1      19.533  11.772   8.001  1.00  0.00     0.013 A 
ENDBRANCH   3   5
BRANCH   2  12
HETATM   12  C1  UNK     1      15.750   9.364  10.066  1.00  0.00    -0.015 A 
HETATM   13  C4  UNK     1      15.597   8.121   9.463  1.00  0.00     0.052 A 
HETATM   14  C3  UNK     1      14.341   7.516   9.446  1.00  0.00     0.102 A 
HETATM   15  C2  UNK     1      13.249   8.156  10.030  1.00  0.00     0.103 A 
HETATM   16  C7  UNK     1      13.413   9.403  10.633  1.00  0.00     0.059 A 
HETATM   17  C6  UNK     1      14.669  10.010  10.650  1.00  0.00     0.024 A 
HETATM   18 Br1  UNK     1      14.823  11.709  11.488  1.00  0.00    -0.050 Br
BRANCH  14  19
HETATM   19  O2  UNK     1      14.194   6.296   8.854  1.00  0.00    -0.353 OA
HETATM   20  C22 UNK     1      14.629   5.159   9.596  1.00  0.00     0.210 C 
ENDBRANCH  14  19
BRANCH  15  21
HETATM   21  O1  UNK     1      12.019   7.573  10.021  1.00  0.00    -0.344 OA
BRANCH  21  22
HETATM   22  C5  UNK     1      10.970   8.282   9.365  1.00  0.00     0.214 C 
BRANCH  22  23
HETATM   23  C8  UNK     1      10.505   7.485   8.181  1.00  0.00    -0.034 A 
HETATM   24  C12 UNK     1       9.226   6.941   8.176  1.00  0.00     0.009 A 
HETATM   25  C16 UNK     1       8.794   6.201   7.075  1.00  0.00     0.001 A 
HETATM   26  C18 UNK     1       9.646   6.008   5.987  1.00  0.00     0.000 A 
HETATM   27  C17 UNK     1      10.928   6.557   5.999  1.00  0.00     0.001 A 
HETATM   28  C13 UNK     1      11.360   7.297   7.100  1.00  0.00     0.009 A 
ENDBRANCH  22  23
ENDBRANCH  21  22
ENDBRANCH  15  21
ENDBRANCH   2  12
TORSDOF 6
ENDMDL
MODEL 9
REMARK VINA RESULT:      -8.1      4.734     11.079
REMARK  6 active torsions:
REMARK  status: ('A' for Active; 'I' for Inactive)
REMARK    1  A    between atoms: C2_7  and  O1_3 
REMARK    2  A    between atoms: C5_10  and  O1_3 
REMARK    3  A    between atoms: C3_8  and  O2_4 
REMARK    4  A    between atoms: C1_6  and  C9_14 
REMARK    5  A    between atoms: C5_10  and  C8_13 
REMARK    6  A    between atoms: C10_15  and  C11_16 
ROOT
HETATM    1  N1  UNK     1      20.542  -3.651  34.330  1.00  0.00    -0.191 NA
HETATM    2  C9  UNK     1      19.376  -3.885  37.566  1.00  0.00     0.036 C 
HETATM    3  C10 UNK     1      19.400  -2.967  36.562  1.00  0.00     0.055 C 
HETATM    4  C23 UNK     1      20.034  -3.354  35.330  1.00  0.00     0.100 C 
ENDROOT
BRANCH   3   5
HETATM    5  C11 UNK     1      18.818  -1.638  36.667  1.00  0.00    -0.014 A 
HETATM    6  C14 UNK     1      18.779  -0.803  35.551  1.00  0.00     0.032 A 
HETATM    7  C19 UNK     1      18.221   0.471  35.653  1.00  0.00     0.011 A 
HETATM    8 Br2  UNK     1      18.166   1.604  34.141  1.00  0.00    -0.051 Br
HETATM    9  C21 UNK     1      17.702   0.910  36.871  1.00  0.00     0.019 A 
HETATM   10  C20 UNK     1      17.741   0.075  37.988  1.00  0.00     0.002 A 
HETATM   11  C15 UNK     1      18.299  -1.200  37.886  1.00  0.00     0.013 A 
ENDBRANCH   3   5
BRANCH   2  12
HETATM   12  C1  UNK     1      19.944  -5.239  37.502  1.00  0.00    -0.015 A 
HETATM   13  C4  UNK     1      21.255  -5.398  37.939  1.00  0.00     0.052 A 
HETATM   14  C3  UNK     1      21.844  -6.660  37.901  1.00  0.00     0.102 A 
HETATM   15  C2  UNK     1      21.121  -7.755  37.427  1.00  0.00     0.103 A 
HETATM   16  C7  UNK     1      19.806  -7.586  36.992  1.00  0.00     0.059 A 
HETATM   17  C6  UNK     1      19.216  -6.323  37.029  1.00  0.00     0.024 A 
HETATM   18 Br1  UNK     1      17.423  -6.162  36.421  1.00  0.00    -0.050 Br
BRANCH  14  19
HETATM   19  O2  UNK     1      23.129  -6.813  38.330  1.00  0.00    -0.353 OA
HETATM   20  C22 UNK     1      23.644  -5.811  39.203  1.00  0.00     0.210 C 
ENDBRANCH  14  19
BRANCH  15  21
HETATM   21  O1  UNK     1      21.686  -8.993  37.387  1.00  0.00    -0.344 OA
BRANCH  21  22
HETATM   22  C5  UNK     1      21.917  -9.559  36.099  1.00  0.00     0.214 C 
BRANCH  22  23
HETATM   23  C8  UNK     1      23.191 -10.351  36.133  1.00  0.00    -0.034 A 
HETATM   24  C12 UNK     1      23.192 -11.675  35.707  1.00  0.00     0.009 A 
HETATM   25  C16 UNK     1      24.377 -12.410  35.739  1.00  0.00     0.001 A 
HETATM   26  C18 UNK     1      25.553 -11.817  36.197  1.00  0.00     0.000 A 
HETATM   27  C17 UNK     1      25.545 -10.489  36.623  1.00  0.00     0.001 A 
HETATM   28  C13 UNK     1      24.360  -9.753  36.591  1.00  0.00     0.009 A 
ENDBRANCH  22  23
ENDBRANCH  21  22
ENDBRANCH  15  21
ENDBRANCH   2  12
TORSDOF 6
ENDMDL
MODEL 10
REMARK VINA RESULT:      -8.1     26.717     28.587
REMARK  6 active torsions:
REMARK  status: ('A' for Active; 'I' for Inactive)
REMARK    1  A    between atoms: C2_7  and  O1_3 
REMARK    2  A    between atoms: C5_10  and  O1_3 
REMARK    3  A    between atoms: C3_8  and  O2_4 
REMARK    4  A    between atoms: C1_6  and  C9_14 
REMARK    5  A    between atoms: C5_10  and  C8_13 
REMARK    6  A    between atoms: C10_15  and  C11_16 
ROOT
HETATM    1  N1  UNK     1      15.436  10.983   7.624  1.00  0.00    -0.191 NA
HETATM    2  C9  UNK     1      16.583   9.769  10.640  1.00  0.00     0.036 C 
HETATM    3  C10 UNK     1      16.900  10.756   9.760  1.00  0.00     0.055 C 
HETATM    4  C23 UNK     1      16.084  10.874   8.581  1.00  0.00     0.100 C 
ENDROOT
BRANCH   3   5
HETATM    5  C11 UNK     1      18.000  11.688   9.950  1.00  0.00    -0.014 A 
HETATM    6  C14 UNK     1      19.084  11.680   9.071  1.00  0.00     0.032 A 
HETATM    7  C19 UNK     1      20.138  12.574   9.256  1.00  0.00     0.011 A 
HETATM    8 Br2  UNK     1      21.605  12.564   8.065  1.00  0.00    -0.051 Br
HETATM    9  C21 UNK     1      20.108  13.477  10.318  1.00  0.00     0.019 A 
HETATM   10  C20 UNK     1      19.026  13.486  11.197  1.00  0.00     0.002 A 
HETATM   11  C15 UNK     1      17.971  12.591  11.013  1.00  0.00     0.013 A 
ENDBRANCH   3   5
BRANCH   2  12
HETATM   12  C1  UNK     1      15.478   8.810  10.492  1.00  0.00    -0.015 A 
HETATM   13  C4  UNK     1      14.195   9.279  10.747  1.00  0.00     0.052 A 
HETATM   14  C3  UNK     1      13.109   8.413  10.622  1.00  0.00     0.102 A 
HETATM   15  C2  UNK     1      13.314   7.087  10.243  1.00  0.00     0.103 A 
HETATM   16  C7  UNK     1      14.606   6.625   9.989  1.00  0.00     0.059 A 
HETATM   17  C6  UNK     1      15.692   7.491  10.115  1.00  0.00     0.024 A 
HETATM   18 Br1  UNK     1      17.425   6.799   9.754  1.00  0.00    -0.050 Br
BRANCH  14  19
HETATM   19  O2  UNK     1      11.851   8.875  10.872  1.00  0.00    -0.353 OA
HETATM   20  C22 UNK     1      11.188   9.556   9.810  1.00  0.00     0.210 C 
ENDBRANCH  14  19
BRANCH  15  21
HETATM   21  O1  UNK     1      12.261   6.232  10.116  1.00  0.00    -0.344 OA
BRANCH  21  22
HETATM   22  C5  UNK     1      12.301   5.310   9.029  1.00  0.00     0.214 C 
BRANCH  22  23
HETATM   23  C8  UNK     1      11.263   5.699   8.018  1.00  0.00    -0.034 A 
HETATM   24  C12 UNK     1      11.640   5.939   6.701  1.00  0.00     0.009 A 
HETATM   25  C16 UNK     1      10.674   6.301   5.762  1.00  0.00     0.001 A 
HETATM   26  C18 UNK     1       9.338   6.421   6.145  1.00  0.00     0.000 A 
HETATM   27  C17 UNK     1       8.968   6.178   7.468  1.00  0.00     0.001 A 
HETATM   28  C13 UNK     1       9.933   5.817   8.408  1.00  0.00     0.009 A 
ENDBRANCH  22  23
ENDBRANCH  21  22
ENDBRANCH  15  21
ENDBRANCH   2  12
TORSDOF 6
ENDMDL
