MODEL 1
REMARK VINA RESULT:      -9.5      0.000      0.000
REMARK  6 active torsions:
REMARK  status: ('A' for Active; 'I' for Inactive)
REMARK    1  A    between atoms: C5_11  and  N1_4 
REMARK    2  A    between atoms: C6_12  and  N2_5 
REMARK    3  A    between atoms: C6_12  and  N3_6 
REMARK    4  A    between atoms: C8_14  and  N3_6 
REMARK    5  A    between atoms: C5_11  and  C7_13 
REMARK    6  A    between atoms: C15_21  and  C9_15 
ROOT
HETATM    1  S1  UNK     1      15.775   0.535  35.689  1.00  0.00    -0.041 SA
HETATM    2  C6  UNK     1      17.438   0.347  35.572  1.00  0.00     0.174 C 
ENDROOT
BRANCH   2   3
HETATM    3  N2  UNK     1      17.992  -0.883  35.702  1.00  0.00    -0.355 N 
HETATM    4  C3  UNK     1      17.491  -1.852  36.666  1.00  0.00     0.155 C 
HETATM    5  C1  UNK     1      18.642  -2.526  37.410  1.00  0.00     0.292 C 
HETATM    6  N1  UNK     1      19.619  -3.089  36.464  1.00  0.00     0.095 N 
HETATM    7  C2  UNK     1      20.160  -2.036  35.589  1.00  0.00     0.292 C 
HETATM    8  C4  UNK     1      19.040  -1.351  34.807  1.00  0.00     0.155 C 
BRANCH   6   9
HETATM    9  C5  UNK     1      20.699  -3.764  37.183  1.00  0.00     0.300 C 
BRANCH   9  10
HETATM   10  C7  UNK     1      20.505  -5.250  37.198  1.00  0.00     0.004 C 
HETATM   11  C9  UNK     1      20.072  -5.927  38.273  1.00  0.00     0.009 C 
BRANCH  11  12
HETATM   12  C15 UNK     1      19.851  -7.382  38.331  1.00  0.00    -0.036 A 
HETATM   13  C19 UNK     1      19.157  -8.005  37.307  1.00  0.00     0.011 A 
HETATM   14  C22 UNK     1      18.951  -9.384  37.360  1.00  0.00     0.001 A 
HETATM   15  C24 UNK     1      19.441 -10.121  38.439  1.00  0.00     0.000 A 
HETATM   16  C23 UNK     1      20.137  -9.479  39.463  1.00  0.00     0.001 A 
HETATM   17  C20 UNK     1      20.344  -8.100  39.409  1.00  0.00     0.011 A 
ENDBRANCH  11  12
ENDBRANCH   9  10
ENDBRANCH   6   9
ENDBRANCH   2   3
BRANCH   2  18
HETATM   18  N3  UNK     1      18.231   1.427  35.286  1.00  0.00    -0.333 N 
HETATM   19  H12 UNK     1      18.892   1.680  36.018  1.00  0.00     0.168 HD
BRANCH  18  20
HETATM   20  C8  UNK     1      18.309   2.249  34.135  1.00  0.00     0.036 A 
HETATM   21  C10 UNK     1      18.231   1.671  32.884  1.00  0.00     0.067 A 
HETATM   22  C13 UNK     1      18.310   2.500  31.764  1.00  0.00     0.092 A 
HETATM   23  C12 UNK     1      18.463   3.883  31.868  1.00  0.00     0.004 A 
HETATM   24  O1  UNK     1      18.226   1.868  30.506  1.00  0.00    -0.275 OA
HETATM   25  C14 UNK     1      18.539   4.433  33.154  1.00  0.00     0.017 A 
HETATM   26  C16 UNK     1      18.536   4.678  30.634  1.00  0.00    -0.043 A 
HETATM   27  C11 UNK     1      18.461   3.616  34.287  1.00  0.00     0.030 A 
HETATM   28  C17 UNK     1      18.454   4.051  29.452  1.00  0.00     0.090 A 
HETATM   29  C18 UNK     1      18.701   6.167  30.712  1.00  0.00     0.049 C 
HETATM   30  C21 UNK     1      18.291   2.592  29.326  1.00  0.00     0.288 A 
HETATM   31  O2  UNK     1      18.219   2.054  28.227  1.00  0.00    -0.260 OA
ENDBRANCH  18  20
ENDBRANCH   2  18
TORSDOF 6
ENDMDL
MODEL 2
REMARK VINA RESULT:      -9.5      4.271     11.710
REMARK  6 active torsions:
REMARK  status: ('A' for Active; 'I' for Inactive)
REMARK    1  A    between atoms: C5_11  and  N1_4 
REMARK    2  A    between atoms: C6_12  and  N2_5 
REMARK    3  A    between atoms: C6_12  and  N3_6 
REMARK    4  A    between atoms: C8_14  and  N3_6 
REMARK    5  A    between atoms: C5_11  and  C7_13 
REMARK    6  A    between atoms: C15_21  and  C9_15 
ROOT
HETATM    1  S1  UNK     1      20.847  -3.642  37.554  1.00  0.00    -0.041 SA
HETATM    2  C6  UNK     1      19.378  -3.660  36.743  1.00  0.00     0.174 C 
ENDROOT
BRANCH   2   3
HETATM    3  N2  UNK     1      18.825  -2.497  36.319  1.00  0.00    -0.355 N 
HETATM    4  C3  UNK     1      19.366  -1.757  35.189  1.00  0.00     0.155 C 
HETATM    5  C1  UNK     1      19.441  -0.264  35.499  1.00  0.00     0.292 C 
HETATM    6  N1  UNK     1      18.138   0.241  35.962  1.00  0.00     0.095 N 
HETATM    7  C2  UNK     1      17.701  -0.482  37.168  1.00  0.00     0.292 C 
HETATM    8  C4  UNK     1      17.590  -1.981  36.892  1.00  0.00     0.155 C 
BRANCH   6   9
HETATM    9  C5  UNK     1      18.208   1.678  36.223  1.00  0.00     0.300 C 
BRANCH   9  10
HETATM   10  C7  UNK     1      18.694   2.432  35.021  1.00  0.00     0.004 C 
HETATM   11  C9  UNK     1      17.967   3.373  34.398  1.00  0.00     0.009 C 
BRANCH  11  12
HETATM   12  C15 UNK     1      18.407   4.150  33.227  1.00  0.00    -0.036 A 
HETATM   13  C19 UNK     1      18.912   5.427  33.408  1.00  0.00     0.011 A 
HETATM   14  C22 UNK     1      19.330   6.161  32.298  1.00  0.00     0.001 A 
HETATM   15  C24 UNK     1      19.237   5.608  31.020  1.00  0.00     0.000 A 
HETATM   16  C23 UNK     1      18.726   4.321  30.854  1.00  0.00     0.001 A 
HETATM   17  C20 UNK     1      18.308   3.587  31.964  1.00  0.00     0.011 A 
ENDBRANCH  11  12
ENDBRANCH   9  10
ENDBRANCH   6   9
ENDBRANCH   2   3
BRANCH   2  18
HETATM   18  N3  UNK     1      18.766  -4.852  36.457  1.00  0.00    -0.333 N 
HETATM   19  H12 UNK     1      17.768  -4.787  36.271  1.00  0.00     0.168 HD
BRANCH  18  20
HETATM   20  C8  UNK     1      19.285  -6.166  36.355  1.00  0.00     0.036 A 
HETATM   21  C10 UNK     1      18.914  -7.114  37.288  1.00  0.00     0.067 A 
HETATM   22  C13 UNK     1      19.437  -8.403  37.168  1.00  0.00     0.092 A 
HETATM   23  C12 UNK     1      20.315  -8.760  36.143  1.00  0.00     0.004 A 
HETATM   24  O1  UNK     1      19.033  -9.340  38.141  1.00  0.00    -0.275 OA
HETATM   25  C14 UNK     1      20.669  -7.770  35.217  1.00  0.00     0.017 A 
HETATM   26  C16 UNK     1      20.817 -10.140  36.095  1.00  0.00    -0.043 A 
HETATM   27  C11 UNK     1      20.153  -6.474  35.323  1.00  0.00     0.030 A 
HETATM   28  C17 UNK     1      20.415 -11.010  37.033  1.00  0.00     0.090 A 
HETATM   29  C18 UNK     1      21.762 -10.555  35.006  1.00  0.00     0.049 C 
HETATM   30  C21 UNK     1      19.489 -10.649  38.120  1.00  0.00     0.288 A 
HETATM   31  O2  UNK     1      19.143 -11.471  38.960  1.00  0.00    -0.260 OA
ENDBRANCH  18  20
ENDBRANCH   2  18
TORSDOF 6
ENDMDL
MODEL 3
REMARK VINA RESULT:      -9.3      3.776     11.615
REMARK  6 active torsions:
REMARK  status: ('A' for Active; 'I' for Inactive)
REMARK    1  A    between atoms: C5_11  and  N1_4 
REMARK    2  A    between atoms: C6_12  and  N2_5 
REMARK    3  A    between atoms: C6_12  and  N3_6 
REMARK    4  A    between atoms: C8_14  and  N3_6 
REMARK    5  A    between atoms: C5_11  and  C7_13 
REMARK    6  A    between atoms: C15_21  and  C9_15 
ROOT
HETATM    1  S1  UNK     1      20.808  -3.695  37.304  1.00  0.00    -0.041 SA
HETATM    2  C6  UNK     1      19.253  -3.663  36.674  1.00  0.00     0.174 C 
ENDROOT
BRANCH   2   3
HETATM    3  N2  UNK     1      18.725  -2.494  36.234  1.00  0.00    -0.355 N 
HETATM    4  C3  UNK     1      19.308  -1.761  35.120  1.00  0.00     0.155 C 
HETATM    5  C1  UNK     1      19.389  -0.267  35.434  1.00  0.00     0.292 C 
HETATM    6  N1  UNK     1      18.077   0.250  35.857  1.00  0.00     0.095 N 
HETATM    7  C2  UNK     1      17.597  -0.468  37.049  1.00  0.00     0.292 C 
HETATM    8  C4  UNK     1      17.479  -1.966  36.769  1.00  0.00     0.155 C 
BRANCH   6   9
HETATM    9  C5  UNK     1      18.154   1.687  36.121  1.00  0.00     0.300 C 
BRANCH   9  10
HETATM   10  C7  UNK     1      18.559   2.450  34.895  1.00  0.00     0.004 C 
HETATM   11  C9  UNK     1      18.240   3.737  34.689  1.00  0.00     0.009 C 
BRANCH  11  12
HETATM   12  C15 UNK     1      18.628   4.531  33.511  1.00  0.00    -0.036 A 
HETATM   13  C19 UNK     1      19.330   5.712  33.688  1.00  0.00     0.011 A 
HETATM   14  C22 UNK     1      19.699   6.463  32.571  1.00  0.00     0.001 A 
HETATM   15  C24 UNK     1      19.359   6.022  31.291  1.00  0.00     0.000 A 
HETATM   16  C23 UNK     1      18.652   4.831  31.129  1.00  0.00     0.001 A 
HETATM   17  C20 UNK     1      18.283   4.080  32.246  1.00  0.00     0.011 A 
ENDBRANCH  11  12
ENDBRANCH   9  10
ENDBRANCH   6   9
ENDBRANCH   2   3
BRANCH   2  18
HETATM   18  N3  UNK     1      18.539  -4.826  36.549  1.00  0.00    -0.333 N 
HETATM   19  H12 UNK     1      17.570  -4.704  36.264  1.00  0.00     0.168 HD
BRANCH  18  20
HETATM   20  C8  UNK     1      18.919  -6.178  36.730  1.00  0.00     0.036 A 
HETATM   21  C10 UNK     1      19.744  -6.779  35.800  1.00  0.00     0.067 A 
HETATM   22  C13 UNK     1      20.107  -8.112  35.998  1.00  0.00     0.092 A 
HETATM   23  C12 UNK     1      19.666  -8.850  37.098  1.00  0.00     0.004 A 
HETATM   24  O1  UNK     1      20.950  -8.687  35.025  1.00  0.00    -0.275 OA
HETATM   25  C14 UNK     1      18.830  -8.206  38.019  1.00  0.00     0.017 A 
HETATM   26  C16 UNK     1      20.098 -10.249  37.226  1.00  0.00    -0.043 A 
HETATM   27  C11 UNK     1      18.458  -6.870  37.835  1.00  0.00     0.030 A 
HETATM   28  C17 UNK     1      20.900 -10.769  36.285  1.00  0.00     0.090 A 
HETATM   29  C18 UNK     1      19.641 -11.069  38.396  1.00  0.00     0.049 C 
HETATM   30  C21 UNK     1      21.374 -10.003  35.120  1.00  0.00     0.288 A 
HETATM   31  O2  UNK     1      22.107 -10.513  34.280  1.00  0.00    -0.260 OA
ENDBRANCH  18  20
ENDBRANCH   2  18
TORSDOF 6
ENDMDL
MODEL 4
REMARK VINA RESULT:      -9.0      1.854      2.540
REMARK  6 active torsions:
REMARK  status: ('A' for Active; 'I' for Inactive)
REMARK    1  A    between atoms: C5_11  and  N1_4 
REMARK    2  A    between atoms: C6_12  and  N2_5 
REMARK    3  A    between atoms: C6_12  and  N3_6 
REMARK    4  A    between atoms: C8_14  and  N3_6 
REMARK    5  A    between atoms: C5_11  and  C7_13 
REMARK    6  A    between atoms: C15_21  and  C9_15 
ROOT
HETATM    1  S1  UNK     1      17.622   1.562  36.359  1.00  0.00    -0.041 SA
HETATM    2  C6  UNK     1      17.974   0.494  35.113  1.00  0.00     0.174 C 
ENDROOT
BRANCH   2   3
HETATM    3  N2  UNK     1      18.309  -0.789  35.396  1.00  0.00    -0.355 N 
HETATM    4  C3  UNK     1      17.791  -1.477  36.569  1.00  0.00     0.155 C 
HETATM    5  C1  UNK     1      18.899  -2.249  37.283  1.00  0.00     0.292 C 
HETATM    6  N1  UNK     1      19.606  -3.136  36.345  1.00  0.00     0.095 N 
HETATM    7  C2  UNK     1      20.192  -2.361  35.240  1.00  0.00     0.292 C 
HETATM    8  C4  UNK     1      19.111  -1.591  34.483  1.00  0.00     0.155 C 
BRANCH   6   9
HETATM    9  C5  UNK     1      20.642  -3.898  37.043  1.00  0.00     0.300 C 
BRANCH   9  10
HETATM   10  C7  UNK     1      20.339  -5.367  37.041  1.00  0.00     0.004 C 
HETATM   11  C9  UNK     1      20.311  -6.116  38.155  1.00  0.00     0.009 C 
BRANCH  11  12
HETATM   12  C15 UNK     1      20.004  -7.555  38.204  1.00  0.00    -0.036 A 
HETATM   13  C19 UNK     1      19.605  -8.205  37.048  1.00  0.00     0.011 A 
HETATM   14  C22 UNK     1      19.316  -9.569  37.095  1.00  0.00     0.001 A 
HETATM   15  C24 UNK     1      19.430 -10.265  38.299  1.00  0.00     0.000 A 
HETATM   16  C23 UNK     1      19.832  -9.597  39.455  1.00  0.00     0.001 A 
HETATM   17  C20 UNK     1      20.121  -8.232  39.408  1.00  0.00     0.011 A 
ENDBRANCH  11  12
ENDBRANCH   9  10
ENDBRANCH   6   9
ENDBRANCH   2   3
BRANCH   2  18
HETATM   18  N3  UNK     1      17.864   0.901  33.809  1.00  0.00    -0.333 N 
HETATM   19  H12 UNK     1      17.550   0.181  33.162  1.00  0.00     0.168 HD
BRANCH  18  20
HETATM   20  C8  UNK     1      18.094   2.159  33.202  1.00  0.00     0.036 A 
HETATM   21  C10 UNK     1      18.110   3.295  33.986  1.00  0.00     0.067 A 
HETATM   22  C13 UNK     1      18.339   4.525  33.366  1.00  0.00     0.092 A 
HETATM   23  C12 UNK     1      18.551   4.641  31.992  1.00  0.00     0.004 A 
HETATM   24  O1  UNK     1      18.347   5.660  34.203  1.00  0.00    -0.275 OA
HETATM   25  C14 UNK     1      18.527   3.465  31.230  1.00  0.00     0.017 A 
HETATM   26  C16 UNK     1      18.785   5.977  31.425  1.00  0.00    -0.043 A 
HETATM   27  C11 UNK     1      18.300   2.225  31.836  1.00  0.00     0.030 A 
HETATM   28  C17 UNK     1      18.787   7.038  32.244  1.00  0.00     0.090 A 
HETATM   29  C18 UNK     1      19.016   6.134  29.951  1.00  0.00     0.049 C 
HETATM   30  C21 UNK     1      18.565   6.932  33.697  1.00  0.00     0.288 A 
HETATM   31  O2  UNK     1      18.574   7.925  34.415  1.00  0.00    -0.260 OA
ENDBRANCH  18  20
ENDBRANCH   2  18
TORSDOF 6
ENDMDL
MODEL 5
REMARK VINA RESULT:      -8.9      3.890     11.539
REMARK  6 active torsions:
REMARK  status: ('A' for Active; 'I' for Inactive)
REMARK    1  A    between atoms: C5_11  and  N1_4 
REMARK    2  A    between atoms: C6_12  and  N2_5 
REMARK    3  A    between atoms: C6_12  and  N3_6 
REMARK    4  A    between atoms: C8_14  and  N3_6 
REMARK    5  A    between atoms: C5_11  and  C7_13 
REMARK    6  A    between atoms: C15_21  and  C9_15 
ROOT
HETATM    1  S1  UNK     1      18.291  -1.713  37.942  1.00  0.00    -0.041 SA
HETATM    2  C6  UNK     1      18.706  -2.444  36.489  1.00  0.00     0.174 C 
ENDROOT
BRANCH   2   3
HETATM    3  N2  UNK     1      19.121  -1.687  35.444  1.00  0.00    -0.355 N 
HETATM    4  C3  UNK     1      18.757  -0.283  35.321  1.00  0.00     0.155 C 
HETATM    5  C1  UNK     1      18.329   0.046  33.892  1.00  0.00     0.292 C 
HETATM    6  N1  UNK     1      19.353  -0.383  32.927  1.00  0.00     0.095 N 
HETATM    7  C2  UNK     1      19.596  -1.831  33.037  1.00  0.00     0.292 C 
HETATM    8  C4  UNK     1      20.051  -2.199  34.449  1.00  0.00     0.155 C 
BRANCH   6   9
HETATM    9  C5  UNK     1      18.952  -0.033  31.564  1.00  0.00     0.300 C 
BRANCH   9  10
HETATM   10  C7  UNK     1      19.184   1.421  31.280  1.00  0.00     0.004 C 
HETATM   11  C9  UNK     1      18.262   2.372  31.504  1.00  0.00     0.009 C 
BRANCH  11  12
HETATM   12  C15 UNK     1      18.449   3.811  31.256  1.00  0.00    -0.036 A 
HETATM   13  C19 UNK     1      18.018   4.726  32.204  1.00  0.00     0.011 A 
HETATM   14  C22 UNK     1      18.196   6.090  31.969  1.00  0.00     0.001 A 
HETATM   15  C24 UNK     1      18.804   6.521  30.789  1.00  0.00     0.000 A 
HETATM   16  C23 UNK     1      19.232   5.588  29.845  1.00  0.00     0.001 A 
HETATM   17  C20 UNK     1      19.053   4.224  30.079  1.00  0.00     0.011 A 
ENDBRANCH  11  12
ENDBRANCH   9  10
ENDBRANCH   6   9
ENDBRANCH   2   3
BRANCH   2  18
HETATM   18  N3  UNK     1      18.681  -3.810  36.377  1.00  0.00    -0.333 N 
HETATM   19  H12 UNK     1      18.026  -4.171  35.687  1.00  0.00     0.168 HD
BRANCH  18  20
HETATM   20  C8  UNK     1      19.426  -4.814  37.043  1.00  0.00     0.036 A 
HETATM   21  C10 UNK     1      18.881  -6.073  37.193  1.00  0.00     0.067 A 
HETATM   22  C13 UNK     1      19.633  -7.047  37.852  1.00  0.00     0.092 A 
HETATM   23  C12 UNK     1      20.908  -6.791  38.358  1.00  0.00     0.004 A 
HETATM   24  O1  UNK     1      19.038  -8.319  37.984  1.00  0.00    -0.275 OA
HETATM   25  C14 UNK     1      21.427  -5.501  38.186  1.00  0.00     0.017 A 
HETATM   26  C16 UNK     1      21.628  -7.878  39.037  1.00  0.00    -0.043 A 
HETATM   27  C11 UNK     1      20.686  -4.513  37.527  1.00  0.00     0.030 A 
HETATM   28  C17 UNK     1      21.038  -9.077  39.148  1.00  0.00     0.090 A 
HETATM   29  C18 UNK     1      22.999  -7.633  39.592  1.00  0.00     0.049 C 
HETATM   30  C21 UNK     1      19.694  -9.363  38.619  1.00  0.00     0.288 A 
HETATM   31  O2  UNK     1      19.186 -10.472  38.739  1.00  0.00    -0.260 OA
ENDBRANCH  18  20
ENDBRANCH   2  18
TORSDOF 6
ENDMDL
MODEL 6
REMARK VINA RESULT:      -8.8      5.238      7.603
REMARK  6 active torsions:
REMARK  status: ('A' for Active; 'I' for Inactive)
REMARK    1  A    between atoms: C5_11  and  N1_4 
REMARK    2  A    between atoms: C6_12  and  N2_5 
REMARK    3  A    between atoms: C6_12  and  N3_6 
REMARK    4  A    between atoms: C8_14  and  N3_6 
REMARK    5  A    between atoms: C5_11  and  C7_13 
REMARK    6  A    between atoms: C15_21  and  C9_15 
ROOT
HETATM    1  S1  UNK     1      19.422  -6.183  36.532  1.00  0.00    -0.041 SA
HETATM    2  C6  UNK     1      20.715  -5.454  37.316  1.00  0.00     0.174 C 
ENDROOT
BRANCH   2   3
HETATM    3  N2  UNK     1      21.577  -6.206  38.042  1.00  0.00    -0.355 N 
HETATM    4  C3  UNK     1      22.541  -5.605  38.952  1.00  0.00     0.155 C 
HETATM    5  C1  UNK     1      23.915  -6.256  38.800  1.00  0.00     0.292 C 
HETATM    6  N1  UNK     1      23.818  -7.719  38.928  1.00  0.00     0.095 N 
HETATM    7  C2  UNK     1      22.907  -8.269  37.911  1.00  0.00     0.292 C 
HETATM    8  C4  UNK     1      21.512  -7.661  38.045  1.00  0.00     0.155 C 
BRANCH   6   9
HETATM    9  C5  UNK     1      25.142  -8.332  38.817  1.00  0.00     0.300 C 
BRANCH   9  10
HETATM   10  C7  UNK     1      26.216  -7.296  38.674  1.00  0.00     0.004 C 
HETATM   11  C9  UNK     1      27.517  -7.548  38.894  1.00  0.00     0.009 C 
BRANCH  11  12
HETATM   12  C15 UNK     1      28.608  -6.570  38.751  1.00  0.00    -0.036 A 
HETATM   13  C19 UNK     1      28.336  -5.220  38.906  1.00  0.00     0.011 A 
HETATM   14  C22 UNK     1      29.371  -4.294  38.772  1.00  0.00     0.001 A 
HETATM   15  C24 UNK     1      30.665  -4.730  38.486  1.00  0.00     0.000 A 
HETATM   16  C23 UNK     1      30.923  -6.092  38.333  1.00  0.00     0.001 A 
HETATM   17  C20 UNK     1      29.888  -7.018  38.466  1.00  0.00     0.011 A 
ENDBRANCH  11  12
ENDBRANCH   9  10
ENDBRANCH   6   9
ENDBRANCH   2   3
BRANCH   2  18
HETATM   18  N3  UNK     1      20.933  -4.109  37.174  1.00  0.00    -0.333 N 
HETATM   19  H12 UNK     1      21.899  -3.816  37.303  1.00  0.00     0.168 HD
BRANCH  18  20
HETATM   20  C8  UNK     1      20.048  -3.048  36.859  1.00  0.00     0.036 A 
HETATM   21  C10 UNK     1      20.086  -2.489  35.597  1.00  0.00     0.067 A 
HETATM   22  C13 UNK     1      19.205  -1.445  35.308  1.00  0.00     0.092 A 
HETATM   23  C12 UNK     1      18.296  -0.954  36.246  1.00  0.00     0.004 A 
HETATM   24  O1  UNK     1      19.276  -0.902  34.009  1.00  0.00    -0.275 OA
HETATM   25  C14 UNK     1      18.288  -1.547  37.515  1.00  0.00     0.017 A 
HETATM   26  C16 UNK     1      17.405   0.148  35.854  1.00  0.00    -0.043 A 
HETATM   27  C11 UNK     1      19.164  -2.595  37.821  1.00  0.00     0.030 A 
HETATM   28  C17 UNK     1      17.495   0.644  34.612  1.00  0.00     0.090 A 
HETATM   29  C18 UNK     1      16.418   0.697  36.840  1.00  0.00     0.049 C 
HETATM   30  C21 UNK     1      18.449   0.136  33.611  1.00  0.00     0.288 A 
HETATM   31  O2  UNK     1      18.502   0.615  32.484  1.00  0.00    -0.260 OA
ENDBRANCH  18  20
ENDBRANCH   2  18
TORSDOF 6
ENDMDL
MODEL 7
REMARK VINA RESULT:      -8.7      6.277     12.610
REMARK  6 active torsions:
REMARK  status: ('A' for Active; 'I' for Inactive)
REMARK    1  A    between atoms: C5_11  and  N1_4 
REMARK    2  A    between atoms: C6_12  and  N2_5 
REMARK    3  A    between atoms: C6_12  and  N3_6 
REMARK    4  A    between atoms: C8_14  and  N3_6 
REMARK    5  A    between atoms: C5_11  and  C7_13 
REMARK    6  A    between atoms: C15_21  and  C9_15 
ROOT
HETATM    1  S1  UNK     1      19.646   5.887  31.819  1.00  0.00    -0.041 SA
HETATM    2  C6  UNK     1      18.052   5.463  32.126  1.00  0.00     0.174 C 
ENDROOT
BRANCH   2   3
HETATM    3  N2  UNK     1      17.255   6.297  32.838  1.00  0.00    -0.355 N 
HETATM    4  C3  UNK     1      16.051   6.882  32.267  1.00  0.00     0.155 C 
HETATM    5  C1  UNK     1      15.950   8.367  32.611  1.00  0.00     0.292 C 
HETATM    6  N1  UNK     1      16.074   8.577  34.063  1.00  0.00     0.095 N 
HETATM    7  C2  UNK     1      17.359   8.054  34.554  1.00  0.00     0.292 C 
HETATM    8  C4  UNK     1      17.490   6.562  34.250  1.00  0.00     0.155 C 
BRANCH   6   9
HETATM    9  C5  UNK     1      15.940   9.997  34.388  1.00  0.00     0.300 C 
BRANCH   9  10
HETATM   10  C7  UNK     1      14.782  10.243  35.309  1.00  0.00     0.004 C 
HETATM   11  C9  UNK     1      14.582  11.408  35.947  1.00  0.00     0.009 C 
BRANCH  11  12
HETATM   12  C15 UNK     1      13.454  11.701  36.847  1.00  0.00    -0.036 A 
HETATM   13  C19 UNK     1      12.359  12.396  36.360  1.00  0.00     0.011 A 
HETATM   14  C22 UNK     1      11.289  12.672  37.212  1.00  0.00     0.001 A 
HETATM   15  C24 UNK     1      11.330  12.249  38.541  1.00  0.00     0.000 A 
HETATM   16  C23 UNK     1      12.439  11.551  39.017  1.00  0.00     0.001 A 
HETATM   17  C20 UNK     1      13.509  11.275  38.165  1.00  0.00     0.011 A 
ENDBRANCH  11  12
ENDBRANCH   9  10
ENDBRANCH   6   9
ENDBRANCH   2   3
BRANCH   2  18
HETATM   18  N3  UNK     1      17.538   4.304  31.607  1.00  0.00    -0.333 N 
HETATM   19  H12 UNK     1      16.533   4.316  31.445  1.00  0.00     0.168 HD
BRANCH  18  20
HETATM   20  C8  UNK     1      18.165   3.090  31.235  1.00  0.00     0.036 A 
HETATM   21  C10 UNK     1      18.371   2.115  32.190  1.00  0.00     0.067 A 
HETATM   22  C13 UNK     1      18.990   0.926  31.801  1.00  0.00     0.092 A 
HETATM   23  C12 UNK     1      19.404   0.694  30.488  1.00  0.00     0.004 A 
HETATM   24  O1  UNK     1      19.181  -0.044  32.807  1.00  0.00    -0.275 OA
HETATM   25  C14 UNK     1      19.179   1.708  29.548  1.00  0.00     0.017 A 
HETATM   26  C16 UNK     1      20.048  -0.588  30.169  1.00  0.00    -0.043 A 
HETATM   27  C11 UNK     1      18.559   2.905  29.922  1.00  0.00     0.030 A 
HETATM   28  C17 UNK     1      20.217  -1.491  31.145  1.00  0.00     0.090 A 
HETATM   29  C18 UNK     1      20.505  -0.866  28.767  1.00  0.00     0.049 C 
HETATM   30  C21 UNK     1      19.785  -1.262  32.535  1.00  0.00     0.288 A 
HETATM   31  O2  UNK     1      19.955  -2.111  33.401  1.00  0.00    -0.260 OA
ENDBRANCH  18  20
ENDBRANCH   2  18
TORSDOF 6
ENDMDL
MODEL 8
REMARK VINA RESULT:      -8.7     10.215     12.829
REMARK  6 active torsions:
REMARK  status: ('A' for Active; 'I' for Inactive)
REMARK    1  A    between atoms: C5_11  and  N1_4 
REMARK    2  A    between atoms: C6_12  and  N2_5 
REMARK    3  A    between atoms: C6_12  and  N3_6 
REMARK    4  A    between atoms: C8_14  and  N3_6 
REMARK    5  A    between atoms: C5_11  and  C7_13 
REMARK    6  A    between atoms: C15_21  and  C9_15 
ROOT
HETATM    1  S1  UNK     1      27.079 -10.027  39.864  1.00  0.00    -0.041 SA
HETATM    2  C6  UNK     1      27.032  -8.488  39.198  1.00  0.00     0.174 C 
ENDROOT
BRANCH   2   3
HETATM    3  N2  UNK     1      28.129  -7.983  38.582  1.00  0.00    -0.355 N 
HETATM    4  C3  UNK     1      28.555  -6.605  38.780  1.00  0.00     0.155 C 
HETATM    5  C1  UNK     1      28.935  -5.955  37.451  1.00  0.00     0.292 C 
HETATM    6  N1  UNK     1      29.920  -6.777  36.730  1.00  0.00     0.095 N 
HETATM    7  C2  UNK     1      29.384  -8.123  36.473  1.00  0.00     0.292 C 
HETATM    8  C4  UNK     1      29.012  -8.819  37.782  1.00  0.00     0.155 C 
BRANCH   6   9
HETATM    9  C5  UNK     1      30.307  -6.131  35.476  1.00  0.00     0.300 C 
BRANCH   9  10
HETATM   10  C7  UNK     1      29.782  -6.879  34.287  1.00  0.00     0.004 C 
HETATM   11  C9  UNK     1      28.863  -6.377  33.446  1.00  0.00     0.009 C 
BRANCH  11  12
HETATM   12  C15 UNK     1      28.330  -7.066  32.260  1.00  0.00    -0.036 A 
HETATM   13  C19 UNK     1      28.899  -8.262  31.855  1.00  0.00     0.011 A 
HETATM   14  C22 UNK     1      28.392  -8.916  30.732  1.00  0.00     0.001 A 
HETATM   15  C24 UNK     1      27.322  -8.364  30.027  1.00  0.00     0.000 A 
HETATM   16  C23 UNK     1      26.759  -7.159  30.447  1.00  0.00     0.001 A 
HETATM   17  C20 UNK     1      27.266  -6.505  31.570  1.00  0.00     0.011 A 
ENDBRANCH  11  12
ENDBRANCH   9  10
ENDBRANCH   6   9
ENDBRANCH   2   3
BRANCH   2  18
HETATM   18  N3  UNK     1      25.868  -7.765  39.222  1.00  0.00    -0.333 N 
HETATM   19  H12 UNK     1      25.949  -6.838  39.637  1.00  0.00     0.168 HD
BRANCH  18  20
HETATM   20  C8  UNK     1      24.568  -8.073  38.753  1.00  0.00     0.036 A 
HETATM   21  C10 UNK     1      24.422  -8.726  37.546  1.00  0.00     0.067 A 
HETATM   22  C13 UNK     1      23.131  -9.020  37.102  1.00  0.00     0.092 A 
HETATM   23  C12 UNK     1      21.994  -8.677  37.835  1.00  0.00     0.004 A 
HETATM   24  O1  UNK     1      23.027  -9.687  35.865  1.00  0.00    -0.275 OA
HETATM   25  C14 UNK     1      22.183  -8.015  39.056  1.00  0.00     0.017 A 
HETATM   26  C16 UNK     1      20.674  -9.027  37.292  1.00  0.00    -0.043 A 
HETATM   27  C11 UNK     1      23.470  -7.714  39.514  1.00  0.00     0.030 A 
HETATM   28  C17 UNK     1      20.605  -9.662  36.112  1.00  0.00     0.090 A 
HETATM   29  C18 UNK     1      19.433  -8.672  38.055  1.00  0.00     0.049 C 
HETATM   30  C21 UNK     1      21.796 -10.030  35.328  1.00  0.00     0.288 A 
HETATM   31  O2  UNK     1      21.694 -10.611  34.253  1.00  0.00    -0.260 OA
ENDBRANCH  18  20
ENDBRANCH   2  18
TORSDOF 6
ENDMDL
MODEL 9
REMARK VINA RESULT:      -8.7     13.355     15.784
REMARK  6 active torsions:
REMARK  status: ('A' for Active; 'I' for Inactive)
REMARK    1  A    between atoms: C5_11  and  N1_4 
REMARK    2  A    between atoms: C6_12  and  N2_5 
REMARK    3  A    between atoms: C6_12  and  N3_6 
REMARK    4  A    between atoms: C8_14  and  N3_6 
REMARK    5  A    between atoms: C5_11  and  C7_13 
REMARK    6  A    between atoms: C15_21  and  C9_15 
ROOT
HETATM    1  S1  UNK     1      35.117  -5.789  36.641  1.00  0.00    -0.041 SA
HETATM    2  C6  UNK     1      33.927  -6.822  36.065  1.00  0.00     0.174 C 
ENDROOT
BRANCH   2   3
HETATM    3  N2  UNK     1      32.672  -6.760  36.575  1.00  0.00    -0.355 N 
HETATM    4  C3  UNK     1      31.963  -7.952  37.016  1.00  0.00     0.155 C 
HETATM    5  C1  UNK     1      30.517  -7.941  36.524  1.00  0.00     0.292 C 
HETATM    6  N1  UNK     1      29.847  -6.685  36.898  1.00  0.00     0.095 N 
HETATM    7  C2  UNK     1      30.559  -5.528  36.332  1.00  0.00     0.292 C 
HETATM    8  C4  UNK     1      32.007  -5.489  36.820  1.00  0.00     0.155 C 
BRANCH   6   9
HETATM    9  C5  UNK     1      28.453  -6.697  36.454  1.00  0.00     0.300 C 
BRANCH   9  10
HETATM   10  C7  UNK     1      28.310  -7.338  35.107  1.00  0.00     0.004 C 
HETATM   11  C9  UNK     1      28.162  -6.640  33.970  1.00  0.00     0.009 C 
BRANCH  11  12
HETATM   12  C15 UNK     1      28.034  -7.223  32.624  1.00  0.00    -0.036 A 
HETATM   13  C19 UNK     1      28.609  -8.456  32.360  1.00  0.00     0.011 A 
HETATM   14  C22 UNK     1      28.486  -9.009  31.085  1.00  0.00     0.001 A 
HETATM   15  C24 UNK     1      27.789  -8.321  30.090  1.00  0.00     0.000 A 
HETATM   16  C23 UNK     1      27.217  -7.081  30.371  1.00  0.00     0.001 A 
HETATM   17  C20 UNK     1      27.340  -6.528  31.646  1.00  0.00     0.011 A 
ENDBRANCH  11  12
ENDBRANCH   9  10
ENDBRANCH   6   9
ENDBRANCH   2   3
BRANCH   2  18
HETATM   18  N3  UNK     1      34.206  -7.687  35.039  1.00  0.00    -0.333 N 
HETATM   19  H12 UNK     1      34.764  -8.497  35.302  1.00  0.00     0.168 HD
BRANCH  18  20
HETATM   20  C8  UNK     1      33.837  -7.664  33.672  1.00  0.00     0.036 A 
HETATM   21  C10 UNK     1      34.822  -7.686  32.705  1.00  0.00     0.067 A 
HETATM   22  C13 UNK     1      34.435  -7.662  31.364  1.00  0.00     0.092 A 
HETATM   23  C12 UNK     1      33.096  -7.618  30.974  1.00  0.00     0.004 A 
HETATM   24  O1  UNK     1      35.472  -7.686  30.409  1.00  0.00    -0.275 OA
HETATM   25  C14 UNK     1      32.125  -7.597  31.985  1.00  0.00     0.017 A 
HETATM   26  C16 UNK     1      32.781  -7.597  29.538  1.00  0.00    -0.043 A 
HETATM   27  C11 UNK     1      32.497  -7.620  33.333  1.00  0.00     0.030 A 
HETATM   28  C17 UNK     1      33.787  -7.620  28.653  1.00  0.00     0.090 A 
HETATM   29  C18 UNK     1      31.351  -7.549  29.087  1.00  0.00     0.049 C 
HETATM   30  C21 UNK     1      35.205  -7.667  29.049  1.00  0.00     0.288 A 
HETATM   31  O2  UNK     1      36.098  -7.688  28.210  1.00  0.00    -0.260 OA
ENDBRANCH  18  20
ENDBRANCH   2  18
TORSDOF 6
ENDMDL
MODEL 10
REMARK VINA RESULT:      -8.7      6.793     11.937
REMARK  6 active torsions:
REMARK  status: ('A' for Active; 'I' for Inactive)
REMARK    1  A    between atoms: C5_11  and  N1_4 
REMARK    2  A    between atoms: C6_12  and  N2_5 
REMARK    3  A    between atoms: C6_12  and  N3_6 
REMARK    4  A    between atoms: C8_14  and  N3_6 
REMARK    5  A    between atoms: C5_11  and  C7_13 
REMARK    6  A    between atoms: C15_21  and  C9_15 
ROOT
HETATM    1  S1  UNK     1      22.579  -9.768  36.082  1.00  0.00    -0.041 SA
HETATM    2  C6  UNK     1      22.810  -8.694  37.350  1.00  0.00     0.174 C 
ENDROOT
BRANCH   2   3
HETATM    3  N2  UNK     1      21.904  -7.712  37.580  1.00  0.00    -0.355 N 
HETATM    4  C3  UNK     1      20.741  -7.527  36.726  1.00  0.00     0.155 C 
HETATM    5  C1  UNK     1      20.534  -6.049  36.399  1.00  0.00     0.292 C 
HETATM    6  N1  UNK     1      20.495  -5.241  37.629  1.00  0.00     0.095 N 
HETATM    7  C2  UNK     1      21.745  -5.397  38.391  1.00  0.00     0.292 C 
HETATM    8  C4  UNK     1      21.977  -6.862  38.759  1.00  0.00     0.155 C 
BRANCH   6   9
HETATM    9  C5  UNK     1      20.261  -3.833  37.311  1.00  0.00     0.300 C 
BRANCH   9  10
HETATM   10  C7  UNK     1      20.126  -3.619  35.833  1.00  0.00     0.004 C 
HETATM   11  C9  UNK     1      20.168  -2.407  35.256  1.00  0.00     0.009 C 
BRANCH  11  12
HETATM   12  C15 UNK     1      20.056  -2.148  33.811  1.00  0.00    -0.036 A 
HETATM   13  C19 UNK     1      20.936  -2.769  32.940  1.00  0.00     0.011 A 
HETATM   14  C22 UNK     1      20.828  -2.525  31.570  1.00  0.00     0.001 A 
HETATM   15  C24 UNK     1      19.842  -1.663  31.090  1.00  0.00     0.000 A 
HETATM   16  C23 UNK     1      18.964  -1.046  31.980  1.00  0.00     0.001 A 
HETATM   17  C20 UNK     1      19.071  -1.289  33.350  1.00  0.00     0.011 A 
ENDBRANCH  11  12
ENDBRANCH   9  10
ENDBRANCH   6   9
ENDBRANCH   2   3
BRANCH   2  18
HETATM   18  N3  UNK     1      23.882  -8.845  38.190  1.00  0.00    -0.333 N 
HETATM   19  H12 UNK     1      23.673  -9.308  39.073  1.00  0.00     0.168 HD
BRANCH  18  20
HETATM   20  C8  UNK     1      25.244  -8.487  38.039  1.00  0.00     0.036 A 
HETATM   21  C10 UNK     1      25.714  -7.342  38.650  1.00  0.00     0.067 A 
HETATM   22  C13 UNK     1      27.060  -7.008  38.488  1.00  0.00     0.092 A 
HETATM   23  C12 UNK     1      27.938  -7.789  37.735  1.00  0.00     0.004 A 
HETATM   24  O1  UNK     1      27.498  -5.831  39.129  1.00  0.00    -0.275 OA
HETATM   25  C14 UNK     1      27.423  -8.944  37.130  1.00  0.00     0.017 A 
HETATM   26  C16 UNK     1      29.339  -7.361  37.619  1.00  0.00    -0.043 A 
HETATM   27  C11 UNK     1      26.077  -9.292  37.283  1.00  0.00     0.030 A 
HETATM   28  C17 UNK     1      29.727  -6.237  38.239  1.00  0.00     0.090 A 
HETATM   29  C18 UNK     1      30.306  -8.179  36.817  1.00  0.00     0.049 C 
HETATM   30  C21 UNK     1      28.813  -5.403  39.037  1.00  0.00     0.288 A 
HETATM   31  O2  UNK     1      29.205  -4.382  39.590  1.00  0.00    -0.260 OA
ENDBRANCH  18  20
ENDBRANCH   2  18
TORSDOF 6
ENDMDL
