MODEL 1
REMARK VINA RESULT:      -8.1      0.000      0.000
REMARK  6 active torsions:
REMARK  status: ('A' for Active; 'I' for Inactive)
REMARK    1  A    between atoms: C12_15  and  O2_2 
REMARK    2  A    between atoms: C15_18  and  O2_2 
REMARK    3  A    between atoms: C1_4  and  C2_5 
REMARK    4  A    between atoms: C1_4  and  C3_6 
REMARK    5  A    between atoms: C3_6  and  C6_9 
REMARK    6  A    between atoms: C15_18  and  C16_19 
ROOT
HETATM    1  O1  UNK     1      16.194   8.393  33.021  1.00  0.00    -0.274 OA
HETATM    2  O3  UNK     1      15.513  10.492  33.552  1.00  0.00    -0.259 OA
HETATM    3  C2  UNK     1      17.799   9.981  33.991  1.00  0.00     0.024 A 
HETATM    4  C4  UNK     1      18.776   9.052  33.975  1.00  0.00    -0.037 A 
HETATM    5  C5  UNK     1      18.494   7.711  33.423  1.00  0.00     0.005 A 
HETATM    6  C7  UNK     1      17.210   7.427  32.966  1.00  0.00     0.092 A 
HETATM    7  C8  UNK     1      16.422   9.667  33.512  1.00  0.00     0.295 A 
HETATM    8  C9  UNK     1      20.167   9.290  34.510  1.00  0.00     0.050 C 
HETATM    9  C10 UNK     1      19.451   6.688  33.316  1.00  0.00     0.017 A 
HETATM   10  C11 UNK     1      16.859   6.185  32.430  1.00  0.00     0.075 A 
HETATM   11  C12 UNK     1      17.821   5.187  32.340  1.00  0.00     0.071 A 
HETATM   12  C14 UNK     1      19.118   5.438  32.781  1.00  0.00     0.038 A 
ENDROOT
BRANCH  11  13
HETATM   13  O2  UNK     1      17.500   3.972  31.821  1.00  0.00    -0.347 OA
BRANCH  13  14
HETATM   14  C15 UNK     1      18.368   2.881  32.130  1.00  0.00     0.214 C 
BRANCH  14  15
HETATM   15  C16 UNK     1      18.588   2.064  30.891  1.00  0.00    -0.034 A 
HETATM   16  C17 UNK     1      17.928   2.403  29.716  1.00  0.00     0.009 A 
HETATM   17  C19 UNK     1      18.132   1.643  28.564  1.00  0.00     0.001 A 
HETATM   18  C21 UNK     1      18.997   0.549  28.596  1.00  0.00     0.000 A 
HETATM   19  C20 UNK     1      19.657   0.215  29.778  1.00  0.00     0.001 A 
HETATM   20  C18 UNK     1      19.451   0.974  30.930  1.00  0.00     0.009 A 
ENDBRANCH  14  15
ENDBRANCH  13  14
ENDBRANCH  11  13
BRANCH   3  21
HETATM   21  C1  UNK     1      17.968  11.402  34.465  1.00  0.00     0.045 C 
BRANCH  21  22
HETATM   22  C3  UNK     1      18.689  12.251  33.425  1.00  0.00     0.004 C 
BRANCH  22  23
HETATM   23  C6  UNK     1      18.206  13.701  33.482  1.00  0.00    -0.004 C 
HETATM   24  C13 UNK     1      18.865  14.550  32.406  1.00  0.00     0.005 C 
ENDBRANCH  22  23
ENDBRANCH  21  22
ENDBRANCH   3  21
TORSDOF 6
ENDMDL
MODEL 2
REMARK VINA RESULT:      -8.0      2.267      8.712
REMARK  6 active torsions:
REMARK  status: ('A' for Active; 'I' for Inactive)
REMARK    1  A    between atoms: C12_15  and  O2_2 
REMARK    2  A    between atoms: C15_18  and  O2_2 
REMARK    3  A    between atoms: C1_4  and  C2_5 
REMARK    4  A    between atoms: C1_4  and  C3_6 
REMARK    5  A    between atoms: C3_6  and  C6_9 
REMARK    6  A    between atoms: C15_18  and  C16_19 
ROOT
HETATM    1  O1  UNK     1      18.128   3.063  33.496  1.00  0.00    -0.274 OA
HETATM    2  O3  UNK     1      18.134   0.832  33.082  1.00  0.00    -0.259 OA
HETATM    3  C2  UNK     1      18.554   2.253  31.216  1.00  0.00     0.024 A 
HETATM    4  C4  UNK     1      18.653   3.516  30.752  1.00  0.00    -0.037 A 
HETATM    5  C5  UNK     1      18.524   4.647  31.693  1.00  0.00     0.005 A 
HETATM    6  C7  UNK     1      18.263   4.381  33.034  1.00  0.00     0.092 A 
HETATM    7  C8  UNK     1      18.262   1.974  32.651  1.00  0.00     0.295 A 
HETATM    8  C9  UNK     1      18.878   3.859  29.300  1.00  0.00     0.050 C 
HETATM    9  C10 UNK     1      18.658   5.995  31.324  1.00  0.00     0.017 A 
HETATM   10  C11 UNK     1      18.126   5.392  33.989  1.00  0.00     0.075 A 
HETATM   11  C12 UNK     1      18.257   6.719  33.599  1.00  0.00     0.071 A 
HETATM   12  C14 UNK     1      18.524   7.021  32.267  1.00  0.00     0.038 A 
ENDROOT
BRANCH  11  13
HETATM   13  O2  UNK     1      18.127   7.717  34.514  1.00  0.00    -0.347 OA
BRANCH  13  14
HETATM   14  C15 UNK     1      16.885   7.803  35.212  1.00  0.00     0.214 C 
BRANCH  14  15
HETATM   15  C16 UNK     1      15.994   8.782  34.507  1.00  0.00    -0.034 A 
HETATM   16  C17 UNK     1      14.820   8.339  33.909  1.00  0.00     0.009 A 
HETATM   17  C19 UNK     1      13.992   9.250  33.253  1.00  0.00     0.001 A 
HETATM   18  C21 UNK     1      14.343  10.598  33.200  1.00  0.00     0.000 A 
HETATM   19  C20 UNK     1      15.521  11.037  33.804  1.00  0.00     0.001 A 
HETATM   20  C18 UNK     1      16.350  10.126  34.459  1.00  0.00     0.009 A 
ENDBRANCH  14  15
ENDBRANCH  13  14
ENDBRANCH  11  13
BRANCH   3  21
HETATM   21  C1  UNK     1      18.730   1.011  30.379  1.00  0.00     0.045 C 
BRANCH  21  22
HETATM   22  C3  UNK     1      20.158   0.488  30.456  1.00  0.00     0.004 C 
BRANCH  22  23
HETATM   23  C6  UNK     1      20.494  -0.353  29.224  1.00  0.00    -0.004 C 
HETATM   24  C13 UNK     1      19.332  -0.396  28.244  1.00  0.00     0.005 C 
ENDBRANCH  22  23
ENDBRANCH  21  22
ENDBRANCH   3  21
TORSDOF 6
ENDMDL
MODEL 3
REMARK VINA RESULT:      -8.0      3.286      9.062
REMARK  6 active torsions:
REMARK  status: ('A' for Active; 'I' for Inactive)
REMARK    1  A    between atoms: C12_15  and  O2_2 
REMARK    2  A    between atoms: C15_18  and  O2_2 
REMARK    3  A    between atoms: C1_4  and  C2_5 
REMARK    4  A    between atoms: C1_4  and  C3_6 
REMARK    5  A    between atoms: C3_6  and  C6_9 
REMARK    6  A    between atoms: C15_18  and  C16_19 
ROOT
HETATM    1  O1  UNK     1      17.740   2.206  33.921  1.00  0.00    -0.274 OA
HETATM    2  O3  UNK     1      17.297   1.189  35.901  1.00  0.00    -0.259 OA
HETATM    3  C2  UNK     1      18.267  -0.177  34.207  1.00  0.00     0.024 A 
HETATM    4  C4  UNK     1      18.708  -0.265  32.935  1.00  0.00    -0.037 A 
HETATM    5  C5  UNK     1      18.716   0.944  32.085  1.00  0.00     0.005 A 
HETATM    6  C7  UNK     1      18.229   2.138  32.608  1.00  0.00     0.092 A 
HETATM    7  C8  UNK     1      17.734   1.102  34.758  1.00  0.00     0.295 A 
HETATM    8  C9  UNK     1      19.192  -1.546  32.303  1.00  0.00     0.050 C 
HETATM    9  C10 UNK     1      19.198   0.973  30.767  1.00  0.00     0.017 A 
HETATM   10  C11 UNK     1      18.201   3.326  31.872  1.00  0.00     0.075 A 
HETATM   11  C12 UNK     1      18.678   3.329  30.567  1.00  0.00     0.071 A 
HETATM   12  C14 UNK     1      19.178   2.153  30.014  1.00  0.00     0.038 A 
ENDROOT
BRANCH  11  13
HETATM   13  O2  UNK     1      18.659   4.474  29.834  1.00  0.00    -0.347 OA
BRANCH  13  14
HETATM   14  C15 UNK     1      19.696   5.423  30.082  1.00  0.00     0.214 C 
BRANCH  14  15
HETATM   15  C16 UNK     1      19.338   6.237  31.290  1.00  0.00    -0.034 A 
HETATM   16  C17 UNK     1      20.247   6.357  32.334  1.00  0.00     0.009 A 
HETATM   17  C19 UNK     1      19.913   7.113  33.458  1.00  0.00     0.001 A 
HETATM   18  C21 UNK     1      18.672   7.745  33.529  1.00  0.00     0.000 A 
HETATM   19  C20 UNK     1      17.765   7.622  32.476  1.00  0.00     0.001 A 
HETATM   20  C18 UNK     1      18.098   6.865  31.354  1.00  0.00     0.009 A 
ENDBRANCH  14  15
ENDBRANCH  13  14
ENDBRANCH  11  13
BRANCH   3  21
HETATM   21  C1  UNK     1      18.264  -1.313  35.199  1.00  0.00     0.045 C 
BRANCH  21  22
HETATM   22  C3  UNK     1      19.614  -1.445  35.893  1.00  0.00     0.004 C 
BRANCH  22  23
HETATM   23  C6  UNK     1      20.104  -2.893  35.854  1.00  0.00    -0.004 C 
HETATM   24  C13 UNK     1      20.306  -3.452  37.253  1.00  0.00     0.005 C 
ENDBRANCH  22  23
ENDBRANCH  21  22
ENDBRANCH   3  21
TORSDOF 6
ENDMDL
MODEL 4
REMARK VINA RESULT:      -7.9     16.076     18.354
REMARK  6 active torsions:
REMARK  status: ('A' for Active; 'I' for Inactive)
REMARK    1  A    between atoms: C12_15  and  O2_2 
REMARK    2  A    between atoms: C15_18  and  O2_2 
REMARK    3  A    between atoms: C1_4  and  C2_5 
REMARK    4  A    between atoms: C1_4  and  C3_6 
REMARK    5  A    between atoms: C3_6  and  C6_9 
REMARK    6  A    between atoms: C15_18  and  C16_19 
ROOT
HETATM    1  O1  UNK     1      28.185  -5.003  39.155  1.00  0.00    -0.274 OA
HETATM    2  O3  UNK     1      29.913  -3.568  39.481  1.00  0.00    -0.259 OA
HETATM    3  C2  UNK     1      30.476  -5.725  38.638  1.00  0.00     0.024 A 
HETATM    4  C4  UNK     1      30.042  -6.952  38.281  1.00  0.00    -0.037 A 
HETATM    5  C5  UNK     1      28.595  -7.248  38.315  1.00  0.00     0.005 A 
HETATM    6  C7  UNK     1      27.716  -6.263  38.753  1.00  0.00     0.092 A 
HETATM    7  C8  UNK     1      29.530  -4.678  39.119  1.00  0.00     0.295 A 
HETATM    8  C9  UNK     1      30.958  -8.072  37.853  1.00  0.00     0.050 C 
HETATM    9  C10 UNK     1      28.036  -8.474  37.919  1.00  0.00     0.017 A 
HETATM   10  C11 UNK     1      26.334  -6.461  38.817  1.00  0.00     0.075 A 
HETATM   11  C12 UNK     1      25.804  -7.684  38.426  1.00  0.00     0.071 A 
HETATM   12  C14 UNK     1      26.653  -8.691  37.975  1.00  0.00     0.038 A 
ENDROOT
BRANCH  11  13
HETATM   13  O2  UNK     1      24.461  -7.897  38.480  1.00  0.00    -0.347 OA
BRANCH  13  14
HETATM   14  C15 UNK     1      23.677  -6.933  39.182  1.00  0.00     0.214 C 
BRANCH  14  15
HETATM   15  C16 UNK     1      22.243  -7.374  39.182  1.00  0.00    -0.034 A 
HETATM   16  C17 UNK     1      21.935  -8.714  39.386  1.00  0.00     0.009 A 
HETATM   17  C19 UNK     1      20.601  -9.124  39.385  1.00  0.00     0.001 A 
HETATM   18  C21 UNK     1      19.585  -8.191  39.180  1.00  0.00     0.000 A 
HETATM   19  C20 UNK     1      19.902  -6.847  38.977  1.00  0.00     0.001 A 
HETATM   20  C18 UNK     1      21.235  -6.438  38.977  1.00  0.00     0.009 A 
ENDBRANCH  14  15
ENDBRANCH  13  14
ENDBRANCH  11  13
BRANCH   3  21
HETATM   21  C1  UNK     1      31.912  -5.270  38.588  1.00  0.00     0.045 C 
BRANCH  21  22
HETATM   22  C3  UNK     1      32.256  -4.667  37.232  1.00  0.00     0.004 C 
BRANCH  22  23
HETATM   23  C6  UNK     1      33.329  -5.497  36.526  1.00  0.00    -0.004 C 
HETATM   24  C13 UNK     1      34.308  -6.103  37.519  1.00  0.00     0.005 C 
ENDBRANCH  22  23
ENDBRANCH  21  22
ENDBRANCH   3  21
TORSDOF 6
ENDMDL
MODEL 5
REMARK VINA RESULT:      -7.9      7.754     10.741
REMARK  6 active torsions:
REMARK  status: ('A' for Active; 'I' for Inactive)
REMARK    1  A    between atoms: C12_15  and  O2_2 
REMARK    2  A    between atoms: C15_18  and  O2_2 
REMARK    3  A    between atoms: C1_4  and  C2_5 
REMARK    4  A    between atoms: C1_4  and  C3_6 
REMARK    5  A    between atoms: C3_6  and  C6_9 
REMARK    6  A    between atoms: C15_18  and  C16_19 
ROOT
HETATM    1  O1  UNK     1      19.462  -1.325  33.741  1.00  0.00    -0.274 OA
HETATM    2  O3  UNK     1      18.864   0.325  32.300  1.00  0.00    -0.259 OA
HETATM    3  C2  UNK     1      18.198   0.613  34.570  1.00  0.00     0.024 A 
HETATM    4  C4  UNK     1      18.166   0.097  35.817  1.00  0.00    -0.037 A 
HETATM    5  C5  UNK     1      18.843  -1.187  36.089  1.00  0.00     0.005 A 
HETATM    6  C7  UNK     1      19.466  -1.856  35.039  1.00  0.00     0.092 A 
HETATM    7  C8  UNK     1      18.857  -0.114  33.447  1.00  0.00     0.295 A 
HETATM    8  C9  UNK     1      17.455   0.752  36.975  1.00  0.00     0.050 C 
HETATM    9  C10 UNK     1      18.910  -1.786  37.357  1.00  0.00     0.017 A 
HETATM   10  C11 UNK     1      20.129  -3.074  35.210  1.00  0.00     0.075 A 
HETATM   11  C12 UNK     1      20.177  -3.651  36.473  1.00  0.00     0.071 A 
HETATM   12  C14 UNK     1      19.570  -3.007  37.548  1.00  0.00     0.038 A 
ENDROOT
BRANCH  11  13
HETATM   13  O2  UNK     1      20.817  -4.836  36.660  1.00  0.00    -0.347 OA
BRANCH  13  14
HETATM   14  C15 UNK     1      21.491  -5.023  37.905  1.00  0.00     0.214 C 
BRANCH  14  15
HETATM   15  C16 UNK     1      21.145  -6.377  38.451  1.00  0.00    -0.034 A 
HETATM   16  C17 UNK     1      19.855  -6.873  38.298  1.00  0.00     0.009 A 
HETATM   17  C19 UNK     1      19.534  -8.132  38.806  1.00  0.00     0.001 A 
HETATM   18  C21 UNK     1      20.504  -8.886  39.464  1.00  0.00     0.000 A 
HETATM   19  C20 UNK     1      21.797  -8.383  39.613  1.00  0.00     0.001 A 
HETATM   20  C18 UNK     1      22.118  -7.125  39.106  1.00  0.00     0.009 A 
ENDBRANCH  14  15
ENDBRANCH  13  14
ENDBRANCH  11  13
BRANCH   3  21
HETATM   21  C1  UNK     1      17.606   1.940  34.171  1.00  0.00     0.045 C 
BRANCH  21  22
HETATM   22  C3  UNK     1      18.577   3.083  34.439  1.00  0.00     0.004 C 
BRANCH  22  23
HETATM   23  C6  UNK     1      18.205   4.315  33.612  1.00  0.00    -0.004 C 
HETATM   24  C13 UNK     1      18.209   4.008  32.122  1.00  0.00     0.005 C 
ENDBRANCH  22  23
ENDBRANCH  21  22
ENDBRANCH   3  21
TORSDOF 6
ENDMDL
MODEL 6
REMARK VINA RESULT:      -7.8      2.138      9.376
REMARK  6 active torsions:
REMARK  status: ('A' for Active; 'I' for Inactive)
REMARK    1  A    between atoms: C12_15  and  O2_2 
REMARK    2  A    between atoms: C15_18  and  O2_2 
REMARK    3  A    between atoms: C1_4  and  C2_5 
REMARK    4  A    between atoms: C1_4  and  C3_6 
REMARK    5  A    between atoms: C3_6  and  C6_9 
REMARK    6  A    between atoms: C15_18  and  C16_19 
ROOT
HETATM    1  O1  UNK     1      18.030   1.975  33.137  1.00  0.00    -0.274 OA
HETATM    2  O3  UNK     1      18.110  -0.198  33.786  1.00  0.00    -0.259 OA
HETATM    3  C2  UNK     1      18.911   0.279  31.593  1.00  0.00     0.024 A 
HETATM    4  C4  UNK     1      19.109   1.208  30.635  1.00  0.00    -0.037 A 
HETATM    5  C5  UNK     1      18.795   2.623  30.921  1.00  0.00     0.005 A 
HETATM    6  C7  UNK     1      18.264   2.958  32.163  1.00  0.00     0.092 A 
HETATM    7  C8  UNK     1      18.329   0.641  32.917  1.00  0.00     0.295 A 
HETATM    8  C9  UNK     1      19.628   0.891  29.255  1.00  0.00     0.050 C 
HETATM    9  C10 UNK     1      19.008   3.674  30.014  1.00  0.00     0.017 A 
HETATM   10  C11 UNK     1      17.939   4.271  32.514  1.00  0.00     0.075 A 
HETATM   11  C12 UNK     1      18.153   5.293  31.598  1.00  0.00     0.071 A 
HETATM   12  C14 UNK     1      18.690   4.996  30.348  1.00  0.00     0.038 A 
ENDROOT
BRANCH  11  13
HETATM   13  O2  UNK     1      17.844   6.577  31.921  1.00  0.00    -0.347 OA
BRANCH  13  14
HETATM   14  C15 UNK     1      17.580   6.858  33.296  1.00  0.00     0.214 C 
BRANCH  14  15
HETATM   15  C16 UNK     1      18.302   8.114  33.686  1.00  0.00    -0.034 A 
HETATM   16  C17 UNK     1      19.627   8.046  34.099  1.00  0.00     0.009 A 
HETATM   17  C19 UNK     1      20.298   9.214  34.463  1.00  0.00     0.001 A 
HETATM   18  C21 UNK     1      19.638  10.442  34.412  1.00  0.00     0.000 A 
HETATM   19  C20 UNK     1      18.308  10.502  33.995  1.00  0.00     0.001 A 
HETATM   20  C18 UNK     1      17.638   9.334  33.632  1.00  0.00     0.009 A 
ENDBRANCH  14  15
ENDBRANCH  13  14
ENDBRANCH  11  13
BRANCH   3  21
HETATM   21  C1  UNK     1      19.248  -1.184  31.456  1.00  0.00     0.045 C 
BRANCH  21  22
HETATM   22  C3  UNK     1      20.733  -1.435  31.685  1.00  0.00     0.004 C 
BRANCH  22  23
HETATM   23  C6  UNK     1      20.950  -2.739  32.454  1.00  0.00    -0.004 C 
HETATM   24  C13 UNK     1      20.470  -2.624  33.892  1.00  0.00     0.005 C 
ENDBRANCH  22  23
ENDBRANCH  21  22
ENDBRANCH   3  21
TORSDOF 6
ENDMDL
MODEL 7
REMARK VINA RESULT:      -7.7      9.590     15.163
REMARK  6 active torsions:
REMARK  status: ('A' for Active; 'I' for Inactive)
REMARK    1  A    between atoms: C12_15  and  O2_2 
REMARK    2  A    between atoms: C15_18  and  O2_2 
REMARK    3  A    between atoms: C1_4  and  C2_5 
REMARK    4  A    between atoms: C1_4  and  C3_6 
REMARK    5  A    between atoms: C3_6  and  C6_9 
REMARK    6  A    between atoms: C15_18  and  C16_19 
ROOT
HETATM    1  O1  UNK     1      18.633  -6.581  36.004  1.00  0.00    -0.274 OA
HETATM    2  O3  UNK     1      17.671  -8.635  35.920  1.00  0.00    -0.259 OA
HETATM    3  C2  UNK     1      19.339  -8.319  37.592  1.00  0.00     0.024 A 
HETATM    4  C4  UNK     1      20.251  -7.490  38.142  1.00  0.00    -0.037 A 
HETATM    5  C5  UNK     1      20.364  -6.103  37.644  1.00  0.00     0.005 A 
HETATM    6  C7  UNK     1      19.552  -5.698  36.590  1.00  0.00     0.092 A 
HETATM    7  C8  UNK     1      18.480  -7.882  36.454  1.00  0.00     0.295 A 
HETATM    8  C9  UNK     1      21.193  -7.897  39.247  1.00  0.00     0.050 C 
HETATM    9  C10 UNK     1      21.244  -5.148  38.177  1.00  0.00     0.017 A 
HETATM   10  C11 UNK     1      19.596  -4.405  36.059  1.00  0.00     0.075 A 
HETATM   11  C12 UNK     1      20.479  -3.479  36.599  1.00  0.00     0.071 A 
HETATM   12  C14 UNK     1      21.302  -3.848  37.659  1.00  0.00     0.038 A 
ENDROOT
BRANCH  11  13
HETATM   13  O2  UNK     1      20.537  -2.216  36.097  1.00  0.00    -0.347 OA
BRANCH  13  14
HETATM   14  C15 UNK     1      19.412  -1.761  35.345  1.00  0.00     0.214 C 
BRANCH  14  15
HETATM   15  C16 UNK     1      18.767  -0.618  36.072  1.00  0.00    -0.034 A 
HETATM   16  C17 UNK     1      18.833   0.663  35.537  1.00  0.00     0.009 A 
HETATM   17  C19 UNK     1      18.234   1.726  36.213  1.00  0.00     0.001 A 
HETATM   18  C21 UNK     1      17.573   1.500  37.421  1.00  0.00     0.000 A 
HETATM   19  C20 UNK     1      17.511   0.212  37.951  1.00  0.00     0.001 A 
HETATM   20  C18 UNK     1      18.110  -0.850  37.276  1.00  0.00     0.009 A 
ENDBRANCH  14  15
ENDBRANCH  13  14
ENDBRANCH  11  13
BRANCH   3  21
HETATM   21  C1  UNK     1      19.075  -9.732  38.046  1.00  0.00     0.045 C 
BRANCH  21  22
HETATM   22  C3  UNK     1      19.596 -10.745  37.035  1.00  0.00     0.004 C 
BRANCH  22  23
HETATM   23  C6  UNK     1      21.122 -10.828  37.090  1.00  0.00    -0.004 C 
HETATM   24  C13 UNK     1      21.746 -10.528  35.736  1.00  0.00     0.005 C 
ENDBRANCH  22  23
ENDBRANCH  21  22
ENDBRANCH   3  21
TORSDOF 6
ENDMDL
MODEL 8
REMARK VINA RESULT:      -7.7     16.140     19.482
REMARK  6 active torsions:
REMARK  status: ('A' for Active; 'I' for Inactive)
REMARK    1  A    between atoms: C12_15  and  O2_2 
REMARK    2  A    between atoms: C15_18  and  O2_2 
REMARK    3  A    between atoms: C1_4  and  C2_5 
REMARK    4  A    between atoms: C1_4  and  C3_6 
REMARK    5  A    between atoms: C3_6  and  C6_9 
REMARK    6  A    between atoms: C15_18  and  C16_19 
ROOT
HETATM    1  O1  UNK     1      28.978  -9.695  38.480  1.00  0.00    -0.274 OA
HETATM    2  O3  UNK     1      31.067 -10.557  38.275  1.00  0.00    -0.259 OA
HETATM    3  C2  UNK     1      30.903  -8.180  38.285  1.00  0.00     0.024 A 
HETATM    4  C4  UNK     1      30.096  -7.099  38.325  1.00  0.00    -0.037 A 
HETATM    5  C5  UNK     1      28.640  -7.286  38.490  1.00  0.00     0.005 A 
HETATM    6  C7  UNK     1      28.131  -8.580  38.560  1.00  0.00     0.092 A 
HETATM    7  C8  UNK     1      30.350  -9.564  38.346  1.00  0.00     0.295 A 
HETATM    8  C9  UNK     1      30.591  -5.680  38.197  1.00  0.00     0.050 C 
HETATM    9  C10 UNK     1      27.719  -6.231  38.592  1.00  0.00     0.017 A 
HETATM   10  C11 UNK     1      26.767  -8.845  38.714  1.00  0.00     0.075 A 
HETATM   11  C12 UNK     1      25.875  -7.784  38.807  1.00  0.00     0.071 A 
HETATM   12  C14 UNK     1      26.350  -6.477  38.748  1.00  0.00     0.038 A 
ENDROOT
BRANCH  11  13
HETATM   13  O2  UNK     1      24.544  -8.021  38.958  1.00  0.00    -0.347 OA
BRANCH  13  14
HETATM   14  C15 UNK     1      23.695  -6.886  39.129  1.00  0.00     0.214 C 
BRANCH  14  15
HETATM   15  C16 UNK     1      22.268  -7.344  39.180  1.00  0.00    -0.034 A 
HETATM   16  C17 UNK     1      21.241  -6.419  39.025  1.00  0.00     0.009 A 
HETATM   17  C19 UNK     1      19.914  -6.846  39.072  1.00  0.00     0.001 A 
HETATM   18  C21 UNK     1      19.622  -8.195  39.274  1.00  0.00     0.000 A 
HETATM   19  C20 UNK     1      20.657  -9.117  39.428  1.00  0.00     0.001 A 
HETATM   20  C18 UNK     1      21.984  -8.690  39.381  1.00  0.00     0.009 A 
ENDBRANCH  14  15
ENDBRANCH  13  14
ENDBRANCH  11  13
BRANCH   3  21
HETATM   21  C1  UNK     1      32.406  -8.130  38.185  1.00  0.00     0.045 C 
BRANCH  21  22
HETATM   22  C3  UNK     1      32.871  -8.265  36.741  1.00  0.00     0.004 C 
BRANCH  22  23
HETATM   23  C6  UNK     1      33.920  -7.203  36.408  1.00  0.00    -0.004 C 
HETATM   24  C13 UNK     1      34.330  -6.418  37.645  1.00  0.00     0.005 C 
ENDBRANCH  22  23
ENDBRANCH  21  22
ENDBRANCH   3  21
TORSDOF 6
ENDMDL
MODEL 9
REMARK VINA RESULT:      -7.6      5.633      9.271
REMARK  6 active torsions:
REMARK  status: ('A' for Active; 'I' for Inactive)
REMARK    1  A    between atoms: C12_15  and  O2_2 
REMARK    2  A    between atoms: C15_18  and  O2_2 
REMARK    3  A    between atoms: C1_4  and  C2_5 
REMARK    4  A    between atoms: C1_4  and  C3_6 
REMARK    5  A    between atoms: C3_6  and  C6_9 
REMARK    6  A    between atoms: C15_18  and  C16_19 
ROOT
HETATM    1  O1  UNK     1      18.559   0.575  33.365  1.00  0.00    -0.274 OA
HETATM    2  O3  UNK     1      17.595   2.562  32.842  1.00  0.00    -0.259 OA
HETATM    3  C2  UNK     1      18.737   1.446  31.074  1.00  0.00     0.024 A 
HETATM    4  C4  UNK     1      19.484   0.387  30.697  1.00  0.00    -0.037 A 
HETATM    5  C5  UNK     1      19.776  -0.681  31.675  1.00  0.00     0.005 A 
HETATM    6  C7  UNK     1      19.304  -0.549  32.977  1.00  0.00     0.092 A 
HETATM    7  C8  UNK     1      18.246   1.588  32.475  1.00  0.00     0.295 A 
HETATM    8  C9  UNK     1      20.067   0.224  29.315  1.00  0.00     0.050 C 
HETATM    9  C10 UNK     1      20.501  -1.845  31.373  1.00  0.00     0.017 A 
HETATM   10  C11 UNK     1      19.535  -1.512  33.964  1.00  0.00     0.075 A 
HETATM   11  C12 UNK     1      20.260  -2.653  33.643  1.00  0.00     0.071 A 
HETATM   12  C14 UNK     1      20.742  -2.821  32.348  1.00  0.00     0.038 A 
ENDROOT
BRANCH  11  13
HETATM   13  O2  UNK     1      20.496  -3.602  34.588  1.00  0.00    -0.347 OA
BRANCH  13  14
HETATM   14  C15 UNK     1      20.134  -3.285  35.933  1.00  0.00     0.214 C 
BRANCH  14  15
HETATM   15  C16 UNK     1      20.090  -4.550  36.738  1.00  0.00    -0.034 A 
HETATM   16  C17 UNK     1      19.080  -5.477  36.510  1.00  0.00     0.009 A 
HETATM   17  C19 UNK     1      19.039  -6.653  37.260  1.00  0.00     0.001 A 
HETATM   18  C21 UNK     1      20.008  -6.893  38.233  1.00  0.00     0.000 A 
HETATM   19  C20 UNK     1      21.019  -5.959  38.457  1.00  0.00     0.001 A 
HETATM   20  C18 UNK     1      21.060  -4.783  37.707  1.00  0.00     0.009 A 
ENDBRANCH  14  15
ENDBRANCH  13  14
ENDBRANCH  11  13
BRANCH   3  21
HETATM   21  C1  UNK     1      18.313   2.570  30.163  1.00  0.00     0.045 C 
BRANCH  21  22
HETATM   22  C3  UNK     1      19.336   3.698  30.162  1.00  0.00     0.004 C 
BRANCH  22  23
HETATM   23  C6  UNK     1      18.741   4.970  30.766  1.00  0.00    -0.004 C 
HETATM   24  C13 UNK     1      19.811   6.019  31.024  1.00  0.00     0.005 C 
ENDBRANCH  22  23
ENDBRANCH  21  22
ENDBRANCH   3  21
TORSDOF 6
ENDMDL
MODEL 10
REMARK VINA RESULT:      -7.6     22.019     24.775
REMARK  6 active torsions:
REMARK  status: ('A' for Active; 'I' for Inactive)
REMARK    1  A    between atoms: C12_15  and  O2_2 
REMARK    2  A    between atoms: C15_18  and  O2_2 
REMARK    3  A    between atoms: C1_4  and  C2_5 
REMARK    4  A    between atoms: C1_4  and  C3_6 
REMARK    5  A    between atoms: C3_6  and  C6_9 
REMARK    6  A    between atoms: C15_18  and  C16_19 
ROOT
HETATM    1  O1  UNK     1      11.183   5.115   9.940  1.00  0.00    -0.274 OA
HETATM    2  O3  UNK     1       8.990   4.822  10.448  1.00  0.00    -0.259 OA
HETATM    3  C2  UNK     1       9.462   5.770   8.313  1.00  0.00     0.024 A 
HETATM    4  C4  UNK     1      10.401   6.215   7.452  1.00  0.00    -0.037 A 
HETATM    5  C5  UNK     1      11.829   6.086   7.806  1.00  0.00     0.005 A 
HETATM    6  C7  UNK     1      12.171   5.542   9.040  1.00  0.00     0.092 A 
HETATM    7  C8  UNK     1       9.834   5.199   9.640  1.00  0.00     0.295 A 
HETATM    8  C9  UNK     1      10.082   6.865   6.128  1.00  0.00     0.050 C 
HETATM    9  C10 UNK     1      12.885   6.473   6.964  1.00  0.00     0.017 A 
HETATM   10  C11 UNK     1      13.497   5.385   9.453  1.00  0.00     0.075 A 
HETATM   11  C12 UNK     1      14.524   5.780   8.606  1.00  0.00     0.071 A 
HETATM   12  C14 UNK     1      14.219   6.323   7.361  1.00  0.00     0.038 A 
ENDROOT
BRANCH  11  13
HETATM   13  O2  UNK     1      15.821   5.635   8.989  1.00  0.00    -0.347 OA
BRANCH  13  14
HETATM   14  C15 UNK     1      16.149   6.000  10.329  1.00  0.00     0.214 C 
BRANCH  14  15
HETATM   15  C16 UNK     1      16.197   7.496  10.432  1.00  0.00    -0.034 A 
HETATM   16  C17 UNK     1      17.173   8.203   9.739  1.00  0.00     0.009 A 
HETATM   17  C19 UNK     1      17.218   9.594   9.836  1.00  0.00     0.001 A 
HETATM   18  C21 UNK     1      16.287  10.268  10.625  1.00  0.00     0.000 A 
HETATM   19  C20 UNK     1      15.311   9.552  11.318  1.00  0.00     0.001 A 
HETATM   20  C18 UNK     1      15.266   8.162  11.222  1.00  0.00     0.009 A 
ENDBRANCH  14  15
ENDBRANCH  13  14
ENDBRANCH  11  13
BRANCH   3  21
HETATM   21  C1  UNK     1       7.977   5.782   8.050  1.00  0.00     0.045 C 
BRANCH  21  22
HETATM   22  C3  UNK     1       7.403   7.187   8.179  1.00  0.00     0.004 C 
BRANCH  22  23
HETATM   23  C6  UNK     1       6.892   7.435   9.599  1.00  0.00    -0.004 C 
HETATM   24  C13 UNK     1       7.808   8.375  10.365  1.00  0.00     0.005 C 
ENDBRANCH  22  23
ENDBRANCH  21  22
ENDBRANCH   3  21
TORSDOF 6
ENDMDL
