MODEL 1
REMARK VINA RESULT:      -9.4      0.000      0.000
REMARK  6 active torsions:
REMARK  status: ('A' for Active; 'I' for Inactive)
REMARK    1  A    between atoms: C14_19  and  O1_3 
REMARK    2  A    between atoms: C2_7  and  O1_3 
REMARK    3  A    between atoms: C1_6  and  C7_12 
REMARK    4  A    between atoms: C10_15  and  C7_12 
REMARK    5  A    between atoms: C11_16  and  C8_13 
REMARK    6  A    between atoms: C14_19  and  C9_14 
ROOT
HETATM    1  C1  UNK     1      17.177   6.520  31.510  1.00  0.00     0.014 A 
HETATM    2  C2  UNK     1      18.789   4.398  30.687  1.00  0.00     0.079 A 
HETATM    3  C3  UNK     1      17.963   6.645  30.364  1.00  0.00     0.018 A 
HETATM    4  C4  UNK     1      17.196   5.334  32.243  1.00  0.00     0.018 A 
HETATM    5  C5  UNK     1      18.768   5.584  29.952  1.00  0.00     0.038 A 
HETATM    6  C6  UNK     1      18.002   4.273  31.832  1.00  0.00     0.038 A 
ENDROOT
BRANCH   1   7
HETATM    7  C7  UNK     1      16.337   7.628  31.939  1.00  0.00     0.182 C 
HETATM    8  O2  UNK     1      16.177   8.623  31.216  1.00  0.00    -0.288 OA
BRANCH   7   9
HETATM    9  C10 UNK     1      15.692   7.557  33.295  1.00  0.00     0.056 C 
HETATM   10  C11 UNK     1      16.273   8.130  34.359  1.00  0.00     0.015 C 
BRANCH  10  11
HETATM   11  C8  UNK     1      17.552   8.861  34.319  1.00  0.00    -0.035 A 
HETATM   12  C12 UNK     1      17.567  10.226  34.033  1.00  0.00     0.035 A 
HETATM   13  C17 UNK     1      18.778  10.918  33.996  1.00  0.00     0.034 A 
HETATM   14 Cl1  UNK     1      18.798  12.603  33.643  1.00  0.00    -0.084 Cl
HETATM   15  C19 UNK     1      19.973  10.244  34.243  1.00  0.00     0.024 A 
HETATM   16  C18 UNK     1      19.958   8.879  34.530  1.00  0.00     0.003 A 
HETATM   17  C13 UNK     1      18.748   8.188  34.567  1.00  0.00     0.011 A 
ENDBRANCH  10  11
ENDBRANCH   7   9
ENDBRANCH   1   7
BRANCH   2  18
HETATM   18  O1  UNK     1      19.574   3.362  30.285  1.00  0.00    -0.275 OA
BRANCH  18  19
HETATM   19  C14 UNK     1      18.903   2.384  29.546  1.00  0.00     0.298 C 
HETATM   20  O3  UNK     1      18.031   2.594  28.717  1.00  0.00    -0.259 OA
BRANCH  19  21
HETATM   21  C9  UNK     1      19.378   1.022  29.902  1.00  0.00     0.040 A 
HETATM   22  C15 UNK     1      19.289   0.576  31.220  1.00  0.00     0.019 A 
HETATM   23  C20 UNK     1      19.733  -0.704  31.555  1.00  0.00     0.025 A 
HETATM   24  C22 UNK     1      20.267  -1.536  30.570  1.00  0.00     0.034 A 
HETATM   25  C21 UNK     1      20.356  -1.088  29.253  1.00  0.00     0.025 A 
HETATM   26 Cl2  UNK     1      20.816  -3.113  30.984  1.00  0.00    -0.084 Cl
HETATM   27  C16 UNK     1      19.911   0.190  28.918  1.00  0.00     0.019 A 
ENDBRANCH  19  21
ENDBRANCH  18  19
ENDBRANCH   2  18
TORSDOF 6
ENDMDL
MODEL 2
REMARK VINA RESULT:      -8.7      2.172      3.198
REMARK  6 active torsions:
REMARK  status: ('A' for Active; 'I' for Inactive)
REMARK    1  A    between atoms: C14_19  and  O1_3 
REMARK    2  A    between atoms: C2_7  and  O1_3 
REMARK    3  A    between atoms: C1_6  and  C7_12 
REMARK    4  A    between atoms: C10_15  and  C7_12 
REMARK    5  A    between atoms: C11_16  and  C8_13 
REMARK    6  A    between atoms: C14_19  and  C9_14 
ROOT
HETATM    1  C1  UNK     1      19.085   6.598  33.352  1.00  0.00     0.014 A 
HETATM    2  C2  UNK     1      19.092   4.668  31.338  1.00  0.00     0.079 A 
HETATM    3  C3  UNK     1      19.865   6.784  32.211  1.00  0.00     0.018 A 
HETATM    4  C4  UNK     1      18.307   5.448  33.485  1.00  0.00     0.018 A 
HETATM    5  C5  UNK     1      19.869   5.819  31.204  1.00  0.00     0.038 A 
HETATM    6  C6  UNK     1      18.311   4.483  32.479  1.00  0.00     0.038 A 
ENDROOT
BRANCH   1   7
HETATM    7  C7  UNK     1      19.082   7.605  34.402  1.00  0.00     0.182 C 
HETATM    8  O2  UNK     1      18.844   7.296  35.580  1.00  0.00    -0.288 OA
BRANCH   7   9
HETATM    9  C10 UNK     1      19.341   9.037  34.026  1.00  0.00     0.056 C 
HETATM   10  C11 UNK     1      18.322   9.868  33.759  1.00  0.00     0.015 C 
BRANCH  10  11
HETATM   11  C8  UNK     1      16.899   9.487  33.805  1.00  0.00    -0.035 A 
HETATM   12  C12 UNK     1      16.390   8.575  32.881  1.00  0.00     0.035 A 
HETATM   13  C17 UNK     1      15.043   8.215  32.926  1.00  0.00     0.034 A 
HETATM   14 Cl1  UNK     1      14.414   7.090  31.785  1.00  0.00    -0.084 Cl
HETATM   15  C19 UNK     1      14.206   8.768  33.894  1.00  0.00     0.024 A 
HETATM   16  C18 UNK     1      14.715   9.679  34.819  1.00  0.00     0.003 A 
HETATM   17  C13 UNK     1      16.062  10.039  34.774  1.00  0.00     0.011 A 
ENDBRANCH  10  11
ENDBRANCH   7   9
ENDBRANCH   1   7
BRANCH   2  18
HETATM   18  O1  UNK     1      19.095   3.726  30.356  1.00  0.00    -0.275 OA
BRANCH  18  19
HETATM   19  C14 UNK     1      18.209   2.668  30.572  1.00  0.00     0.298 C 
HETATM   20  O3  UNK     1      17.027   2.777  30.856  1.00  0.00    -0.259 OA
BRANCH  19  21
HETATM   21  C9  UNK     1      18.892   1.357  30.422  1.00  0.00     0.040 A 
HETATM   22  C15 UNK     1      19.323   0.935  29.164  1.00  0.00     0.019 A 
HETATM   23  C20 UNK     1      19.966  -0.295  29.024  1.00  0.00     0.025 A 
HETATM   24  C22 UNK     1      20.176  -1.104  30.142  1.00  0.00     0.034 A 
HETATM   25  C21 UNK     1      19.744  -0.682  31.399  1.00  0.00     0.025 A 
HETATM   26 Cl2  UNK     1      20.968  -2.621  29.968  1.00  0.00    -0.084 Cl
HETATM   27  C16 UNK     1      19.102   0.549  31.539  1.00  0.00     0.019 A 
ENDBRANCH  19  21
ENDBRANCH  18  19
ENDBRANCH   2  18
TORSDOF 6
ENDMDL
MODEL 3
REMARK VINA RESULT:      -8.7     14.549     17.379
REMARK  6 active torsions:
REMARK  status: ('A' for Active; 'I' for Inactive)
REMARK    1  A    between atoms: C14_19  and  O1_3 
REMARK    2  A    between atoms: C2_7  and  O1_3 
REMARK    3  A    between atoms: C1_6  and  C7_12 
REMARK    4  A    between atoms: C10_15  and  C7_12 
REMARK    5  A    between atoms: C11_16  and  C8_13 
REMARK    6  A    between atoms: C14_19  and  C9_14 
ROOT
HETATM    1  C1  UNK     1      23.122 -10.296  36.165  1.00  0.00     0.014 A 
HETATM    2  C2  UNK     1      25.825 -10.208  36.848  1.00  0.00     0.079 A 
HETATM    3  C3  UNK     1      23.948 -11.384  35.881  1.00  0.00     0.018 A 
HETATM    4  C4  UNK     1      23.647  -9.166  36.790  1.00  0.00     0.018 A 
HETATM    5  C5  UNK     1      25.300 -11.340  36.223  1.00  0.00     0.038 A 
HETATM    6  C6  UNK     1      24.998  -9.121  37.132  1.00  0.00     0.038 A 
ENDROOT
BRANCH   1   7
HETATM    7  C7  UNK     1      21.712 -10.343  35.807  1.00  0.00     0.182 C 
HETATM    8  O2  UNK     1      21.255  -9.604  34.923  1.00  0.00    -0.288 OA
BRANCH   7   9
HETATM    9  C10 UNK     1      20.811 -11.284  36.557  1.00  0.00     0.056 C 
HETATM   10  C11 UNK     1      20.003 -10.829  37.526  1.00  0.00     0.015 C 
BRANCH  10  11
HETATM   11  C8  UNK     1      19.911  -9.419  37.944  1.00  0.00    -0.035 A 
HETATM   12  C12 UNK     1      19.022  -8.557  37.302  1.00  0.00     0.035 A 
HETATM   13  C17 UNK     1      18.935  -7.222  37.698  1.00  0.00     0.034 A 
HETATM   14 Cl1  UNK     1      17.839  -6.158  36.907  1.00  0.00    -0.084 Cl
HETATM   15  C19 UNK     1      19.739  -6.750  38.735  1.00  0.00     0.024 A 
HETATM   16  C18 UNK     1      20.627  -7.612  39.378  1.00  0.00     0.003 A 
HETATM   17  C13 UNK     1      20.714  -8.946  38.982  1.00  0.00     0.011 A 
ENDBRANCH  10  11
ENDBRANCH   7   9
ENDBRANCH   1   7
BRANCH   2  18
HETATM   18  O1  UNK     1      27.143 -10.165  37.182  1.00  0.00    -0.275 OA
BRANCH  18  19
HETATM   19  C14 UNK     1      27.388  -9.809  38.511  1.00  0.00     0.298 C 
HETATM   20  O3  UNK     1      27.038 -10.444  39.493  1.00  0.00    -0.259 OA
BRANCH  19  21
HETATM   21  C9  UNK     1      28.134  -8.527  38.594  1.00  0.00     0.040 A 
HETATM   22  C15 UNK     1      29.390  -8.412  37.999  1.00  0.00     0.019 A 
HETATM   23  C20 UNK     1      30.091  -7.207  38.075  1.00  0.00     0.025 A 
HETATM   24  C22 UNK     1      29.535  -6.119  38.749  1.00  0.00     0.034 A 
HETATM   25  C21 UNK     1      28.279  -6.236  39.345  1.00  0.00     0.025 A 
HETATM   26 Cl2  UNK     1      30.399  -4.635  38.845  1.00  0.00    -0.084 Cl
HETATM   27  C16 UNK     1      27.578  -7.439  39.267  1.00  0.00     0.019 A 
ENDBRANCH  19  21
ENDBRANCH  18  19
ENDBRANCH   2  18
TORSDOF 6
ENDMDL
MODEL 4
REMARK VINA RESULT:      -8.5      9.136     14.988
REMARK  6 active torsions:
REMARK  status: ('A' for Active; 'I' for Inactive)
REMARK    1  A    between atoms: C14_19  and  O1_3 
REMARK    2  A    between atoms: C2_7  and  O1_3 
REMARK    3  A    between atoms: C1_6  and  C7_12 
REMARK    4  A    between atoms: C10_15  and  C7_12 
REMARK    5  A    between atoms: C11_16  and  C8_13 
REMARK    6  A    between atoms: C14_19  and  C9_14 
ROOT
HETATM    1  C1  UNK     1      21.057  -7.373  39.089  1.00  0.00     0.014 A 
HETATM    2  C2  UNK     1      21.051  -4.831  37.940  1.00  0.00     0.079 A 
HETATM    3  C3  UNK     1      19.851  -6.704  38.884  1.00  0.00     0.018 A 
HETATM    4  C4  UNK     1      22.260  -6.772  38.718  1.00  0.00     0.018 A 
HETATM    5  C5  UNK     1      19.847  -5.433  38.309  1.00  0.00     0.038 A 
HETATM    6  C6  UNK     1      22.257  -5.502  38.144  1.00  0.00     0.038 A 
ENDROOT
BRANCH   1   7
HETATM    7  C7  UNK     1      21.060  -8.699  39.688  1.00  0.00     0.182 C 
HETATM    8  O2  UNK     1      22.059  -9.124  40.288  1.00  0.00    -0.288 OA
BRANCH   7   9
HETATM    9  C10 UNK     1      19.835  -9.558  39.539  1.00  0.00     0.056 C 
HETATM   10  C11 UNK     1      19.546 -10.136  38.364  1.00  0.00     0.015 C 
BRANCH  10  11
HETATM   11  C8  UNK     1      20.361 -10.000  37.143  1.00  0.00    -0.035 A 
HETATM   12  C12 UNK     1      20.163  -8.916  36.289  1.00  0.00     0.035 A 
HETATM   13  C17 UNK     1      20.935  -8.788  35.134  1.00  0.00     0.034 A 
HETATM   14 Cl1  UNK     1      20.692  -7.451  34.078  1.00  0.00    -0.084 Cl
HETATM   15  C19 UNK     1      21.903  -9.746  34.833  1.00  0.00     0.024 A 
HETATM   16  C18 UNK     1      22.101 -10.830  35.688  1.00  0.00     0.003 A 
HETATM   17  C13 UNK     1      21.329 -10.957  36.843  1.00  0.00     0.011 A 
ENDBRANCH  10  11
ENDBRANCH   7   9
ENDBRANCH   1   7
BRANCH   2  18
HETATM   18  O1  UNK     1      21.048  -3.592  37.379  1.00  0.00    -0.275 OA
BRANCH  18  19
HETATM   19  C14 UNK     1      20.191  -3.458  36.284  1.00  0.00     0.298 C 
HETATM   20  O3  UNK     1      20.144  -4.209  35.322  1.00  0.00    -0.259 OA
BRANCH  19  21
HETATM   21  C9  UNK     1      19.326  -2.258  36.423  1.00  0.00     0.040 A 
HETATM   22  C15 UNK     1      18.675  -2.004  37.630  1.00  0.00     0.019 A 
HETATM   23  C20 UNK     1      17.864  -0.876  37.762  1.00  0.00     0.025 A 
HETATM   24  C22 UNK     1      17.704  -0.004  36.685  1.00  0.00     0.034 A 
HETATM   25  C21 UNK     1      18.355  -0.258  35.478  1.00  0.00     0.025 A 
HETATM   26 Cl2  UNK     1      16.703   1.387  36.847  1.00  0.00    -0.084 Cl
HETATM   27  C16 UNK     1      19.167  -1.385  35.347  1.00  0.00     0.019 A 
ENDBRANCH  19  21
ENDBRANCH  18  19
ENDBRANCH   2  18
TORSDOF 6
ENDMDL
MODEL 5
REMARK VINA RESULT:      -8.3     13.368     16.848
REMARK  6 active torsions:
REMARK  status: ('A' for Active; 'I' for Inactive)
REMARK    1  A    between atoms: C14_19  and  O1_3 
REMARK    2  A    between atoms: C2_7  and  O1_3 
REMARK    3  A    between atoms: C1_6  and  C7_12 
REMARK    4  A    between atoms: C10_15  and  C7_12 
REMARK    5  A    between atoms: C11_16  and  C8_13 
REMARK    6  A    between atoms: C14_19  and  C9_14 
ROOT
HETATM    1  C1  UNK     1      23.317 -10.402  36.092  1.00  0.00     0.014 A 
HETATM    2  C2  UNK     1      25.926 -10.091  37.029  1.00  0.00     0.079 A 
HETATM    3  C3  UNK     1      24.249 -11.424  35.911  1.00  0.00     0.018 A 
HETATM    4  C4  UNK     1      23.689  -9.226  36.742  1.00  0.00     0.018 A 
HETATM    5  C5  UNK     1      25.553 -11.269  36.380  1.00  0.00     0.038 A 
HETATM    6  C6  UNK     1      24.993  -9.070  37.211  1.00  0.00     0.038 A 
ENDROOT
BRANCH   1   7
HETATM    7  C7  UNK     1      21.956 -10.565  35.603  1.00  0.00     0.182 C 
HETATM    8  O2  UNK     1      21.681 -10.367  34.410  1.00  0.00    -0.288 OA
BRANCH   7   9
HETATM    9  C10 UNK     1      20.881 -10.947  36.581  1.00  0.00     0.056 C 
HETATM   10  C11 UNK     1      20.056 -10.019  37.086  1.00  0.00     0.015 C 
BRANCH  10  11
HETATM   11  C8  UNK     1      20.107  -8.584  36.751  1.00  0.00    -0.035 A 
HETATM   12  C12 UNK     1      20.879  -7.715  37.521  1.00  0.00     0.035 A 
HETATM   13  C17 UNK     1      20.928  -6.357  37.203  1.00  0.00     0.034 A 
HETATM   14 Cl1  UNK     1      21.880  -5.283  38.152  1.00  0.00    -0.084 Cl
HETATM   15  C19 UNK     1      20.203  -5.870  36.116  1.00  0.00     0.024 A 
HETATM   16  C18 UNK     1      19.431  -6.740  35.346  1.00  0.00     0.003 A 
HETATM   17  C13 UNK     1      19.383  -8.097  35.663  1.00  0.00     0.011 A 
ENDBRANCH  10  11
ENDBRANCH   7   9
ENDBRANCH   1   7
BRANCH   2  18
HETATM   18  O1  UNK     1      27.198  -9.939  37.487  1.00  0.00    -0.275 OA
BRANCH  18  19
HETATM   19  C14 UNK     1      28.016  -9.161  36.664  1.00  0.00     0.298 C 
HETATM   20  O3  UNK     1      28.384  -9.461  35.539  1.00  0.00    -0.259 OA
BRANCH  19  21
HETATM   21  C9  UNK     1      28.407  -7.896  37.339  1.00  0.00     0.040 A 
HETATM   22  C15 UNK     1      28.093  -7.697  38.683  1.00  0.00     0.019 A 
HETATM   23  C20 UNK     1      28.462  -6.510  39.317  1.00  0.00     0.025 A 
HETATM   24  C22 UNK     1      29.143  -5.522  38.605  1.00  0.00     0.034 A 
HETATM   25  C21 UNK     1      29.456  -5.722  37.261  1.00  0.00     0.025 A 
HETATM   26 Cl2  UNK     1      29.597  -4.058  39.387  1.00  0.00    -0.084 Cl
HETATM   27  C16 UNK     1      29.089  -6.909  36.627  1.00  0.00     0.019 A 
ENDBRANCH  19  21
ENDBRANCH  18  19
ENDBRANCH   2  18
TORSDOF 6
ENDMDL
MODEL 6
REMARK VINA RESULT:      -8.1     15.738     17.891
REMARK  6 active torsions:
REMARK  status: ('A' for Active; 'I' for Inactive)
REMARK    1  A    between atoms: C14_19  and  O1_3 
REMARK    2  A    between atoms: C2_7  and  O1_3 
REMARK    3  A    between atoms: C1_6  and  C7_12 
REMARK    4  A    between atoms: C10_15  and  C7_12 
REMARK    5  A    between atoms: C11_16  and  C8_13 
REMARK    6  A    between atoms: C14_19  and  C9_14 
ROOT
HETATM    1  C1  UNK     1      28.556  -9.053  37.590  1.00  0.00     0.014 A 
HETATM    2  C2  UNK     1      26.088  -8.754  38.855  1.00  0.00     0.079 A 
HETATM    3  C3  UNK     1      28.488  -8.996  38.982  1.00  0.00     0.018 A 
HETATM    4  C4  UNK     1      27.390  -8.961  36.831  1.00  0.00     0.018 A 
HETATM    5  C5  UNK     1      27.254  -8.848  39.615  1.00  0.00     0.038 A 
HETATM    6  C6  UNK     1      26.156  -8.812  37.462  1.00  0.00     0.038 A 
ENDROOT
BRANCH   1   7
HETATM    7  C7  UNK     1      29.843  -9.209  36.931  1.00  0.00     0.182 C 
HETATM    8  O2  UNK     1      29.933  -9.177  35.694  1.00  0.00    -0.288 OA
BRANCH   7   9
HETATM    9  C10 UNK     1      31.062  -9.441  37.780  1.00  0.00     0.056 C 
HETATM   10  C11 UNK     1      31.834  -8.413  38.162  1.00  0.00     0.015 C 
BRANCH  10  11
HETATM   11  C8  UNK     1      31.583  -7.004  37.810  1.00  0.00    -0.035 A 
HETATM   12  C12 UNK     1      30.796  -6.206  38.639  1.00  0.00     0.035 A 
HETATM   13  C17 UNK     1      30.559  -4.872  38.305  1.00  0.00     0.034 A 
HETATM   14 Cl1  UNK     1      29.587  -3.887  39.327  1.00  0.00    -0.084 Cl
HETATM   15  C19 UNK     1      31.109  -4.338  37.141  1.00  0.00     0.024 A 
HETATM   16  C18 UNK     1      31.898  -5.135  36.311  1.00  0.00     0.003 A 
HETATM   17  C13 UNK     1      32.135  -6.468  36.646  1.00  0.00     0.011 A 
ENDBRANCH  10  11
ENDBRANCH   7   9
ENDBRANCH   1   7
BRANCH   2  18
HETATM   18  O1  UNK     1      24.883  -8.609  39.471  1.00  0.00    -0.275 OA
BRANCH  18  19
HETATM   19  C14 UNK     1      24.077  -7.605  38.929  1.00  0.00     0.298 C 
HETATM   20  O3  UNK     1      24.387  -6.429  38.813  1.00  0.00    -0.259 OA
BRANCH  19  21
HETATM   21  C9  UNK     1      22.759  -8.145  38.507  1.00  0.00     0.040 A 
HETATM   22  C15 UNK     1      21.782  -8.424  39.464  1.00  0.00     0.019 A 
HETATM   23  C20 UNK     1      20.543  -8.929  39.069  1.00  0.00     0.025 A 
HETATM   24  C22 UNK     1      20.282  -9.157  37.717  1.00  0.00     0.034 A 
HETATM   25  C21 UNK     1      21.259  -8.879  36.762  1.00  0.00     0.025 A 
HETATM   26 Cl2  UNK     1      18.755  -9.782  37.230  1.00  0.00    -0.084 Cl
HETATM   27  C16 UNK     1      22.498  -8.372  37.157  1.00  0.00     0.019 A 
ENDBRANCH  19  21
ENDBRANCH  18  19
ENDBRANCH   2  18
TORSDOF 6
ENDMDL
MODEL 7
REMARK VINA RESULT:      -8.0     15.690     17.502
REMARK  6 active torsions:
REMARK  status: ('A' for Active; 'I' for Inactive)
REMARK    1  A    between atoms: C14_19  and  O1_3 
REMARK    2  A    between atoms: C2_7  and  O1_3 
REMARK    3  A    between atoms: C1_6  and  C7_12 
REMARK    4  A    between atoms: C10_15  and  C7_12 
REMARK    5  A    between atoms: C11_16  and  C8_13 
REMARK    6  A    between atoms: C14_19  and  C9_14 
ROOT
HETATM    1  C1  UNK     1      31.228  -7.278  35.049  1.00  0.00     0.014 A 
HETATM    2  C2  UNK     1      29.686  -5.847  33.217  1.00  0.00     0.079 A 
HETATM    3  C3  UNK     1      29.851  -7.488  34.982  1.00  0.00     0.018 A 
HETATM    4  C4  UNK     1      31.834  -6.352  34.200  1.00  0.00     0.018 A 
HETATM    5  C5  UNK     1      29.080  -6.773  34.065  1.00  0.00     0.038 A 
HETATM    6  C6  UNK     1      31.064  -5.636  33.284  1.00  0.00     0.038 A 
ENDROOT
BRANCH   1   7
HETATM    7  C7  UNK     1      32.031  -8.024  36.005  1.00  0.00     0.182 C 
HETATM    8  O2  UNK     1      31.791  -9.216  36.245  1.00  0.00    -0.288 OA
BRANCH   7   9
HETATM    9  C10 UNK     1      33.142  -7.309  36.723  1.00  0.00     0.056 C 
HETATM   10  C11 UNK     1      32.872  -6.305  37.571  1.00  0.00     0.015 C 
BRANCH  10  11
HETATM   11  C8  UNK     1      31.517  -5.814  37.880  1.00  0.00    -0.035 A 
HETATM   12  C12 UNK     1      30.598  -6.653  38.509  1.00  0.00     0.035 A 
HETATM   13  C17 UNK     1      29.315  -6.188  38.803  1.00  0.00     0.034 A 
HETATM   14 Cl1  UNK     1      28.180  -7.222  39.579  1.00  0.00    -0.084 Cl
HETATM   15  C19 UNK     1      28.953  -4.885  38.465  1.00  0.00     0.024 A 
HETATM   16  C18 UNK     1      29.873  -4.045  37.836  1.00  0.00     0.003 A 
HETATM   17  C13 UNK     1      31.155  -4.510  37.544  1.00  0.00     0.011 A 
ENDBRANCH  10  11
ENDBRANCH   7   9
ENDBRANCH   1   7
BRANCH   2  18
HETATM   18  O1  UNK     1      28.935  -5.149  32.323  1.00  0.00    -0.275 OA
BRANCH  18  19
HETATM   19  C14 UNK     1      29.427  -5.172  31.016  1.00  0.00     0.298 C 
HETATM   20  O3  UNK     1      30.002  -4.251  30.456  1.00  0.00    -0.259 OA
BRANCH  19  21
HETATM   21  C9  UNK     1      29.154  -6.478  30.362  1.00  0.00     0.040 A 
HETATM   22  C15 UNK     1      27.904  -7.081  30.506  1.00  0.00     0.019 A 
HETATM   23  C20 UNK     1      27.646  -8.307  29.892  1.00  0.00     0.025 A 
HETATM   24  C22 UNK     1      28.640  -8.930  29.135  1.00  0.00     0.034 A 
HETATM   25  C21 UNK     1      29.889  -8.327  28.993  1.00  0.00     0.025 A 
HETATM   26 Cl2  UNK     1      28.322 -10.442  28.379  1.00  0.00    -0.084 Cl
HETATM   27  C16 UNK     1      30.146  -7.101  29.606  1.00  0.00     0.019 A 
ENDBRANCH  19  21
ENDBRANCH  18  19
ENDBRANCH   2  18
TORSDOF 6
ENDMDL
MODEL 8
REMARK VINA RESULT:      -8.0     15.781     18.311
REMARK  6 active torsions:
REMARK  status: ('A' for Active; 'I' for Inactive)
REMARK    1  A    between atoms: C14_19  and  O1_3 
REMARK    2  A    between atoms: C2_7  and  O1_3 
REMARK    3  A    between atoms: C1_6  and  C7_12 
REMARK    4  A    between atoms: C10_15  and  C7_12 
REMARK    5  A    between atoms: C11_16  and  C8_13 
REMARK    6  A    between atoms: C14_19  and  C9_14 
ROOT
HETATM    1  C1  UNK     1      33.423  -5.879  34.463  1.00  0.00     0.014 A 
HETATM    2  C2  UNK     1      32.269  -7.582  32.580  1.00  0.00     0.079 A 
HETATM    3  C3  UNK     1      34.235  -6.640  33.622  1.00  0.00     0.018 A 
HETATM    4  C4  UNK     1      32.035  -5.969  34.362  1.00  0.00     0.018 A 
HETATM    5  C5  UNK     1      33.658  -7.491  32.679  1.00  0.00     0.038 A 
HETATM    6  C6  UNK     1      31.458  -6.820  33.421  1.00  0.00     0.038 A 
ENDROOT
BRANCH   1   7
HETATM    7  C7  UNK     1      34.026  -4.992  35.446  1.00  0.00     0.182 C 
HETATM    8  O2  UNK     1      33.827  -3.768  35.405  1.00  0.00    -0.288 OA
BRANCH   7   9
HETATM    9  C10 UNK     1      34.923  -5.585  36.496  1.00  0.00     0.056 C 
HETATM   10  C11 UNK     1      34.404  -6.196  37.572  1.00  0.00     0.015 C 
BRANCH  10  11
HETATM   11  C8  UNK     1      32.961  -6.348  37.831  1.00  0.00    -0.035 A 
HETATM   12  C12 UNK     1      32.205  -5.248  38.235  1.00  0.00     0.035 A 
HETATM   13  C17 UNK     1      30.839  -5.391  38.480  1.00  0.00     0.034 A 
HETATM   14 Cl1  UNK     1      29.905  -4.035  38.979  1.00  0.00    -0.084 Cl
HETATM   15  C19 UNK     1      30.231  -6.636  38.322  1.00  0.00     0.024 A 
HETATM   16  C18 UNK     1      30.987  -7.736  37.918  1.00  0.00     0.003 A 
HETATM   17  C13 UNK     1      32.352  -7.592  37.672  1.00  0.00     0.011 A 
ENDBRANCH  10  11
ENDBRANCH   7   9
ENDBRANCH   1   7
BRANCH   2  18
HETATM   18  O1  UNK     1      31.705  -8.412  31.660  1.00  0.00    -0.275 OA
BRANCH  18  19
HETATM   19  C14 UNK     1      31.326  -7.782  30.473  1.00  0.00     0.298 C 
HETATM   20  O3  UNK     1      32.073  -7.493  29.551  1.00  0.00    -0.259 OA
BRANCH  19  21
HETATM   21  C9  UNK     1      29.870  -7.485  30.464  1.00  0.00     0.040 A 
HETATM   22  C15 UNK     1      29.430  -6.161  30.457  1.00  0.00     0.019 A 
HETATM   23  C20 UNK     1      28.063  -5.881  30.448  1.00  0.00     0.025 A 
HETATM   24  C22 UNK     1      27.137  -6.926  30.447  1.00  0.00     0.034 A 
HETATM   25  C21 UNK     1      27.579  -8.249  30.455  1.00  0.00     0.025 A 
HETATM   26 Cl2  UNK     1      25.452  -6.580  30.437  1.00  0.00    -0.084 Cl
HETATM   27  C16 UNK     1      28.946  -8.528  30.463  1.00  0.00     0.019 A 
ENDBRANCH  19  21
ENDBRANCH  18  19
ENDBRANCH   2  18
TORSDOF 6
ENDMDL
MODEL 9
REMARK VINA RESULT:      -7.9     22.292     24.639
REMARK  6 active torsions:
REMARK  status: ('A' for Active; 'I' for Inactive)
REMARK    1  A    between atoms: C14_19  and  O1_3 
REMARK    2  A    between atoms: C2_7  and  O1_3 
REMARK    3  A    between atoms: C1_6  and  C7_12 
REMARK    4  A    between atoms: C10_15  and  C7_12 
REMARK    5  A    between atoms: C11_16  and  C8_13 
REMARK    6  A    between atoms: C14_19  and  C9_14 
ROOT
HETATM    1  C1  UNK     1      14.630   8.136   9.589  1.00  0.00     0.014 A 
HETATM    2  C2  UNK     1      16.350  10.195   8.827  1.00  0.00     0.079 A 
HETATM    3  C3  UNK     1      15.921   8.196  10.114  1.00  0.00     0.018 A 
HETATM    4  C4  UNK     1      14.199   9.106   8.684  1.00  0.00     0.018 A 
HETATM    5  C5  UNK     1      16.781   9.226   9.733  1.00  0.00     0.038 A 
HETATM    6  C6  UNK     1      15.059  10.136   8.303  1.00  0.00     0.038 A 
ENDROOT
BRANCH   1   7
HETATM    7  C7  UNK     1      13.733   7.062   9.986  1.00  0.00     0.182 C 
HETATM    8  O2  UNK     1      12.724   7.294  10.667  1.00  0.00    -0.288 OA
BRANCH   7   9
HETATM    9  C10 UNK     1      14.074   5.655   9.580  1.00  0.00     0.056 C 
HETATM   10  C11 UNK     1      13.335   5.010   8.665  1.00  0.00     0.015 C 
BRANCH  10  11
HETATM   11  C8  UNK     1      12.160   5.585   7.985  1.00  0.00    -0.035 A 
HETATM   12  C12 UNK     1      10.886   5.409   8.524  1.00  0.00     0.035 A 
HETATM   13  C17 UNK     1       9.775   5.953   7.880  1.00  0.00     0.034 A 
HETATM   14 Cl1  UNK     1       8.201   5.737   8.544  1.00  0.00    -0.084 Cl
HETATM   15  C19 UNK     1       9.938   6.672   6.696  1.00  0.00     0.024 A 
HETATM   16  C18 UNK     1      11.213   6.848   6.157  1.00  0.00     0.003 A 
HETATM   17  C13 UNK     1      12.323   6.304   6.801  1.00  0.00     0.011 A 
ENDBRANCH  10  11
ENDBRANCH   7   9
ENDBRANCH   1   7
BRANCH   2  18
HETATM   18  O1  UNK     1      17.189  11.201   8.455  1.00  0.00    -0.275 OA
BRANCH  18  19
HETATM   19  C14 UNK     1      17.505  12.095   9.481  1.00  0.00     0.298 C 
HETATM   20  O3  UNK     1      16.702  12.769  10.109  1.00  0.00    -0.259 OA
BRANCH  19  21
HETATM   21  C9  UNK     1      18.970  12.142   9.720  1.00  0.00     0.040 A 
HETATM   22  C15 UNK     1      19.855  11.991   8.653  1.00  0.00     0.019 A 
HETATM   23  C20 UNK     1      21.232  12.037   8.876  1.00  0.00     0.025 A 
HETATM   24  C22 UNK     1      21.722  12.231  10.168  1.00  0.00     0.034 A 
HETATM   25  C21 UNK     1      20.836  12.380  11.235  1.00  0.00     0.025 A 
HETATM   26 Cl2  UNK     1      23.420  12.285  10.444  1.00  0.00    -0.084 Cl
HETATM   27  C16 UNK     1      19.460  12.336  11.011  1.00  0.00     0.019 A 
ENDBRANCH  19  21
ENDBRANCH  18  19
ENDBRANCH   2  18
TORSDOF 6
ENDMDL
MODEL 10
REMARK VINA RESULT:      -7.9      3.336      4.429
REMARK  6 active torsions:
REMARK  status: ('A' for Active; 'I' for Inactive)
REMARK    1  A    between atoms: C14_19  and  O1_3 
REMARK    2  A    between atoms: C2_7  and  O1_3 
REMARK    3  A    between atoms: C1_6  and  C7_12 
REMARK    4  A    between atoms: C10_15  and  C7_12 
REMARK    5  A    between atoms: C11_16  and  C8_13 
REMARK    6  A    between atoms: C14_19  and  C9_14 
ROOT
HETATM    1  C1  UNK     1      18.380   4.916  32.417  1.00  0.00     0.014 A 
HETATM    2  C2  UNK     1      18.292   2.159  32.835  1.00  0.00     0.079 A 
HETATM    3  C3  UNK     1      18.388   4.406  33.716  1.00  0.00     0.018 A 
HETATM    4  C4  UNK     1      18.328   4.046  31.328  1.00  0.00     0.018 A 
HETATM    5  C5  UNK     1      18.345   3.028  33.925  1.00  0.00     0.038 A 
HETATM    6  C6  UNK     1      18.285   2.668  31.536  1.00  0.00     0.038 A 
ENDROOT
BRANCH   1   7
HETATM    7  C7  UNK     1      18.424   6.353  32.200  1.00  0.00     0.182 C 
HETATM    8  O2  UNK     1      17.908   6.861  31.193  1.00  0.00    -0.288 OA
BRANCH   7   9
HETATM    9  C10 UNK     1      19.139   7.210  33.207  1.00  0.00     0.056 C 
HETATM   10  C11 UNK     1      18.458   8.078  33.971  1.00  0.00     0.015 C 
BRANCH  10  11
HETATM   11  C8  UNK     1      16.999   8.278  33.911  1.00  0.00    -0.035 A 
HETATM   12  C12 UNK     1      16.478   9.500  33.488  1.00  0.00     0.035 A 
HETATM   13  C17 UNK     1      15.097   9.688  33.431  1.00  0.00     0.034 A 
HETATM   14 Cl1  UNK     1      14.453  11.197  32.910  1.00  0.00    -0.084 Cl
HETATM   15  C19 UNK     1      14.237   8.654  33.798  1.00  0.00     0.024 A 
HETATM   16  C18 UNK     1      14.758   7.430  34.220  1.00  0.00     0.003 A 
HETATM   17  C13 UNK     1      16.139   7.243  34.277  1.00  0.00     0.011 A 
ENDBRANCH  10  11
ENDBRANCH   7   9
ENDBRANCH   1   7
BRANCH   2  18
HETATM   18  O1  UNK     1      18.250   0.814  33.038  1.00  0.00    -0.275 OA
BRANCH  18  19
HETATM   19  C14 UNK     1      17.441   0.419  34.106  1.00  0.00     0.298 C 
HETATM   20  O3  UNK     1      16.305   0.811  34.320  1.00  0.00    -0.259 OA
BRANCH  19  21
HETATM   21  C9  UNK     1      18.147  -0.551  34.983  1.00  0.00     0.040 A 
HETATM   22  C15 UNK     1      17.761  -0.693  36.316  1.00  0.00     0.019 A 
HETATM   23  C20 UNK     1      18.422  -1.605  37.140  1.00  0.00     0.025 A 
HETATM   24  C22 UNK     1      19.469  -2.373  36.630  1.00  0.00     0.034 A 
HETATM   25  C21 UNK     1      19.854  -2.230  35.297  1.00  0.00     0.025 A 
HETATM   26 Cl2  UNK     1      20.285  -3.496  37.646  1.00  0.00    -0.084 Cl
HETATM   27  C16 UNK     1      19.192  -1.319  34.473  1.00  0.00     0.019 A 
ENDBRANCH  19  21
ENDBRANCH  18  19
ENDBRANCH   2  18
TORSDOF 6
ENDMDL
