MODEL 1
REMARK VINA RESULT:      -6.9      0.000      0.000
REMARK  5 active torsions:
REMARK  status: ('A' for Active; 'I' for Inactive)
REMARK    1  A    between atoms: C1_3  and  N1_2 
REMARK       I    between atoms: C5_7  and  N1_2 
REMARK    2  A    between atoms: C1_3  and  C3_5 
REMARK    3  A    between atoms: C2_4  and  C4_6 
REMARK    4  A    between atoms: C2_4  and  C5_7 
REMARK    5  A    between atoms: C6_8  and  C7_9 
ROOT
HETATM    1  C2  UNK     1      12.193   7.517   8.571  1.00  0.00     0.043 C 
HETATM    2  C6  UNK     1      12.577   8.811   8.552  1.00  0.00     0.029 C 
ENDROOT
BRANCH   1   3
HETATM    3  C4  UNK     1      11.008   7.040   7.833  1.00  0.00    -0.021 A 
HETATM    4  C10 UNK     1      11.150   6.630   6.519  1.00  0.00     0.012 A 
HETATM    5  C14 UNK     1      10.029   6.178   5.821  1.00  0.00     0.001 A 
HETATM    6  C15 UNK     1       8.784   6.148   6.448  1.00  0.00     0.000 A 
HETATM    7  C13 UNK     1       8.658   6.566   7.773  1.00  0.00     0.001 A 
HETATM    8  C9  UNK     1       9.779   7.016   8.470  1.00  0.00     0.012 A 
ENDBRANCH   1   3
BRANCH   1   9
HETATM    9  C5  UNK     1      13.035   6.589   9.411  1.00  0.00     0.252 C 
HETATM   10  O1  UNK     1      12.736   6.319  10.573  1.00  0.00    -0.268 OA
HETATM   11  N1  UNK     1      14.152   6.089   8.762  1.00  0.00    -0.357 N 
HETATM   12  H5  UNK     1      14.340   6.367   7.802  1.00  0.00     0.162 HD
BRANCH  11  13
HETATM   13  C1  UNK     1      15.083   5.192   9.406  1.00  0.00     0.122 C 
BRANCH  13  14
HETATM   14  C3  UNK     1      16.477   5.794   9.535  1.00  0.00     0.015 C 
HETATM   15  C8  UNK     1      16.543   6.908  10.570  1.00  0.00     0.006 C 
ENDBRANCH  13  14
ENDBRANCH  11  13
ENDBRANCH   1   9
BRANCH   2  16
HETATM   16  C7  UNK     1      13.739   9.373   9.256  1.00  0.00    -0.035 A 
HETATM   17  C11 UNK     1      14.904   9.634   8.550  1.00  0.00     0.011 A 
HETATM   18  C16 UNK     1      16.006  10.166   9.218  1.00  0.00     0.001 A 
HETATM   19  C18 UNK     1      15.931  10.433  10.585  1.00  0.00     0.000 A 
HETATM   20  C17 UNK     1      14.754  10.165  11.284  1.00  0.00     0.001 A 
HETATM   21  C12 UNK     1      13.652   9.633  10.616  1.00  0.00     0.011 A 
ENDBRANCH   2  16
TORSDOF 5
ENDMDL
MODEL 2
REMARK VINA RESULT:      -6.9      0.007      1.081
REMARK  5 active torsions:
REMARK  status: ('A' for Active; 'I' for Inactive)
REMARK    1  A    between atoms: C1_3  and  N1_2 
REMARK       I    between atoms: C5_7  and  N1_2 
REMARK    2  A    between atoms: C1_3  and  C3_5 
REMARK    3  A    between atoms: C2_4  and  C4_6 
REMARK    4  A    between atoms: C2_4  and  C5_7 
REMARK    5  A    between atoms: C6_8  and  C7_9 
ROOT
HETATM    1  C2  UNK     1      12.195   7.515   8.574  1.00  0.00     0.043 C 
HETATM    2  C6  UNK     1      12.576   8.810   8.559  1.00  0.00     0.029 C 
ENDROOT
BRANCH   1   3
HETATM    3  C4  UNK     1      11.010   7.038   7.835  1.00  0.00    -0.021 A 
HETATM    4  C10 UNK     1      11.152   6.634   6.519  1.00  0.00     0.012 A 
HETATM    5  C14 UNK     1      10.032   6.183   5.820  1.00  0.00     0.001 A 
HETATM    6  C15 UNK     1       8.787   6.146   6.448  1.00  0.00     0.000 A 
HETATM    7  C13 UNK     1       8.662   6.558   7.775  1.00  0.00     0.001 A 
HETATM    8  C9  UNK     1       9.782   7.008   8.473  1.00  0.00     0.012 A 
ENDBRANCH   1   3
BRANCH   1   9
HETATM    9  C5  UNK     1      13.039   6.586   9.411  1.00  0.00     0.252 C 
HETATM   10  O1  UNK     1      12.743   6.315  10.573  1.00  0.00    -0.268 OA
HETATM   11  N1  UNK     1      14.154   6.088   8.758  1.00  0.00    -0.357 N 
HETATM   12  H5  UNK     1      14.339   6.366   7.798  1.00  0.00     0.162 HD
BRANCH  11  13
HETATM   13  C1  UNK     1      15.087   5.189   9.398  1.00  0.00     0.122 C 
BRANCH  13  14
HETATM   14  C3  UNK     1      16.479   5.796   9.534  1.00  0.00     0.015 C 
HETATM   15  C8  UNK     1      16.538   6.905  10.573  1.00  0.00     0.006 C 
ENDBRANCH  13  14
ENDBRANCH  11  13
ENDBRANCH   1   9
BRANCH   2  16
HETATM   16  C7  UNK     1      13.737   9.372   9.264  1.00  0.00    -0.035 A 
HETATM   17  C11 UNK     1      13.648   9.636  10.623  1.00  0.00     0.011 A 
HETATM   18  C16 UNK     1      14.749  10.169  11.291  1.00  0.00     0.001 A 
HETATM   19  C18 UNK     1      15.929  10.432  10.594  1.00  0.00     0.000 A 
HETATM   20  C17 UNK     1      16.005  10.162   9.227  1.00  0.00     0.001 A 
HETATM   21  C12 UNK     1      14.904   9.629   8.558  1.00  0.00     0.011 A 
ENDBRANCH   2  16
TORSDOF 5
ENDMDL
MODEL 3
REMARK VINA RESULT:      -6.7     22.629     24.976
REMARK  5 active torsions:
REMARK  status: ('A' for Active; 'I' for Inactive)
REMARK    1  A    between atoms: C1_3  and  N1_2 
REMARK       I    between atoms: C5_7  and  N1_2 
REMARK    2  A    between atoms: C1_3  and  C3_5 
REMARK    3  A    between atoms: C2_4  and  C4_6 
REMARK    4  A    between atoms: C2_4  and  C5_7 
REMARK    5  A    between atoms: C6_8  and  C7_9 
ROOT
HETATM    1  C2  UNK     1      18.242   2.592  32.977  1.00  0.00     0.043 C 
HETATM    2  C6  UNK     1      18.261   3.887  33.359  1.00  0.00     0.029 C 
ENDROOT
BRANCH   1   3
HETATM    3  C4  UNK     1      18.360   1.487  33.947  1.00  0.00    -0.021 A 
HETATM    4  C10 UNK     1      18.336   0.181  33.491  1.00  0.00     0.012 A 
HETATM    5  C14 UNK     1      18.449  -0.864  34.408  1.00  0.00     0.001 A 
HETATM    6  C15 UNK     1      18.580  -0.586  35.768  1.00  0.00     0.000 A 
HETATM    7  C13 UNK     1      18.602   0.736  36.212  1.00  0.00     0.001 A 
HETATM    8  C9  UNK     1      18.490   1.780  35.294  1.00  0.00     0.012 A 
ENDBRANCH   1   3
BRANCH   1   9
HETATM    9  C5  UNK     1      18.114   2.342  31.495  1.00  0.00     0.252 C 
HETATM   10  O1  UNK     1      17.093   2.635  30.876  1.00  0.00    -0.268 OA
HETATM   11  N1  UNK     1      19.230   1.757  30.919  1.00  0.00    -0.357 N 
HETATM   12  H5  UNK     1      20.034   1.533  31.498  1.00  0.00     0.162 HD
BRANCH  11  13
HETATM   13  C1  UNK     1      19.292   1.434  29.512  1.00  0.00     0.122 C 
BRANCH  13  14
HETATM   14  C3  UNK     1      20.093   0.165  29.242  1.00  0.00     0.015 C 
HETATM   15  C8  UNK     1      20.637  -0.469  30.514  1.00  0.00     0.006 C 
ENDBRANCH  13  14
ENDBRANCH  11  13
ENDBRANCH   1   9
BRANCH   2  16
HETATM   16  C7  UNK     1      18.150   5.049  32.465  1.00  0.00    -0.035 A 
HETATM   17  C11 UNK     1      17.038   5.872  32.550  1.00  0.00     0.011 A 
HETATM   18  C16 UNK     1      16.933   6.973  31.702  1.00  0.00     0.001 A 
HETATM   19  C18 UNK     1      17.943   7.240  30.777  1.00  0.00     0.000 A 
HETATM   20  C17 UNK     1      19.057   6.403  30.701  1.00  0.00     0.001 A 
HETATM   21  C12 UNK     1      19.162   5.302  31.549  1.00  0.00     0.011 A 
ENDBRANCH   2  16
TORSDOF 5
ENDMDL
MODEL 4
REMARK VINA RESULT:      -6.6     22.458     24.650
REMARK  5 active torsions:
REMARK  status: ('A' for Active; 'I' for Inactive)
REMARK    1  A    between atoms: C1_3  and  N1_2 
REMARK       I    between atoms: C5_7  and  N1_2 
REMARK    2  A    between atoms: C1_3  and  C3_5 
REMARK    3  A    between atoms: C2_4  and  C4_6 
REMARK    4  A    between atoms: C2_4  and  C5_7 
REMARK    5  A    between atoms: C6_8  and  C7_9 
ROOT
HETATM    1  C2  UNK     1      18.457   3.264  31.785  1.00  0.00     0.043 C 
HETATM    2  C6  UNK     1      18.478   4.598  31.577  1.00  0.00     0.029 C 
ENDROOT
BRANCH   1   3
HETATM    3  C4  UNK     1      18.623   2.297  30.683  1.00  0.00    -0.021 A 
HETATM    4  C10 UNK     1      17.871   2.448  29.531  1.00  0.00     0.012 A 
HETATM    5  C14 UNK     1      18.029   1.534  28.489  1.00  0.00     0.001 A 
HETATM    6  C15 UNK     1      18.934   0.480  28.617  1.00  0.00     0.000 A 
HETATM    7  C13 UNK     1      19.683   0.342  29.786  1.00  0.00     0.001 A 
HETATM    8  C9  UNK     1      19.526   1.257  30.826  1.00  0.00     0.012 A 
ENDBRANCH   1   3
BRANCH   1   9
HETATM    9  C5  UNK     1      18.232   2.820  33.208  1.00  0.00     0.252 C 
HETATM   10  O1  UNK     1      18.689   3.449  34.161  1.00  0.00    -0.268 OA
HETATM   11  N1  UNK     1      17.484   1.661  33.331  1.00  0.00    -0.357 N 
HETATM   12  H5  UNK     1      17.148   1.190  32.495  1.00  0.00     0.162 HD
BRANCH  11  13
HETATM   13  C1  UNK     1      17.170   1.076  34.615  1.00  0.00     0.122 C 
BRANCH  13  14
HETATM   14  C3  UNK     1      17.997  -0.172  34.902  1.00  0.00     0.015 C 
HETATM   15  C8  UNK     1      18.453  -0.880  33.634  1.00  0.00     0.006 C 
ENDBRANCH  13  14
ENDBRANCH  11  13
ENDBRANCH   1   9
BRANCH   2  16
HETATM   16  C7  UNK     1      18.320   5.631  32.610  1.00  0.00    -0.035 A 
HETATM   17  C11 UNK     1      19.447   6.205  33.179  1.00  0.00     0.011 A 
HETATM   18  C16 UNK     1      19.297   7.185  34.160  1.00  0.00     0.001 A 
HETATM   19  C18 UNK     1      18.021   7.581  34.561  1.00  0.00     0.000 A 
HETATM   20  C17 UNK     1      16.895   6.995  33.981  1.00  0.00     0.001 A 
HETATM   21  C12 UNK     1      17.045   6.016  33.000  1.00  0.00     0.011 A 
ENDBRANCH   2  16
TORSDOF 5
ENDMDL
MODEL 5
REMARK VINA RESULT:      -6.6     27.431     29.873
REMARK  5 active torsions:
REMARK  status: ('A' for Active; 'I' for Inactive)
REMARK    1  A    between atoms: C1_3  and  N1_2 
REMARK       I    between atoms: C5_7  and  N1_2 
REMARK    2  A    between atoms: C1_3  and  C3_5 
REMARK    3  A    between atoms: C2_4  and  C4_6 
REMARK    4  A    between atoms: C2_4  and  C5_7 
REMARK    5  A    between atoms: C6_8  and  C7_9 
ROOT
HETATM    1  C2  UNK     1      19.603  -3.322  36.356  1.00  0.00     0.043 C 
HETATM    2  C6  UNK     1      18.481  -2.854  36.944  1.00  0.00     0.029 C 
ENDROOT
BRANCH   1   3
HETATM    3  C4  UNK     1      20.168  -4.644  36.686  1.00  0.00    -0.021 A 
HETATM    4  C10 UNK     1      21.087  -4.750  37.716  1.00  0.00     0.012 A 
HETATM    5  C14 UNK     1      21.620  -6.000  38.029  1.00  0.00     0.001 A 
HETATM    6  C15 UNK     1      21.228  -7.125  37.304  1.00  0.00     0.000 A 
HETATM    7  C13 UNK     1      20.302  -7.002  36.269  1.00  0.00     0.001 A 
HETATM    8  C9  UNK     1      19.768  -5.752  35.958  1.00  0.00     0.012 A 
ENDBRANCH   1   3
BRANCH   1   9
HETATM    9  C5  UNK     1      20.259  -2.403  35.356  1.00  0.00     0.252 C 
HETATM   10  O1  UNK     1      20.850  -1.383  35.707  1.00  0.00    -0.268 OA
HETATM   11  N1  UNK     1      20.125  -2.807  34.038  1.00  0.00    -0.357 N 
HETATM   12  H5  UNK     1      19.612  -3.658  33.825  1.00  0.00     0.162 HD
BRANCH  11  13
HETATM   13  C1  UNK     1      20.680  -2.051  32.938  1.00  0.00     0.122 C 
BRANCH  13  14
HETATM   14  C3  UNK     1      19.639  -1.731  31.871  1.00  0.00     0.015 C 
HETATM   15  C8  UNK     1      20.127  -2.038  30.463  1.00  0.00     0.006 C 
ENDBRANCH  13  14
ENDBRANCH  11  13
ENDBRANCH   1   9
BRANCH   2  16
HETATM   16  C7  UNK     1      17.850  -1.553  36.678  1.00  0.00    -0.035 A 
HETATM   17  C11 UNK     1      17.990  -0.527  37.600  1.00  0.00     0.011 A 
HETATM   18  C16 UNK     1      17.391   0.707  37.348  1.00  0.00     0.001 A 
HETATM   19  C18 UNK     1      16.659   0.901  36.176  1.00  0.00     0.000 A 
HETATM   20  C17 UNK     1      16.526  -0.140  35.257  1.00  0.00     0.001 A 
HETATM   21  C12 UNK     1      17.125  -1.374  35.509  1.00  0.00     0.011 A 
ENDBRANCH   2  16
TORSDOF 5
ENDMDL
MODEL 6
REMARK VINA RESULT:      -6.6      1.707      3.093
REMARK  5 active torsions:
REMARK  status: ('A' for Active; 'I' for Inactive)
REMARK    1  A    between atoms: C1_3  and  N1_2 
REMARK       I    between atoms: C5_7  and  N1_2 
REMARK    2  A    between atoms: C1_3  and  C3_5 
REMARK    3  A    between atoms: C2_4  and  C4_6 
REMARK    4  A    between atoms: C2_4  and  C5_7 
REMARK    5  A    between atoms: C6_8  and  C7_9 
ROOT
HETATM    1  C2  UNK     1      12.466   8.068   8.654  1.00  0.00     0.043 C 
HETATM    2  C6  UNK     1      13.716   8.078   8.144  1.00  0.00     0.029 C 
ENDROOT
BRANCH   1   3
HETATM    3  C4  UNK     1      11.344   7.404   7.963  1.00  0.00    -0.021 A 
HETATM    4  C10 UNK     1      11.532   6.915   6.682  1.00  0.00     0.012 A 
HETATM    5  C14 UNK     1      10.472   6.286   6.029  1.00  0.00     0.001 A 
HETATM    6  C15 UNK     1       9.238   6.160   6.667  1.00  0.00     0.000 A 
HETATM    7  C13 UNK     1       9.065   6.659   7.958  1.00  0.00     0.001 A 
HETATM    8  C9  UNK     1      10.126   7.286   8.610  1.00  0.00     0.012 A 
ENDBRANCH   1   3
BRANCH   1   9
HETATM    9  C5  UNK     1      12.278   8.796   9.961  1.00  0.00     0.252 C 
HETATM   10  O1  UNK     1      12.396   8.222  11.042  1.00  0.00    -0.268 OA
HETATM   11  N1  UNK     1      11.962  10.137   9.826  1.00  0.00    -0.357 N 
HETATM   12  H5  UNK     1      11.872  10.540   8.897  1.00  0.00     0.162 HD
BRANCH  11  13
HETATM   13  C1  UNK     1      11.737  10.997  10.965  1.00  0.00     0.122 C 
BRANCH  13  14
HETATM   14  C3  UNK     1      12.914  11.928  11.232  1.00  0.00     0.015 C 
HETATM   15  C8  UNK     1      14.064  11.234  11.946  1.00  0.00     0.006 C 
ENDBRANCH  13  14
ENDBRANCH  11  13
ENDBRANCH   1   9
BRANCH   2  16
HETATM   16  C7  UNK     1      14.890   8.713   8.761  1.00  0.00    -0.035 A 
HETATM   17  C11 UNK     1      15.644   8.004   9.683  1.00  0.00     0.011 A 
HETATM   18  C16 UNK     1      16.757   8.607  10.268  1.00  0.00     0.001 A 
HETATM   19  C18 UNK     1      17.105   9.913   9.923  1.00  0.00     0.000 A 
HETATM   20  C17 UNK     1      16.338  10.616   8.993  1.00  0.00     0.001 A 
HETATM   21  C12 UNK     1      15.225  10.013   8.409  1.00  0.00     0.011 A 
ENDBRANCH   2  16
TORSDOF 5
ENDMDL
MODEL 7
REMARK VINA RESULT:      -6.6      1.727      3.306
REMARK  5 active torsions:
REMARK  status: ('A' for Active; 'I' for Inactive)
REMARK    1  A    between atoms: C1_3  and  N1_2 
REMARK       I    between atoms: C5_7  and  N1_2 
REMARK    2  A    between atoms: C1_3  and  C3_5 
REMARK    3  A    between atoms: C2_4  and  C4_6 
REMARK    4  A    between atoms: C2_4  and  C5_7 
REMARK    5  A    between atoms: C6_8  and  C7_9 
ROOT
HETATM    1  C2  UNK     1      12.434   8.084   8.617  1.00  0.00     0.043 C 
HETATM    2  C6  UNK     1      13.696   8.100   8.138  1.00  0.00     0.029 C 
ENDROOT
BRANCH   1   3
HETATM    3  C4  UNK     1      11.333   7.409   7.903  1.00  0.00    -0.021 A 
HETATM    4  C10 UNK     1      10.094   7.310   8.511  1.00  0.00     0.012 A 
HETATM    5  C14 UNK     1       9.053   6.672   7.836  1.00  0.00     0.001 A 
HETATM    6  C15 UNK     1       9.269   6.140   6.564  1.00  0.00     0.000 A 
HETATM    7  C13 UNK     1      10.525   6.248   5.967  1.00  0.00     0.001 A 
HETATM    8  C9  UNK     1      11.565   6.887   6.642  1.00  0.00     0.012 A 
ENDBRANCH   1   3
BRANCH   1   9
HETATM    9  C5  UNK     1      12.210   8.817   9.917  1.00  0.00     0.252 C 
HETATM   10  O1  UNK     1      12.348   8.259  11.004  1.00  0.00    -0.268 OA
HETATM   11  N1  UNK     1      11.837  10.142   9.766  1.00  0.00    -0.357 N 
HETATM   12  H5  UNK     1      11.733  10.530   8.832  1.00  0.00     0.162 HD
BRANCH  11  13
HETATM   13  C1  UNK     1      11.571  11.002  10.895  1.00  0.00     0.122 C 
BRANCH  13  14
HETATM   14  C3  UNK     1      12.705  11.989  11.154  1.00  0.00     0.015 C 
HETATM   15  C8  UNK     1      13.885  11.353  11.874  1.00  0.00     0.006 C 
ENDBRANCH  13  14
ENDBRANCH  11  13
ENDBRANCH   1   9
BRANCH   2  16
HETATM   16  C7  UNK     1      14.851   8.746   8.779  1.00  0.00    -0.035 A 
HETATM   17  C11 UNK     1      15.596   8.042   9.712  1.00  0.00     0.011 A 
HETATM   18  C16 UNK     1      16.690   8.655  10.320  1.00  0.00     0.001 A 
HETATM   19  C18 UNK     1      17.028   9.967   9.988  1.00  0.00     0.000 A 
HETATM   20  C17 UNK     1      16.270  10.666   9.047  1.00  0.00     0.001 A 
HETATM   21  C12 UNK     1      15.175  10.052   8.439  1.00  0.00     0.011 A 
ENDBRANCH   2  16
TORSDOF 5
ENDMDL
MODEL 8
REMARK VINA RESULT:      -6.5     31.452     34.488
REMARK  5 active torsions:
REMARK  status: ('A' for Active; 'I' for Inactive)
REMARK    1  A    between atoms: C1_3  and  N1_2 
REMARK       I    between atoms: C5_7  and  N1_2 
REMARK    2  A    between atoms: C1_3  and  C3_5 
REMARK    3  A    between atoms: C2_4  and  C4_6 
REMARK    4  A    between atoms: C2_4  and  C5_7 
REMARK    5  A    between atoms: C6_8  and  C7_9 
ROOT
HETATM    1  C2  UNK     1      28.978  -6.636  34.752  1.00  0.00     0.043 C 
HETATM    2  C6  UNK     1      27.997  -7.318  35.380  1.00  0.00     0.029 C 
ENDROOT
BRANCH   1   3
HETATM    3  C4  UNK     1      28.904  -6.299  33.318  1.00  0.00    -0.021 A 
HETATM    4  C10 UNK     1      29.923  -5.558  32.743  1.00  0.00     0.012 A 
HETATM    5  C14 UNK     1      29.853  -5.240  31.387  1.00  0.00     0.001 A 
HETATM    6  C15 UNK     1      28.764  -5.665  30.626  1.00  0.00     0.000 A 
HETATM    7  C13 UNK     1      27.746  -6.410  31.221  1.00  0.00     0.001 A 
HETATM    8  C9  UNK     1      27.816  -6.729  32.577  1.00  0.00     0.012 A 
ENDBRANCH   1   3
BRANCH   1   9
HETATM    9  C5  UNK     1      30.167  -6.256  35.599  1.00  0.00     0.252 C 
HETATM   10  O1  UNK     1      31.158  -6.980  35.683  1.00  0.00    -0.268 OA
HETATM   11  N1  UNK     1      30.032  -5.046  36.260  1.00  0.00    -0.357 N 
HETATM   12  H5  UNK     1      29.178  -4.507  36.149  1.00  0.00     0.162 HD
BRANCH  11  13
HETATM   13  C1  UNK     1      31.063  -4.519  37.124  1.00  0.00     0.122 C 
BRANCH  13  14
HETATM   14  C3  UNK     1      30.823  -4.861  38.590  1.00  0.00     0.015 C 
HETATM   15  C8  UNK     1      29.606  -4.152  39.167  1.00  0.00     0.006 C 
ENDBRANCH  13  14
ENDBRANCH  11  13
ENDBRANCH   1   9
BRANCH   2  16
HETATM   16  C7  UNK     1      27.988  -7.697  36.800  1.00  0.00    -0.035 A 
HETATM   17  C11 UNK     1      27.455  -6.823  37.736  1.00  0.00     0.011 A 
HETATM   18  C16 UNK     1      27.447  -7.183  39.083  1.00  0.00     0.001 A 
HETATM   19  C18 UNK     1      27.970  -8.413  39.480  1.00  0.00     0.000 A 
HETATM   20  C17 UNK     1      28.503  -9.284  38.528  1.00  0.00     0.001 A 
HETATM   21  C12 UNK     1      28.511  -8.925  37.181  1.00  0.00     0.011 A 
ENDBRANCH   2  16
TORSDOF 5
ENDMDL
MODEL 9
REMARK VINA RESULT:      -6.5     31.463     34.505
REMARK  5 active torsions:
REMARK  status: ('A' for Active; 'I' for Inactive)
REMARK    1  A    between atoms: C1_3  and  N1_2 
REMARK       I    between atoms: C5_7  and  N1_2 
REMARK    2  A    between atoms: C1_3  and  C3_5 
REMARK    3  A    between atoms: C2_4  and  C4_6 
REMARK    4  A    between atoms: C2_4  and  C5_7 
REMARK    5  A    between atoms: C6_8  and  C7_9 
ROOT
HETATM    1  C2  UNK     1      28.972  -6.643  34.768  1.00  0.00     0.043 C 
HETATM    2  C6  UNK     1      27.988  -7.328  35.388  1.00  0.00     0.029 C 
ENDROOT
BRANCH   1   3
HETATM    3  C4  UNK     1      28.907  -6.303  33.334  1.00  0.00    -0.021 A 
HETATM    4  C10 UNK     1      27.806  -6.698  32.594  1.00  0.00     0.012 A 
HETATM    5  C14 UNK     1      27.744  -6.376  31.238  1.00  0.00     0.001 A 
HETATM    6  C15 UNK     1      28.786  -5.666  30.642  1.00  0.00     0.000 A 
HETATM    7  C13 UNK     1      29.889  -5.276  31.402  1.00  0.00     0.001 A 
HETATM    8  C9  UNK     1      29.950  -5.598  32.758  1.00  0.00     0.012 A 
ENDBRANCH   1   3
BRANCH   1   9
HETATM    9  C5  UNK     1      30.155  -6.264  35.624  1.00  0.00     0.252 C 
HETATM   10  O1  UNK     1      31.136  -6.998  35.730  1.00  0.00    -0.268 OA
HETATM   11  N1  UNK     1      30.026  -5.044  36.265  1.00  0.00    -0.357 N 
HETATM   12  H5  UNK     1      29.179  -4.497  36.137  1.00  0.00     0.162 HD
BRANCH  11  13
HETATM   13  C1  UNK     1      31.053  -4.516  37.134  1.00  0.00     0.122 C 
BRANCH  13  14
HETATM   14  C3  UNK     1      30.812  -4.867  38.598  1.00  0.00     0.015 C 
HETATM   15  C8  UNK     1      29.620  -4.131  39.191  1.00  0.00     0.006 C 
ENDBRANCH  13  14
ENDBRANCH  11  13
ENDBRANCH   1   9
BRANCH   2  16
HETATM   16  C7  UNK     1      27.969  -7.710  36.807  1.00  0.00    -0.035 A 
HETATM   17  C11 UNK     1      27.470  -6.821  37.746  1.00  0.00     0.011 A 
HETATM   18  C16 UNK     1      27.452  -7.183  39.093  1.00  0.00     0.001 A 
HETATM   19  C18 UNK     1      27.934  -8.432  39.485  1.00  0.00     0.000 A 
HETATM   20  C17 UNK     1      28.435  -9.318  38.530  1.00  0.00     0.001 A 
HETATM   21  C12 UNK     1      28.452  -8.955  37.184  1.00  0.00     0.011 A 
ENDBRANCH   2  16
TORSDOF 5
ENDMDL
MODEL 10
REMARK VINA RESULT:      -6.3     30.079     32.552
REMARK  5 active torsions:
REMARK  status: ('A' for Active; 'I' for Inactive)
REMARK    1  A    between atoms: C1_3  and  N1_2 
REMARK       I    between atoms: C5_7  and  N1_2 
REMARK    2  A    between atoms: C1_3  and  C3_5 
REMARK    3  A    between atoms: C2_4  and  C4_6 
REMARK    4  A    between atoms: C2_4  and  C5_7 
REMARK    5  A    between atoms: C6_8  and  C7_9 
ROOT
HETATM    1  C2  UNK     1      20.118  -5.458  36.684  1.00  0.00     0.043 C 
HETATM    2  C6  UNK     1      19.837  -6.498  35.871  1.00  0.00     0.029 C 
ENDROOT
BRANCH   1   3
HETATM    3  C4  UNK     1      19.853  -4.061  36.289  1.00  0.00    -0.021 A 
HETATM    4  C10 UNK     1      19.170  -3.230  37.160  1.00  0.00     0.012 A 
HETATM    5  C14 UNK     1      18.920  -1.909  36.786  1.00  0.00     0.001 A 
HETATM    6  C15 UNK     1      19.355  -1.441  35.546  1.00  0.00     0.000 A 
HETATM    7  C13 UNK     1      20.041  -2.292  34.681  1.00  0.00     0.001 A 
HETATM    8  C9  UNK     1      20.292  -3.612  35.055  1.00  0.00     0.012 A 
ENDBRANCH   1   3
BRANCH   1   9
HETATM    9  C5  UNK     1      20.740  -5.805  38.014  1.00  0.00     0.252 C 
HETATM   10  O1  UNK     1      20.054  -6.010  39.014  1.00  0.00    -0.268 OA
HETATM   11  N1  UNK     1      22.124  -5.863  37.997  1.00  0.00    -0.357 N 
HETATM   12  H5  UNK     1      22.623  -5.671  37.133  1.00  0.00     0.162 HD
BRANCH  11  13
HETATM   13  C1  UNK     1      22.897  -6.173  39.177  1.00  0.00     0.122 C 
BRANCH  13  14
HETATM   14  C3  UNK     1      23.296  -7.643  39.240  1.00  0.00     0.015 C 
HETATM   15  C8  UNK     1      22.217  -8.520  39.857  1.00  0.00     0.006 C 
ENDBRANCH  13  14
ENDBRANCH  11  13
ENDBRANCH   1   9
BRANCH   2  16
HETATM   16  C7  UNK     1      20.068  -7.917  36.181  1.00  0.00    -0.035 A 
HETATM   17  C11 UNK     1      21.240  -8.525  35.759  1.00  0.00     0.011 A 
HETATM   18  C16 UNK     1      21.458  -9.871  36.052  1.00  0.00     0.001 A 
HETATM   19  C18 UNK     1      20.502 -10.594  36.765  1.00  0.00     0.000 A 
HETATM   20  C17 UNK     1      19.326  -9.970  37.184  1.00  0.00     0.001 A 
HETATM   21  C12 UNK     1      19.108  -8.624  36.891  1.00  0.00     0.011 A 
ENDBRANCH   2  16
TORSDOF 5
ENDMDL
