MODEL 1
REMARK VINA RESULT:      -8.2      0.000      0.000
REMARK  4 active torsions:
REMARK  status: ('A' for Active; 'I' for Inactive)
REMARK    1  A    between atoms: C1_6  and  N1_5 
REMARK       I    between atoms: C5_10  and  N1_5 
REMARK    2  A    between atoms: C1_6  and  C2_7 
REMARK    3  A    between atoms: C1_6  and  C3_8 
REMARK    4  A    between atoms: C5_10  and  C8_13 
ROOT
HETATM    1  O2  UNK     1      19.421   5.389  34.172  1.00  0.00    -0.267 OA
HETATM    2  N1  UNK     1      17.752   5.289  32.547  1.00  0.00    -0.348 N 
HETATM    3  C5  UNK     1      18.602   4.762  33.503  1.00  0.00     0.258 C 
HETATM    4  H4  UNK     1      17.064   4.690  32.100  1.00  0.00     0.163 HD
ENDROOT
BRANCH   3   5
HETATM    5  C8  UNK     1      18.445   3.312  33.669  1.00  0.00     0.108 A 
HETATM    6  C10 UNK     1      18.448   2.857  34.927  1.00  0.00     0.037 A 
HETATM    7  C9  UNK     1      18.298   1.435  35.193  1.00  0.00     0.001 A 
HETATM    8  C11 UNK     1      18.151   0.562  34.121  1.00  0.00     0.089 A 
HETATM    9  C16 UNK     1      18.295   0.916  36.490  1.00  0.00     0.038 A 
HETATM   10  O1  UNK     1      18.148   1.046  32.798  1.00  0.00    -0.274 OA
HETATM   11  C17 UNK     1      18.002  -0.812  34.307  1.00  0.00     0.040 A 
HETATM   12  C14 UNK     1      18.290   2.402  32.512  1.00  0.00     0.304 A 
HETATM   13  O3  UNK     1      18.287   2.814  31.357  1.00  0.00    -0.259 OA
HETATM   14  C19 UNK     1      18.002  -1.320  35.603  1.00  0.00     0.026 A 
HETATM   15  C18 UNK     1      18.148  -0.459  36.693  1.00  0.00     0.035 A 
HETATM   16 Cl1  UNK     1      18.145  -1.094  38.294  1.00  0.00    -0.084 Cl
ENDBRANCH   3   5
BRANCH   2  17
HETATM   17  C1  UNK     1      17.721   6.694  32.210  1.00  0.00     0.117 C 
BRANCH  17  18
HETATM   18  C2  UNK     1      17.824   6.905  30.689  1.00  0.00     0.025 C 
HETATM   19  C4  UNK     1      18.949   6.094  30.061  1.00  0.00     0.007 C 
ENDBRANCH  17  18
BRANCH  17  20
HETATM   20  C3  UNK     1      16.487   7.357  32.785  1.00  0.00    -0.035 A 
HETATM   21  C6  UNK     1      16.622   8.215  33.862  1.00  0.00     0.009 A 
HETATM   22  C12 UNK     1      15.486   8.825  34.393  1.00  0.00     0.001 A 
HETATM   23  C15 UNK     1      14.231   8.566  33.838  1.00  0.00     0.000 A 
HETATM   24  C13 UNK     1      14.115   7.697  32.752  1.00  0.00     0.001 A 
HETATM   25  C7  UNK     1      15.253   7.088  32.222  1.00  0.00     0.009 A 
ENDBRANCH  17  20
ENDBRANCH   2  17
TORSDOF 4
ENDMDL
MODEL 2
REMARK VINA RESULT:      -8.1      3.095      4.028
REMARK  4 active torsions:
REMARK  status: ('A' for Active; 'I' for Inactive)
REMARK    1  A    between atoms: C1_6  and  N1_5 
REMARK       I    between atoms: C5_10  and  N1_5 
REMARK    2  A    between atoms: C1_6  and  C2_7 
REMARK    3  A    between atoms: C1_6  and  C3_8 
REMARK    4  A    between atoms: C5_10  and  C8_13 
ROOT
HETATM    1  O2  UNK     1      17.587   3.363  33.435  1.00  0.00    -0.267 OA
HETATM    2  N1  UNK     1      18.933   4.916  32.334  1.00  0.00    -0.348 N 
HETATM    3  C5  UNK     1      18.344   3.678  32.518  1.00  0.00     0.258 C 
HETATM    4  H4  UNK     1      19.489   5.090  31.502  1.00  0.00     0.163 HD
ENDROOT
BRANCH   3   5
HETATM    5  C8  UNK     1      18.710   2.711  31.476  1.00  0.00     0.108 A 
HETATM    6  C10 UNK     1      19.128   1.514  31.902  1.00  0.00     0.037 A 
HETATM    7  C9  UNK     1      19.512   0.488  30.944  1.00  0.00     0.001 A 
HETATM    8  C11 UNK     1      19.436   0.774  29.585  1.00  0.00     0.089 A 
HETATM    9  C16 UNK     1      19.955  -0.775  31.343  1.00  0.00     0.038 A 
HETATM   10  O1  UNK     1      18.994   2.036  29.143  1.00  0.00    -0.274 OA
HETATM   11  C17 UNK     1      19.789  -0.164  28.616  1.00  0.00     0.040 A 
HETATM   12  C14 UNK     1      18.620   3.038  30.035  1.00  0.00     0.304 A 
HETATM   13  O3  UNK     1      18.237   4.134  29.641  1.00  0.00    -0.259 OA
HETATM   14  C19 UNK     1      20.229  -1.421  29.023  1.00  0.00     0.026 A 
HETATM   15  C18 UNK     1      20.313  -1.727  30.383  1.00  0.00     0.035 A 
HETATM   16 Cl1  UNK     1      20.858  -3.283  30.879  1.00  0.00    -0.084 Cl
ENDBRANCH   3   5
BRANCH   2  17
HETATM   17  C1  UNK     1      18.721   6.030  33.230  1.00  0.00     0.117 C 
BRANCH  17  18
HETATM   18  C2  UNK     1      19.910   7.006  33.199  1.00  0.00     0.025 C 
HETATM   19  C4  UNK     1      19.721   8.187  34.141  1.00  0.00     0.007 C 
ENDBRANCH  17  18
BRANCH  17  20
HETATM   20  C3  UNK     1      17.414   6.729  32.915  1.00  0.00    -0.035 A 
HETATM   21  C6  UNK     1      17.215   7.247  31.648  1.00  0.00     0.009 A 
HETATM   22  C12 UNK     1      16.012   7.891  31.358  1.00  0.00     0.001 A 
HETATM   23  C15 UNK     1      15.028   8.007  32.342  1.00  0.00     0.000 A 
HETATM   24  C13 UNK     1      15.248   7.479  33.613  1.00  0.00     0.001 A 
HETATM   25  C7  UNK     1      16.451   6.835  33.903  1.00  0.00     0.009 A 
ENDBRANCH  17  20
ENDBRANCH   2  17
TORSDOF 4
ENDMDL
MODEL 3
REMARK VINA RESULT:      -8.1     24.326     25.835
REMARK  4 active torsions:
REMARK  status: ('A' for Active; 'I' for Inactive)
REMARK    1  A    between atoms: C1_6  and  N1_5 
REMARK       I    between atoms: C5_10  and  N1_5 
REMARK    2  A    between atoms: C1_6  and  C2_7 
REMARK    3  A    between atoms: C1_6  and  C3_8 
REMARK    4  A    between atoms: C5_10  and  C8_13 
ROOT
HETATM    1  O2  UNK     1      10.499   9.131   9.400  1.00  0.00    -0.267 OA
HETATM    2  N1  UNK     1      10.482   6.997   8.461  1.00  0.00    -0.348 N 
HETATM    3  C5  UNK     1      11.061   8.079   9.100  1.00  0.00     0.258 C 
HETATM    4  H4  UNK     1      11.021   6.147   8.321  1.00  0.00     0.163 HD
ENDROOT
BRANCH   3   5
HETATM    5  C8  UNK     1      12.479   7.866   9.412  1.00  0.00     0.108 A 
HETATM    6  C10 UNK     1      13.308   8.874   9.116  1.00  0.00     0.037 A 
HETATM    7  C9  UNK     1      14.731   8.757   9.390  1.00  0.00     0.001 A 
HETATM    8  C11 UNK     1      15.213   7.585   9.962  1.00  0.00     0.089 A 
HETATM    9  C16 UNK     1      15.633   9.784   9.097  1.00  0.00     0.038 A 
HETATM   10  O1  UNK     1      14.336   6.527  10.271  1.00  0.00    -0.274 OA
HETATM   11  C17 UNK     1      16.566   7.409  10.249  1.00  0.00     0.040 A 
HETATM   12  C14 UNK     1      12.969   6.609  10.021  1.00  0.00     0.304 A 
HETATM   13  O3  UNK     1      12.213   5.683  10.294  1.00  0.00    -0.259 OA
HETATM   14  C19 UNK     1      17.457   8.438   9.954  1.00  0.00     0.026 A 
HETATM   15  C18 UNK     1      16.993   9.623   9.379  1.00  0.00     0.035 A 
HETATM   16 Cl1  UNK     1      18.100  10.891   9.017  1.00  0.00    -0.084 Cl
ENDBRANCH   3   5
BRANCH   2  17
HETATM   17  C1  UNK     1       9.095   6.972   8.056  1.00  0.00     0.117 C 
BRANCH  17  18
HETATM   18  C2  UNK     1       8.897   6.108   6.798  1.00  0.00     0.025 C 
HETATM   19  C4  UNK     1      10.123   6.101   5.895  1.00  0.00     0.007 C 
ENDBRANCH  17  18
BRANCH  17  20
HETATM   20  C3  UNK     1       8.212   6.510   9.197  1.00  0.00    -0.035 A 
HETATM   21  C6  UNK     1       8.365   5.228   9.692  1.00  0.00     0.009 A 
HETATM   22  C12 UNK     1       7.552   4.802  10.742  1.00  0.00     0.001 A 
HETATM   23  C15 UNK     1       6.598   5.667  11.280  1.00  0.00     0.000 A 
HETATM   24  C13 UNK     1       6.458   6.956  10.767  1.00  0.00     0.001 A 
HETATM   25  C7  UNK     1       7.272   7.381   9.717  1.00  0.00     0.009 A 
ENDBRANCH  17  20
ENDBRANCH   2  17
TORSDOF 4
ENDMDL
MODEL 4
REMARK VINA RESULT:      -7.9      1.744      2.728
REMARK  4 active torsions:
REMARK  status: ('A' for Active; 'I' for Inactive)
REMARK    1  A    between atoms: C1_6  and  N1_5 
REMARK       I    between atoms: C5_10  and  N1_5 
REMARK    2  A    between atoms: C1_6  and  C2_7 
REMARK    3  A    between atoms: C1_6  and  C3_8 
REMARK    4  A    between atoms: C5_10  and  C8_13 
ROOT
HETATM    1  O2  UNK     1      18.858   5.512  31.034  1.00  0.00    -0.267 OA
HETATM    2  N1  UNK     1      17.344   5.996  32.740  1.00  0.00    -0.348 N 
HETATM    3  C5  UNK     1      18.184   5.177  32.006  1.00  0.00     0.258 C 
HETATM    4  H4  UNK     1      16.885   5.632  33.569  1.00  0.00     0.163 HD
ENDROOT
BRANCH   3   5
HETATM    5  C8  UNK     1      18.212   3.796  32.503  1.00  0.00     0.108 A 
HETATM    6  C10 UNK     1      18.112   3.643  33.828  1.00  0.00     0.037 A 
HETATM    7  C9  UNK     1      18.130   2.312  34.415  1.00  0.00     0.001 A 
HETATM    8  C11 UNK     1      18.251   1.208  33.578  1.00  0.00     0.089 A 
HETATM    9  C16 UNK     1      18.028   2.105  35.793  1.00  0.00     0.038 A 
HETATM   10  O1  UNK     1      18.356   1.376  32.183  1.00  0.00    -0.274 OA
HETATM   11  C17 UNK     1      18.274  -0.093  34.077  1.00  0.00     0.040 A 
HETATM   12  C14 UNK     1      18.342   2.637  31.592  1.00  0.00     0.304 A 
HETATM   13  O3  UNK     1      18.434   2.773  30.377  1.00  0.00    -0.259 OA
HETATM   14  C19 UNK     1      18.173  -0.290  35.452  1.00  0.00     0.026 A 
HETATM   15  C18 UNK     1      18.050   0.805  36.309  1.00  0.00     0.035 A 
HETATM   16 Cl1  UNK     1      17.925   0.554  38.008  1.00  0.00    -0.084 Cl
ENDBRANCH   3   5
BRANCH   2  17
HETATM   17  C1  UNK     1      17.153   7.397  32.442  1.00  0.00     0.117 C 
BRANCH  17  18
HETATM   18  C2  UNK     1      15.707   7.836  32.726  1.00  0.00     0.025 C 
HETATM   19  C4  UNK     1      14.683   7.001  31.968  1.00  0.00     0.007 C 
ENDBRANCH  17  18
BRANCH  17  20
HETATM   20  C3  UNK     1      18.155   8.247  33.197  1.00  0.00    -0.035 A 
HETATM   21  C6  UNK     1      17.863   9.577  33.439  1.00  0.00     0.009 A 
HETATM   22  C12 UNK     1      18.785  10.360  34.134  1.00  0.00     0.001 A 
HETATM   23  C15 UNK     1      19.985   9.799  34.574  1.00  0.00     0.000 A 
HETATM   24  C13 UNK     1      20.261   8.456  34.320  1.00  0.00     0.001 A 
HETATM   25  C7  UNK     1      19.338   7.674  33.625  1.00  0.00     0.009 A 
ENDBRANCH  17  20
ENDBRANCH   2  17
TORSDOF 4
ENDMDL
MODEL 5
REMARK VINA RESULT:      -7.9      3.353      7.561
REMARK  4 active torsions:
REMARK  status: ('A' for Active; 'I' for Inactive)
REMARK    1  A    between atoms: C1_6  and  N1_5 
REMARK       I    between atoms: C5_10  and  N1_5 
REMARK    2  A    between atoms: C1_6  and  C2_7 
REMARK    3  A    between atoms: C1_6  and  C3_8 
REMARK    4  A    between atoms: C5_10  and  C8_13 
ROOT
HETATM    1  O2  UNK     1      19.409   5.368  33.948  1.00  0.00    -0.267 OA
HETATM    2  N1  UNK     1      17.911   4.191  32.604  1.00  0.00    -0.348 N 
HETATM    3  C5  UNK     1      18.397   5.313  33.252  1.00  0.00     0.258 C 
HETATM    4  H4  UNK     1      17.101   4.273  31.996  1.00  0.00     0.163 HD
ENDROOT
BRANCH   3   5
HETATM    5  C8  UNK     1      17.566   6.503  33.035  1.00  0.00     0.108 A 
HETATM    6  C10 UNK     1      17.026   7.055  34.127  1.00  0.00     0.037 A 
HETATM    7  C9  UNK     1      16.187   8.238  34.013  1.00  0.00     0.001 A 
HETATM    8  C11 UNK     1      15.959   8.782  32.754  1.00  0.00     0.089 A 
HETATM    9  C16 UNK     1      15.603   8.847  35.127  1.00  0.00     0.038 A 
HETATM   10  O1  UNK     1      16.530   8.197  31.607  1.00  0.00    -0.274 OA
HETATM   11  C17 UNK     1      15.166   9.915  32.576  1.00  0.00     0.040 A 
HETATM   12  C14 UNK     1      17.337   7.065  31.685  1.00  0.00     0.304 A 
HETATM   13  O3  UNK     1      17.830   6.562  30.680  1.00  0.00    -0.259 OA
HETATM   14  C19 UNK     1      14.587  10.515  33.692  1.00  0.00     0.026 A 
HETATM   15  C18 UNK     1      14.805   9.983  34.965  1.00  0.00     0.035 A 
HETATM   16 Cl1  UNK     1      14.087  10.731  36.340  1.00  0.00    -0.084 Cl
ENDBRANCH   3   5
BRANCH   2  17
HETATM   17  C1  UNK     1      18.561   2.902  32.667  1.00  0.00     0.117 C 
BRANCH  17  18
HETATM   18  C2  UNK     1      17.887   1.989  33.705  1.00  0.00     0.025 C 
HETATM   19  C4  UNK     1      18.527   2.098  35.083  1.00  0.00     0.007 C 
ENDBRANCH  17  18
BRANCH  17  20
HETATM   20  C3  UNK     1      18.606   2.256  31.298  1.00  0.00    -0.035 A 
HETATM   21  C6  UNK     1      19.307   1.076  31.132  1.00  0.00     0.009 A 
HETATM   22  C12 UNK     1      19.349   0.481  29.871  1.00  0.00     0.001 A 
HETATM   23  C15 UNK     1      18.689   1.078  28.796  1.00  0.00     0.000 A 
HETATM   24  C13 UNK     1      17.987   2.268  28.983  1.00  0.00     0.001 A 
HETATM   25  C7  UNK     1      17.946   2.863  30.245  1.00  0.00     0.009 A 
ENDBRANCH  17  20
ENDBRANCH   2  17
TORSDOF 4
ENDMDL
MODEL 6
REMARK VINA RESULT:      -7.9     12.649     15.463
REMARK  4 active torsions:
REMARK  status: ('A' for Active; 'I' for Inactive)
REMARK    1  A    between atoms: C1_6  and  N1_5 
REMARK       I    between atoms: C5_10  and  N1_5 
REMARK    2  A    between atoms: C1_6  and  C2_7 
REMARK    3  A    between atoms: C1_6  and  C3_8 
REMARK    4  A    between atoms: C5_10  and  C8_13 
ROOT
HETATM    1  O2  UNK     1      25.578  -9.161  39.405  1.00  0.00    -0.267 OA
HETATM    2  N1  UNK     1      24.146  -7.616  38.407  1.00  0.00    -0.348 N 
HETATM    3  C5  UNK     1      25.358  -8.059  38.906  1.00  0.00     0.258 C 
HETATM    4  H4  UNK     1      24.091  -6.709  37.952  1.00  0.00     0.163 HD
ENDROOT
BRANCH   3   5
HETATM    5  C8  UNK     1      26.425  -7.058  38.788  1.00  0.00     0.108 A 
HETATM    6  C10 UNK     1      27.667  -7.533  38.642  1.00  0.00     0.037 A 
HETATM    7  C9  UNK     1      28.791  -6.618  38.516  1.00  0.00     0.001 A 
HETATM    8  C11 UNK     1      28.552  -5.249  38.548  1.00  0.00     0.089 A 
HETATM    9  C16 UNK     1      30.104  -7.069  38.362  1.00  0.00     0.038 A 
HETATM   10  O1  UNK     1      27.242  -4.755  38.702  1.00  0.00    -0.274 OA
HETATM   11  C17 UNK     1      29.584  -4.319  38.433  1.00  0.00     0.040 A 
HETATM   12  C14 UNK     1      26.146  -5.605  38.825  1.00  0.00     0.304 A 
HETATM   13  O3  UNK     1      25.008  -5.166  38.958  1.00  0.00    -0.259 OA
HETATM   14  C19 UNK     1      30.890  -4.778  38.280  1.00  0.00     0.026 A 
HETATM   15  C18 UNK     1      31.151  -6.149  38.245  1.00  0.00     0.035 A 
HETATM   16 Cl1  UNK     1      32.768  -6.709  38.056  1.00  0.00    -0.084 Cl
ENDBRANCH   3   5
BRANCH   2  17
HETATM   17  C1  UNK     1      22.949  -8.425  38.411  1.00  0.00     0.117 C 
BRANCH  17  18
HETATM   18  C2  UNK     1      22.161  -8.249  39.721  1.00  0.00     0.025 C 
HETATM   19  C4  UNK     1      20.936  -9.151  39.792  1.00  0.00     0.007 C 
ENDBRANCH  17  18
BRANCH  17  20
HETATM   20  C3  UNK     1      22.093  -8.124  37.198  1.00  0.00    -0.035 A 
HETATM   21  C6  UNK     1      22.072  -9.023  36.148  1.00  0.00     0.009 A 
HETATM   22  C12 UNK     1      21.285  -8.745  35.030  1.00  0.00     0.001 A 
HETATM   23  C15 UNK     1      20.532  -7.571  34.982  1.00  0.00     0.000 A 
HETATM   24  C13 UNK     1      20.567  -6.676  36.051  1.00  0.00     0.001 A 
HETATM   25  C7  UNK     1      21.355  -6.955  37.168  1.00  0.00     0.009 A 
ENDBRANCH  17  20
ENDBRANCH   2  17
TORSDOF 4
ENDMDL
MODEL 7
REMARK VINA RESULT:      -7.8     17.369     20.129
REMARK  4 active torsions:
REMARK  status: ('A' for Active; 'I' for Inactive)
REMARK    1  A    between atoms: C1_6  and  N1_5 
REMARK       I    between atoms: C5_10  and  N1_5 
REMARK    2  A    between atoms: C1_6  and  C2_7 
REMARK    3  A    between atoms: C1_6  and  C3_8 
REMARK    4  A    between atoms: C5_10  and  C8_13 
ROOT
HETATM    1  O2  UNK     1      17.854  -3.331  13.935  1.00  0.00    -0.267 OA
HETATM    2  N1  UNK     1      19.801  -3.873  15.097  1.00  0.00    -0.348 N 
HETATM    3  C5  UNK     1      18.789  -3.029  14.674  1.00  0.00     0.258 C 
HETATM    4  H4  UNK     1      20.489  -3.538  15.765  1.00  0.00     0.163 HD
ENDROOT
BRANCH   3   5
HETATM    5  C8  UNK     1      18.922  -1.667  15.204  1.00  0.00     0.108 A 
HETATM    6  C10 UNK     1      18.779  -1.530  16.527  1.00  0.00     0.037 A 
HETATM    7  C9  UNK     1      18.896  -0.219  17.145  1.00  0.00     0.001 A 
HETATM    8  C11 UNK     1      19.158   0.884  16.340  1.00  0.00     0.089 A 
HETATM    9  C16 UNK     1      18.753  -0.029  18.522  1.00  0.00     0.038 A 
HETATM   10  O1  UNK     1      19.307   0.735  14.947  1.00  0.00    -0.274 OA
HETATM   11  C17 UNK     1      19.281   2.168  16.869  1.00  0.00     0.040 A 
HETATM   12  C14 UNK     1      19.202  -0.508  14.327  1.00  0.00     0.304 A 
HETATM   13  O3  UNK     1      19.334  -0.629  13.113  1.00  0.00    -0.259 OA
HETATM   14  C19 UNK     1      19.137   2.347  18.243  1.00  0.00     0.026 A 
HETATM   15  C18 UNK     1      18.874   1.252  19.068  1.00  0.00     0.035 A 
HETATM   16 Cl1  UNK     1      18.698   1.481  20.766  1.00  0.00    -0.084 Cl
ENDBRANCH   3   5
BRANCH   2  17
HETATM   17  C1  UNK     1      19.881  -5.263  14.709  1.00  0.00     0.117 C 
BRANCH  17  18
HETATM   18  C2  UNK     1      21.038  -5.977  15.428  1.00  0.00     0.025 C 
HETATM   19  C4  UNK     1      21.985  -5.005  16.121  1.00  0.00     0.007 C 
ENDBRANCH  17  18
BRANCH  17  20
HETATM   20  C3  UNK     1      18.558  -5.962  14.944  1.00  0.00    -0.035 A 
HETATM   21  C6  UNK     1      18.014  -5.966  16.215  1.00  0.00     0.009 A 
HETATM   22  C12 UNK     1      16.796  -6.610  16.432  1.00  0.00     0.001 A 
HETATM   23  C15 UNK     1      16.143  -7.242  15.373  1.00  0.00     0.000 A 
HETATM   24  C13 UNK     1      16.707  -7.228  14.098  1.00  0.00     0.001 A 
HETATM   25  C7  UNK     1      17.926  -6.583  13.882  1.00  0.00     0.009 A 
ENDBRANCH  17  20
ENDBRANCH   2  17
TORSDOF 4
ENDMDL
MODEL 8
REMARK VINA RESULT:      -7.8     12.785     15.851
REMARK  4 active torsions:
REMARK  status: ('A' for Active; 'I' for Inactive)
REMARK    1  A    between atoms: C1_6  and  N1_5 
REMARK       I    between atoms: C5_10  and  N1_5 
REMARK    2  A    between atoms: C1_6  and  C2_7 
REMARK    3  A    between atoms: C1_6  and  C3_8 
REMARK    4  A    between atoms: C5_10  and  C8_13 
ROOT
HETATM    1  O2  UNK     1      27.089  -8.701  39.708  1.00  0.00    -0.267 OA
HETATM    2  N1  UNK     1      27.421  -7.571  37.696  1.00  0.00    -0.348 N 
HETATM    3  C5  UNK     1      26.693  -7.967  38.805  1.00  0.00     0.258 C 
HETATM    4  H4  UNK     1      27.019  -6.905  37.043  1.00  0.00     0.163 HD
ENDROOT
BRANCH   3   5
HETATM    5  C8  UNK     1      25.335  -7.413  38.824  1.00  0.00     0.108 A 
HETATM    6  C10 UNK     1      24.334  -8.302  38.825  1.00  0.00     0.037 A 
HETATM    7  C9  UNK     1      22.952  -7.849  38.844  1.00  0.00     0.001 A 
HETATM    8  C11 UNK     1      22.691  -6.483  38.862  1.00  0.00     0.089 A 
HETATM    9  C16 UNK     1      21.876  -8.740  38.846  1.00  0.00     0.038 A 
HETATM   10  O1  UNK     1      23.748  -5.552  38.861  1.00  0.00    -0.274 OA
HETATM   11  C17 UNK     1      21.389  -5.984  38.881  1.00  0.00     0.040 A 
HETATM   12  C14 UNK     1      25.081  -5.955  38.843  1.00  0.00     0.304 A 
HETATM   13  O3  UNK     1      25.995  -5.138  38.842  1.00  0.00    -0.259 OA
HETATM   14  C19 UNK     1      20.323  -6.880  38.883  1.00  0.00     0.026 A 
HETATM   15  C18 UNK     1      20.565  -8.255  38.865  1.00  0.00     0.035 A 
HETATM   16 Cl1  UNK     1      19.242  -9.358  38.867  1.00  0.00    -0.084 Cl
ENDBRANCH   3   5
BRANCH   2  17
HETATM   17  C1  UNK     1      28.784  -7.987  37.460  1.00  0.00     0.117 C 
BRANCH  17  18
HETATM   18  C2  UNK     1      28.970  -8.500  36.021  1.00  0.00     0.025 C 
HETATM   19  C4  UNK     1      27.971  -9.590  35.656  1.00  0.00     0.007 C 
ENDBRANCH  17  18
BRANCH  17  20
HETATM   20  C3  UNK     1      29.751  -6.866  37.784  1.00  0.00    -0.035 A 
HETATM   21  C6  UNK     1      29.306  -5.557  37.730  1.00  0.00     0.009 A 
HETATM   22  C12 UNK     1      30.195  -4.524  38.028  1.00  0.00     0.001 A 
HETATM   23  C15 UNK     1      31.515  -4.818  38.373  1.00  0.00     0.000 A 
HETATM   24  C13 UNK     1      31.945  -6.144  38.421  1.00  0.00     0.001 A 
HETATM   25  C7  UNK     1      31.055  -7.177  38.123  1.00  0.00     0.009 A 
ENDBRANCH  17  20
ENDBRANCH   2  17
TORSDOF 4
ENDMDL
MODEL 9
REMARK VINA RESULT:      -7.7      3.106      7.568
REMARK  4 active torsions:
REMARK  status: ('A' for Active; 'I' for Inactive)
REMARK    1  A    between atoms: C1_6  and  N1_5 
REMARK       I    between atoms: C5_10  and  N1_5 
REMARK    2  A    between atoms: C1_6  and  C2_7 
REMARK    3  A    between atoms: C1_6  and  C3_8 
REMARK    4  A    between atoms: C5_10  and  C8_13 
ROOT
HETATM    1  O2  UNK     1      18.048   0.665  29.813  1.00  0.00    -0.267 OA
HETATM    2  N1  UNK     1      19.050   0.663  31.918  1.00  0.00    -0.348 N 
HETATM    3  C5  UNK     1      18.494   1.253  30.797  1.00  0.00     0.258 C 
HETATM    4  H4  UNK     1      19.326   1.242  32.706  1.00  0.00     0.163 HD
ENDROOT
BRANCH   3   5
HETATM    5  C8  UNK     1      18.473   2.718  30.873  1.00  0.00     0.108 A 
HETATM    6  C10 UNK     1      18.288   3.245  32.089  1.00  0.00     0.037 A 
HETATM    7  C9  UNK     1      18.254   4.689  32.265  1.00  0.00     0.001 A 
HETATM    8  C11 UNK     1      18.418   5.507  31.152  1.00  0.00     0.089 A 
HETATM    9  C16 UNK     1      18.063   5.282  33.515  1.00  0.00     0.038 A 
HETATM   10  O1  UNK     1      18.612   4.947  29.874  1.00  0.00    -0.274 OA
HETATM   11  C17 UNK     1      18.395   6.897  31.253  1.00  0.00     0.040 A 
HETATM   12  C14 UNK     1      18.650   3.569  29.675  1.00  0.00     0.304 A 
HETATM   13  O3  UNK     1      18.820   3.090  28.558  1.00  0.00    -0.259 OA
HETATM   14  C19 UNK     1      18.204   7.480  32.503  1.00  0.00     0.026 A 
HETATM   15  C18 UNK     1      18.038   6.675  33.632  1.00  0.00     0.035 A 
HETATM   16 Cl1  UNK     1      17.802   7.402  35.176  1.00  0.00    -0.084 Cl
ENDBRANCH   3   5
BRANCH   2  17
HETATM   17  C1  UNK     1      19.177  -0.768  32.074  1.00  0.00     0.117 C 
BRANCH  17  18
HETATM   18  C2  UNK     1      20.488  -1.282  31.455  1.00  0.00     0.025 C 
HETATM   19  C4  UNK     1      20.260  -2.060  30.166  1.00  0.00     0.007 C 
ENDBRANCH  17  18
BRANCH  17  20
HETATM   20  C3  UNK     1      19.054  -1.161  33.532  1.00  0.00    -0.035 A 
HETATM   21  C6  UNK     1      18.046  -0.604  34.298  1.00  0.00     0.009 A 
HETATM   22  C12 UNK     1      17.933  -0.965  35.640  1.00  0.00     0.001 A 
HETATM   23  C15 UNK     1      18.831  -1.877  36.195  1.00  0.00     0.000 A 
HETATM   24  C13 UNK     1      19.842  -2.428  35.407  1.00  0.00     0.001 A 
HETATM   25  C7  UNK     1      19.954  -2.066  34.064  1.00  0.00     0.009 A 
ENDBRANCH  17  20
ENDBRANCH   2  17
TORSDOF 4
ENDMDL
MODEL 10
REMARK VINA RESULT:      -7.6      6.212     11.262
REMARK  4 active torsions:
REMARK  status: ('A' for Active; 'I' for Inactive)
REMARK    1  A    between atoms: C1_6  and  N1_5 
REMARK       I    between atoms: C5_10  and  N1_5 
REMARK    2  A    between atoms: C1_6  and  C2_7 
REMARK    3  A    between atoms: C1_6  and  C3_8 
REMARK    4  A    between atoms: C5_10  and  C8_13 
ROOT
HETATM    1  O2  UNK     1      21.152  -3.615  36.756  1.00  0.00    -0.267 OA
HETATM    2  N1  UNK     1      19.264  -4.763  36.012  1.00  0.00    -0.348 N 
HETATM    3  C5  UNK     1      20.161  -3.710  36.033  1.00  0.00     0.258 C 
HETATM    4  H4  UNK     1      18.515  -4.772  35.325  1.00  0.00     0.163 HD
ENDROOT
BRANCH   3   5
HETATM    5  C8  UNK     1      19.823  -2.652  35.074  1.00  0.00     0.108 A 
HETATM    6  C10 UNK     1      20.337  -2.782  33.845  1.00  0.00     0.037 A 
HETATM    7  C9  UNK     1      20.057  -1.784  32.824  1.00  0.00     0.001 A 
HETATM    8  C11 UNK     1      19.250  -0.699  33.147  1.00  0.00     0.089 A 
HETATM    9  C16 UNK     1      20.572  -1.879  31.530  1.00  0.00     0.038 A 
HETATM   10  O1  UNK     1      18.711  -0.567  34.442  1.00  0.00    -0.274 OA
HETATM   11  C17 UNK     1      18.944   0.291  32.215  1.00  0.00     0.040 A 
HETATM   12  C14 UNK     1      18.961  -1.506  35.440  1.00  0.00     0.304 A 
HETATM   13  O3  UNK     1      18.488  -1.383  36.565  1.00  0.00    -0.259 OA
HETATM   14  C19 UNK     1      19.462   0.189  30.927  1.00  0.00     0.026 A 
HETATM   15  C18 UNK     1      20.275  -0.894  30.583  1.00  0.00     0.035 A 
HETATM   16 Cl1  UNK     1      20.912  -1.015  28.988  1.00  0.00    -0.084 Cl
ENDBRANCH   3   5
BRANCH   2  17
HETATM   17  C1  UNK     1      19.389  -5.922  36.866  1.00  0.00     0.117 C 
BRANCH  17  18
HETATM   18  C2  UNK     1      18.013  -6.409  37.351  1.00  0.00     0.025 C 
HETATM   19  C4  UNK     1      17.006  -6.538  36.216  1.00  0.00     0.007 C 
ENDBRANCH  17  18
BRANCH  17  20
HETATM   20  C3  UNK     1      20.159  -7.023  36.166  1.00  0.00    -0.035 A 
HETATM   21  C6  UNK     1      20.725  -8.035  36.921  1.00  0.00     0.009 A 
HETATM   22  C12 UNK     1      21.434  -9.048  36.276  1.00  0.00     0.001 A 
HETATM   23  C15 UNK     1      21.566  -9.032  34.887  1.00  0.00     0.000 A 
HETATM   24  C13 UNK     1      20.989  -8.003  34.144  1.00  0.00     0.001 A 
HETATM   25  C7  UNK     1      20.280  -6.990  34.789  1.00  0.00     0.009 A 
ENDBRANCH  17  20
ENDBRANCH   2  17
TORSDOF 4
ENDMDL
