MODEL 1
REMARK VINA RESULT:      -9.1      0.000      0.000
REMARK  6 active torsions:
REMARK  status: ('A' for Active; 'I' for Inactive)
REMARK    1  A    between atoms: C17_23  and  O2_2 
REMARK    2  A    between atoms: C19_25  and  O2_2 
REMARK    3  A    between atoms: C16_22  and  O3_3 
REMARK    4  A    between atoms: C23_29  and  N1_6 
REMARK    5  A    between atoms: C7_13  and  C9_15 
REMARK    6  A    between atoms: C11_17  and  C17_23 
ROOT
HETATM    1  C9  UNK     1      28.720  -6.558  34.587  1.00  0.00    -0.035 A 
HETATM    2  C11 UNK     1      28.549  -7.558  36.780  1.00  0.00     0.000 A 
HETATM    3  C12 UNK     1      27.964  -7.205  35.564  1.00  0.00     0.023 A 
HETATM    4  C15 UNK     1      30.063  -6.265  34.826  1.00  0.00     0.014 A 
HETATM    5  C16 UNK     1      29.891  -7.264  37.018  1.00  0.00     0.076 A 
HETATM    6  C18 UNK     1      30.649  -6.618  36.042  1.00  0.00     0.038 A 
ENDROOT
BRANCH   1   7
HETATM    7  C7  UNK     1      28.103  -6.187  33.304  1.00  0.00     0.022 C 
HETATM    8  C4  UNK     1      28.269  -6.832  32.141  1.00  0.00    -0.006 C 
HETATM    9  C2  UNK     1      27.614  -6.412  30.861  1.00  0.00     0.047 C 
HETATM   10  C6  UNK     1      29.150  -8.037  32.110  1.00  0.00     0.189 C 
HETATM   11  C1  UNK     1      27.011  -7.613  30.143  1.00  0.00     0.044 C 
HETATM   12  C3  UNK     1      28.033  -8.704  29.963  1.00  0.00    -0.044 A 
HETATM   13  C5  UNK     1      29.050  -8.907  30.910  1.00  0.00     0.021 A 
HETATM   14  C8  UNK     1      27.943  -9.568  28.863  1.00  0.00     0.008 A 
HETATM   15  C10 UNK     1      29.970  -9.948  30.744  1.00  0.00     0.016 A 
HETATM   16  C14 UNK     1      29.877 -10.791  29.636  1.00  0.00     0.001 A 
HETATM   17  C13 UNK     1      28.863 -10.603  28.698  1.00  0.00     0.001 A 
HETATM   18  O1  UNK     1      29.927  -8.309  33.017  1.00  0.00    -0.287 OA
ENDBRANCH   1   7
BRANCH   2  19
HETATM   19  C17 UNK     1      27.724  -8.252  37.814  1.00  0.00     0.217 C 
BRANCH  19  20
HETATM   20  O2  UNK     1      27.483  -9.591  37.402  1.00  0.00    -0.347 OA
BRANCH  20  21
HETATM   21  C19 UNK     1      26.203  -9.899  37.021  1.00  0.00     0.069 A 
HETATM   22  C21 UNK     1      25.919 -11.151  36.478  1.00  0.00     0.046 A 
HETATM   23  C20 UNK     1      24.616 -11.464  36.091  1.00  0.00    -0.026 A 
HETATM   24  C23 UNK     1      23.597 -10.524  36.248  1.00  0.00     0.108 A 
HETATM   25  C25 UNK     1      24.345 -12.815  35.511  1.00  0.00     0.050 C 
HETATM   26  C24 UNK     1      23.881  -9.271  36.792  1.00  0.00     0.039 A 
HETATM   27  C22 UNK     1      25.184  -8.958  37.178  1.00  0.00     0.039 A 
BRANCH  24  28
HETATM   28  N1  UNK     1      22.261 -10.822  35.860  1.00  0.00    -0.115 N 
HETATM   29  O4  UNK     1      21.948 -10.736  34.649  1.00  0.00    -0.532 OA
HETATM   30  O5  UNK     1      21.436 -11.160  36.741  1.00  0.00    -0.532 OA
ENDBRANCH  24  28
ENDBRANCH  20  21
ENDBRANCH  19  20
ENDBRANCH   2  19
BRANCH   5  31
HETATM   31  O3  UNK     1      30.480  -7.602  38.200  1.00  0.00    -0.355 OA
HETATM   32  C26 UNK     1      31.889  -7.410  38.301  1.00  0.00     0.210 C 
ENDBRANCH   5  31
TORSDOF 6
ENDMDL
MODEL 2
REMARK VINA RESULT:      -9.0      4.284      5.292
REMARK  6 active torsions:
REMARK  status: ('A' for Active; 'I' for Inactive)
REMARK    1  A    between atoms: C17_23  and  O2_2 
REMARK    2  A    between atoms: C19_25  and  O2_2 
REMARK    3  A    between atoms: C16_22  and  O3_3 
REMARK    4  A    between atoms: C23_29  and  N1_6 
REMARK    5  A    between atoms: C7_13  and  C9_15 
REMARK    6  A    between atoms: C11_17  and  C17_23 
ROOT
HETATM    1  C9  UNK     1      30.923  -6.438  33.752  1.00  0.00    -0.035 A 
HETATM    2  C11 UNK     1      32.245  -7.747  35.294  1.00  0.00     0.000 A 
HETATM    3  C12 UNK     1      31.036  -7.506  34.642  1.00  0.00     0.023 A 
HETATM    4  C15 UNK     1      32.021  -5.611  33.513  1.00  0.00     0.014 A 
HETATM    5  C16 UNK     1      33.342  -6.920  35.056  1.00  0.00     0.076 A 
HETATM    6  C18 UNK     1      33.231  -5.852  34.166  1.00  0.00     0.038 A 
ENDROOT
BRANCH   1   7
HETATM    7  C7  UNK     1      29.648  -6.184  33.063  1.00  0.00     0.022 C 
HETATM    8  C4  UNK     1      29.254  -6.752  31.915  1.00  0.00    -0.006 C 
HETATM    9  C2  UNK     1      27.941  -6.459  31.255  1.00  0.00     0.047 C 
HETATM   10  C6  UNK     1      30.164  -7.731  31.250  1.00  0.00     0.189 C 
HETATM   11  C1  UNK     1      27.261  -7.748  30.810  1.00  0.00     0.044 C 
HETATM   12  C3  UNK     1      28.184  -8.582  29.962  1.00  0.00    -0.044 A 
HETATM   13  C5  UNK     1      29.571  -8.576  30.182  1.00  0.00     0.021 A 
HETATM   14  C8  UNK     1      27.654  -9.421  28.972  1.00  0.00     0.008 A 
HETATM   15  C10 UNK     1      30.411  -9.384  29.407  1.00  0.00     0.016 A 
HETATM   16  C14 UNK     1      29.870 -10.202  28.415  1.00  0.00     0.001 A 
HETATM   17  C13 UNK     1      28.493 -10.223  28.200  1.00  0.00     0.001 A 
HETATM   18  O1  UNK     1      31.346  -7.844  31.554  1.00  0.00    -0.287 OA
ENDBRANCH   1   7
BRANCH   2  19
HETATM   19  C17 UNK     1      32.347  -8.896  36.243  1.00  0.00     0.217 C 
BRANCH  19  20
HETATM   20  O2  UNK     1      32.558  -8.401  37.559  1.00  0.00    -0.347 OA
BRANCH  20  21
HETATM   21  C19 UNK     1      31.708  -7.418  37.993  1.00  0.00     0.069 A 
HETATM   22  C21 UNK     1      30.372  -7.718  38.255  1.00  0.00     0.046 A 
HETATM   23  C20 UNK     1      29.506  -6.718  38.697  1.00  0.00    -0.026 A 
HETATM   24  C23 UNK     1      29.977  -5.417  38.878  1.00  0.00     0.108 A 
HETATM   25  C25 UNK     1      28.079  -7.072  38.969  1.00  0.00     0.050 C 
HETATM   26  C24 UNK     1      31.315  -5.117  38.616  1.00  0.00     0.039 A 
HETATM   27  C22 UNK     1      32.180  -6.117  38.173  1.00  0.00     0.039 A 
BRANCH  24  28
HETATM   28  N1  UNK     1      29.113  -4.381  39.328  1.00  0.00    -0.115 N 
HETATM   29  O4  UNK     1      27.961  -4.298  38.839  1.00  0.00    -0.532 OA
HETATM   30  O5  UNK     1      29.528  -3.582  40.198  1.00  0.00    -0.532 OA
ENDBRANCH  24  28
ENDBRANCH  20  21
ENDBRANCH  19  20
ENDBRANCH   2  19
BRANCH   5  31
HETATM   31  O3  UNK     1      34.531  -7.140  35.684  1.00  0.00    -0.355 OA
HETATM   32  C26 UNK     1      35.296  -5.992  36.045  1.00  0.00     0.210 C 
ENDBRANCH   5  31
TORSDOF 6
ENDMDL
MODEL 3
REMARK VINA RESULT:      -9.0     15.003     17.281
REMARK  6 active torsions:
REMARK  status: ('A' for Active; 'I' for Inactive)
REMARK    1  A    between atoms: C17_23  and  O2_2 
REMARK    2  A    between atoms: C19_25  and  O2_2 
REMARK    3  A    between atoms: C16_22  and  O3_3 
REMARK    4  A    between atoms: C23_29  and  N1_6 
REMARK    5  A    between atoms: C7_13  and  C9_15 
REMARK    6  A    between atoms: C11_17  and  C17_23 
ROOT
HETATM    1  C9  UNK     1      19.248   5.528  31.659  1.00  0.00    -0.035 A 
HETATM    2  C11 UNK     1      18.506   3.249  31.346  1.00  0.00     0.000 A 
HETATM    3  C12 UNK     1      18.800   4.319  32.192  1.00  0.00     0.023 A 
HETATM    4  C15 UNK     1      19.401   5.667  30.279  1.00  0.00     0.014 A 
HETATM    5  C16 UNK     1      18.660   3.388  29.967  1.00  0.00     0.076 A 
HETATM    6  C18 UNK     1      19.107   4.597  29.433  1.00  0.00     0.038 A 
ENDROOT
BRANCH   1   7
HETATM    7  C7  UNK     1      19.556   6.656  32.551  1.00  0.00     0.022 C 
HETATM    8  C4  UNK     1      18.693   7.605  32.937  1.00  0.00    -0.006 C 
HETATM    9  C2  UNK     1      19.060   8.735  33.851  1.00  0.00     0.047 C 
HETATM   10  C6  UNK     1      17.288   7.542  32.437  1.00  0.00     0.189 C 
HETATM   11  C1  UNK     1      18.000   8.923  34.930  1.00  0.00     0.044 C 
HETATM   12  C3  UNK     1      16.630   9.065  34.322  1.00  0.00    -0.044 A 
HETATM   13  C5  UNK     1      16.292   8.397  33.134  1.00  0.00     0.021 A 
HETATM   14  C8  UNK     1      15.654   9.831  34.975  1.00  0.00     0.008 A 
HETATM   15  C10 UNK     1      15.003   8.512  32.603  1.00  0.00     0.016 A 
HETATM   16  C14 UNK     1      14.047   9.291  33.256  1.00  0.00     0.001 A 
HETATM   17  C13 UNK     1      14.371   9.947  34.441  1.00  0.00     0.001 A 
HETATM   18  O1  UNK     1      16.954   6.831  31.498  1.00  0.00    -0.287 OA
ENDBRANCH   1   7
BRANCH   2  19
HETATM   19  C17 UNK     1      18.027   1.963  31.935  1.00  0.00     0.217 C 
BRANCH  19  20
HETATM   20  O2  UNK     1      17.705   2.164  33.305  1.00  0.00    -0.347 OA
BRANCH  20  21
HETATM   21  C19 UNK     1      17.959   1.122  34.158  1.00  0.00     0.069 A 
HETATM   22  C21 UNK     1      17.707   1.261  35.522  1.00  0.00     0.046 A 
HETATM   23  C20 UNK     1      17.964   0.200  36.391  1.00  0.00    -0.026 A 
HETATM   24  C23 UNK     1      18.475  -1.000  35.894  1.00  0.00     0.108 A 
HETATM   25  C25 UNK     1      17.683   0.381  37.848  1.00  0.00     0.050 C 
HETATM   26  C24 UNK     1      18.727  -1.138  34.529  1.00  0.00     0.039 A 
HETATM   27  C22 UNK     1      18.470  -0.077  33.661  1.00  0.00     0.039 A 
BRANCH  24  28
HETATM   28  N1  UNK     1      18.745  -2.094  36.761  1.00  0.00    -0.115 N 
HETATM   29  O4  UNK     1      19.887  -2.197  37.268  1.00  0.00    -0.532 OA
HETATM   30  O5  UNK     1      17.835  -2.924  36.990  1.00  0.00    -0.532 OA
ENDBRANCH  24  28
ENDBRANCH  20  21
ENDBRANCH  19  20
ENDBRANCH   2  19
BRANCH   5  31
HETATM   31  O3  UNK     1      18.377   2.354  29.126  1.00  0.00    -0.355 OA
HETATM   32  C26 UNK     1      19.287   1.256  29.121  1.00  0.00     0.210 C 
ENDBRANCH   5  31
TORSDOF 6
ENDMDL
MODEL 4
REMARK VINA RESULT:      -9.0      4.755      8.776
REMARK  6 active torsions:
REMARK  status: ('A' for Active; 'I' for Inactive)
REMARK    1  A    between atoms: C17_23  and  O2_2 
REMARK    2  A    between atoms: C19_25  and  O2_2 
REMARK    3  A    between atoms: C16_22  and  O3_3 
REMARK    4  A    between atoms: C23_29  and  N1_6 
REMARK    5  A    between atoms: C7_13  and  C9_15 
REMARK    6  A    between atoms: C11_17  and  C17_23 
ROOT
HETATM    1  C9  UNK     1      31.381  -5.237  37.764  1.00  0.00    -0.035 A 
HETATM    2  C11 UNK     1      33.410  -5.988  36.687  1.00  0.00     0.000 A 
HETATM    3  C12 UNK     1      32.353  -6.218  37.567  1.00  0.00     0.023 A 
HETATM    4  C15 UNK     1      31.467  -4.024  37.079  1.00  0.00     0.014 A 
HETATM    5  C16 UNK     1      33.496  -4.776  36.003  1.00  0.00     0.076 A 
HETATM    6  C18 UNK     1      32.524  -3.794  36.199  1.00  0.00     0.038 A 
ENDROOT
BRANCH   1   7
HETATM    7  C7  UNK     1      30.266  -5.480  38.692  1.00  0.00     0.022 C 
HETATM    8  C4  UNK     1      29.236  -6.309  38.475  1.00  0.00    -0.006 C 
HETATM    9  C2  UNK     1      28.124  -6.522  39.456  1.00  0.00     0.047 C 
HETATM   10  C6  UNK     1      29.185  -7.067  37.189  1.00  0.00     0.189 C 
HETATM   11  C1  UNK     1      27.819  -8.007  39.614  1.00  0.00     0.044 C 
HETATM   12  C3  UNK     1      27.569  -8.652  38.277  1.00  0.00    -0.044 A 
HETATM   13  C5  UNK     1      28.230  -8.204  37.121  1.00  0.00     0.021 A 
HETATM   14  C8  UNK     1      26.706  -9.752  38.184  1.00  0.00     0.008 A 
HETATM   15  C10 UNK     1      28.012  -8.838  35.893  1.00  0.00     0.016 A 
HETATM   16  C14 UNK     1      27.138  -9.922  35.814  1.00  0.00     0.001 A 
HETATM   17  C13 UNK     1      26.488 -10.381  36.958  1.00  0.00     0.001 A 
HETATM   18  O1  UNK     1      29.883  -6.778  36.226  1.00  0.00    -0.287 OA
ENDBRANCH   1   7
BRANCH   2  19
HETATM   19  C17 UNK     1      34.440  -7.051  36.488  1.00  0.00     0.217 C 
BRANCH  19  20
HETATM   20  O2  UNK     1      33.955  -8.006  35.553  1.00  0.00    -0.347 OA
BRANCH  20  21
HETATM   21  C19 UNK     1      34.310  -7.822  34.242  1.00  0.00     0.069 A 
HETATM   22  C21 UNK     1      33.324  -7.692  33.264  1.00  0.00     0.046 A 
HETATM   23  C20 UNK     1      33.686  -7.505  31.930  1.00  0.00    -0.026 A 
HETATM   24  C23 UNK     1      35.033  -7.448  31.574  1.00  0.00     0.108 A 
HETATM   25  C25 UNK     1      32.605  -7.369  30.906  1.00  0.00     0.050 C 
HETATM   26  C24 UNK     1      36.020  -7.578  32.553  1.00  0.00     0.039 A 
HETATM   27  C22 UNK     1      35.658  -7.766  33.886  1.00  0.00     0.039 A 
BRANCH  24  28
HETATM   28  N1  UNK     1      35.425  -7.257  30.220  1.00  0.00    -0.115 N 
HETATM   29  O4  UNK     1      35.616  -8.264  29.497  1.00  0.00    -0.532 OA
HETATM   30  O5  UNK     1      35.569  -6.089  29.790  1.00  0.00    -0.532 OA
ENDBRANCH  24  28
ENDBRANCH  20  21
ENDBRANCH  19  20
ENDBRANCH   2  19
BRANCH   5  31
HETATM   31  O3  UNK     1      34.521  -4.533  35.139  1.00  0.00    -0.355 OA
HETATM   32  C26 UNK     1      34.506  -3.286  34.449  1.00  0.00     0.210 C 
ENDBRANCH   5  31
TORSDOF 6
ENDMDL
MODEL 5
REMARK VINA RESULT:      -9.0     17.078     19.142
REMARK  6 active torsions:
REMARK  status: ('A' for Active; 'I' for Inactive)
REMARK    1  A    between atoms: C17_23  and  O2_2 
REMARK    2  A    between atoms: C19_25  and  O2_2 
REMARK    3  A    between atoms: C16_22  and  O3_3 
REMARK    4  A    between atoms: C23_29  and  N1_6 
REMARK    5  A    between atoms: C7_13  and  C9_15 
REMARK    6  A    between atoms: C11_17  and  C17_23 
ROOT
HETATM    1  C9  UNK     1      16.357   7.354  32.921  1.00  0.00    -0.035 A 
HETATM    2  C11 UNK     1      17.902   5.496  32.892  1.00  0.00     0.000 A 
HETATM    3  C12 UNK     1      16.940   6.258  33.556  1.00  0.00     0.023 A 
HETATM    4  C15 UNK     1      16.736   7.688  31.620  1.00  0.00     0.014 A 
HETATM    5  C16 UNK     1      18.281   5.831  31.593  1.00  0.00     0.076 A 
HETATM    6  C18 UNK     1      17.698   6.927  30.956  1.00  0.00     0.038 A 
ENDROOT
BRANCH   1   7
HETATM    7  C7  UNK     1      15.342   8.157  33.620  1.00  0.00     0.022 C 
HETATM    8  C4  UNK     1      15.519   9.395  34.101  1.00  0.00    -0.006 C 
HETATM    9  C2  UNK     1      14.449  10.171  34.806  1.00  0.00     0.047 C 
HETATM   10  C6  UNK     1      16.852  10.044  33.931  1.00  0.00     0.189 C 
HETATM   11  C1  UNK     1      14.388  11.602  34.286  1.00  0.00     0.044 C 
HETATM   12  C3  UNK     1      15.741  12.257  34.349  1.00  0.00    -0.044 A 
HETATM   13  C5  UNK     1      16.917  11.510  34.171  1.00  0.00     0.021 A 
HETATM   14  C8  UNK     1      15.836  13.643  34.534  1.00  0.00     0.008 A 
HETATM   15  C10 UNK     1      18.165  12.141  34.197  1.00  0.00     0.016 A 
HETATM   16  C14 UNK     1      18.244  13.520  34.397  1.00  0.00     0.001 A 
HETATM   17  C13 UNK     1      17.082  14.270  34.563  1.00  0.00     0.001 A 
HETATM   18  O1  UNK     1      17.856   9.418  33.614  1.00  0.00    -0.287 OA
ENDBRANCH   1   7
BRANCH   2  19
HETATM   19  C17 UNK     1      18.515   4.325  33.588  1.00  0.00     0.217 C 
BRANCH  19  20
HETATM   20  O2  UNK     1      17.911   3.128  33.114  1.00  0.00    -0.347 OA
BRANCH  20  21
HETATM   21  C19 UNK     1      18.055   2.013  33.896  1.00  0.00     0.069 A 
HETATM   22  C21 UNK     1      17.873   2.100  35.275  1.00  0.00     0.046 A 
HETATM   23  C20 UNK     1      18.019   0.964  36.071  1.00  0.00    -0.026 A 
HETATM   24  C23 UNK     1      18.348  -0.260  35.487  1.00  0.00     0.108 A 
HETATM   25  C25 UNK     1      17.818   1.091  37.547  1.00  0.00     0.050 C 
HETATM   26  C24 UNK     1      18.530  -0.347  34.106  1.00  0.00     0.039 A 
HETATM   27  C22 UNK     1      18.384   0.789  33.311  1.00  0.00     0.039 A 
BRANCH  24  28
HETATM   28  N1  UNK     1      18.502  -1.431  36.279  1.00  0.00    -0.115 N 
HETATM   29  O4  UNK     1      19.658  -1.803  36.592  1.00  0.00    -0.532 OA
HETATM   30  O5  UNK     1      17.478  -2.057  36.639  1.00  0.00    -0.532 OA
ENDBRANCH  24  28
ENDBRANCH  20  21
ENDBRANCH  19  20
ENDBRANCH   2  19
BRANCH   5  31
HETATM   31  O3  UNK     1      19.218   5.098  30.929  1.00  0.00    -0.355 OA
HETATM   32  C26 UNK     1      20.204   5.820  30.195  1.00  0.00     0.210 C 
ENDBRANCH   5  31
TORSDOF 6
ENDMDL
MODEL 6
REMARK VINA RESULT:      -9.0      2.813      7.564
REMARK  6 active torsions:
REMARK  status: ('A' for Active; 'I' for Inactive)
REMARK    1  A    between atoms: C17_23  and  O2_2 
REMARK    2  A    between atoms: C19_25  and  O2_2 
REMARK    3  A    between atoms: C16_22  and  O3_3 
REMARK    4  A    between atoms: C23_29  and  N1_6 
REMARK    5  A    between atoms: C7_13  and  C9_15 
REMARK    6  A    between atoms: C11_17  and  C17_23 
ROOT
HETATM    1  C9  UNK     1      27.786  -9.159  36.388  1.00  0.00    -0.035 A 
HETATM    2  C11 UNK     1      28.685  -7.232  35.241  1.00  0.00     0.000 A 
HETATM    3  C12 UNK     1      28.024  -8.460  35.205  1.00  0.00     0.023 A 
HETATM    4  C15 UNK     1      28.209  -8.629  37.608  1.00  0.00     0.014 A 
HETATM    5  C16 UNK     1      29.108  -6.703  36.459  1.00  0.00     0.076 A 
HETATM    6  C18 UNK     1      28.870  -7.401  37.643  1.00  0.00     0.038 A 
ENDROOT
BRANCH   1   7
HETATM    7  C7  UNK     1      27.087 -10.453  36.351  1.00  0.00     0.022 C 
HETATM    8  C4  UNK     1      25.771 -10.636  36.519  1.00  0.00    -0.006 C 
HETATM    9  C2  UNK     1      25.108 -11.979  36.470  1.00  0.00     0.047 C 
HETATM   10  C6  UNK     1      24.908  -9.443  36.768  1.00  0.00     0.189 C 
HETATM   11  C1  UNK     1      23.846 -11.928  35.618  1.00  0.00     0.044 C 
HETATM   12  C3  UNK     1      22.929 -10.825  36.076  1.00  0.00    -0.044 A 
HETATM   13  C5  UNK     1      23.442  -9.635  36.619  1.00  0.00     0.021 A 
HETATM   14  C8  UNK     1      21.543 -10.957  35.913  1.00  0.00     0.008 A 
HETATM   15  C10 UNK     1      22.577  -8.606  37.006  1.00  0.00     0.016 A 
HETATM   16  C14 UNK     1      21.199  -8.759  36.851  1.00  0.00     0.001 A 
HETATM   17  C13 UNK     1      20.683  -9.932  36.303  1.00  0.00     0.001 A 
HETATM   18  O1  UNK     1      25.367  -8.352  37.084  1.00  0.00    -0.287 OA
ENDBRANCH   1   7
BRANCH   2  19
HETATM   19  C17 UNK     1      28.930  -6.497  33.964  1.00  0.00     0.217 C 
BRANCH  19  20
HETATM   20  O2  UNK     1      28.137  -7.070  32.932  1.00  0.00    -0.347 OA
BRANCH  20  21
HETATM   21  C19 UNK     1      28.808  -7.658  31.892  1.00  0.00     0.069 A 
HETATM   22  C21 UNK     1      28.100  -8.335  30.900  1.00  0.00     0.046 A 
HETATM   23  C20 UNK     1      28.783  -8.934  29.841  1.00  0.00    -0.026 A 
HETATM   24  C23 UNK     1      30.174  -8.855  29.775  1.00  0.00     0.108 A 
HETATM   25  C25 UNK     1      27.995  -9.652  28.793  1.00  0.00     0.050 C 
HETATM   26  C24 UNK     1      30.883  -8.178  30.769  1.00  0.00     0.039 A 
HETATM   27  C22 UNK     1      30.199  -7.580  31.827  1.00  0.00     0.039 A 
BRANCH  24  28
HETATM   28  N1  UNK     1      30.892  -9.458  28.705  1.00  0.00    -0.115 N 
HETATM   29  O4  UNK     1      31.259 -10.652  28.819  1.00  0.00    -0.532 OA
HETATM   30  O5  UNK     1      31.136  -8.778  27.681  1.00  0.00    -0.532 OA
ENDBRANCH  24  28
ENDBRANCH  20  21
ENDBRANCH  19  20
ENDBRANCH   2  19
BRANCH   5  31
HETATM   31  O3  UNK     1      29.755  -5.505  36.513  1.00  0.00    -0.355 OA
HETATM   32  C26 UNK     1      29.705  -4.796  37.749  1.00  0.00     0.210 C 
ENDBRANCH   5  31
TORSDOF 6
ENDMDL
MODEL 7
REMARK VINA RESULT:      -8.8      2.739      7.409
REMARK  6 active torsions:
REMARK  status: ('A' for Active; 'I' for Inactive)
REMARK    1  A    between atoms: C17_23  and  O2_2 
REMARK    2  A    between atoms: C19_25  and  O2_2 
REMARK    3  A    between atoms: C16_22  and  O3_3 
REMARK    4  A    between atoms: C23_29  and  N1_6 
REMARK    5  A    between atoms: C7_13  and  C9_15 
REMARK    6  A    between atoms: C11_17  and  C17_23 
ROOT
HETATM    1  C9  UNK     1      26.517 -10.120  36.871  1.00  0.00    -0.035 A 
HETATM    2  C11 UNK     1      28.357  -8.603  36.475  1.00  0.00     0.000 A 
HETATM    3  C12 UNK     1      27.241  -9.298  36.007  1.00  0.00     0.023 A 
HETATM    4  C15 UNK     1      26.909 -10.246  38.204  1.00  0.00     0.014 A 
HETATM    5  C16 UNK     1      28.748  -8.730  37.807  1.00  0.00     0.076 A 
HETATM    6  C18 UNK     1      28.025  -9.551  38.672  1.00  0.00     0.038 A 
ENDROOT
BRANCH   1   7
HETATM    7  C7  UNK     1      25.340 -10.851  36.377  1.00  0.00     0.022 C 
HETATM    8  C4  UNK     1      24.072 -10.424  36.441  1.00  0.00    -0.006 C 
HETATM    9  C2  UNK     1      22.907 -11.210  35.921  1.00  0.00     0.047 C 
HETATM   10  C6  UNK     1      23.794  -9.095  37.061  1.00  0.00     0.189 C 
HETATM   11  C1  UNK     1      21.975 -10.320  35.108  1.00  0.00     0.044 C 
HETATM   12  C3  UNK     1      21.571  -9.101  35.893  1.00  0.00    -0.044 A 
HETATM   13  C5  UNK     1      22.447  -8.514  36.820  1.00  0.00     0.021 A 
HETATM   14  C8  UNK     1      20.324  -8.504  35.661  1.00  0.00     0.008 A 
HETATM   15  C10 UNK     1      22.069  -7.360  37.515  1.00  0.00     0.016 A 
HETATM   16  C14 UNK     1      20.819  -6.786  37.285  1.00  0.00     0.001 A 
HETATM   17  C13 UNK     1      19.948  -7.355  36.357  1.00  0.00     0.001 A 
HETATM   18  O1  UNK     1      24.619  -8.500  37.742  1.00  0.00    -0.287 OA
ENDBRANCH   1   7
BRANCH   2  19
HETATM   19  C17 UNK     1      29.119  -7.727  35.536  1.00  0.00     0.217 C 
BRANCH  19  20
HETATM   20  O2  UNK     1      28.217  -7.131  34.612  1.00  0.00    -0.347 OA
BRANCH  20  21
HETATM   21  C19 UNK     1      28.314  -7.534  33.307  1.00  0.00     0.069 A 
HETATM   22  C21 UNK     1      27.658  -6.819  32.305  1.00  0.00     0.046 A 
HETATM   23  C20 UNK     1      27.757  -7.229  30.976  1.00  0.00    -0.026 A 
HETATM   24  C23 UNK     1      28.513  -8.355  30.648  1.00  0.00     0.108 A 
HETATM   25  C25 UNK     1      27.042  -6.440  29.926  1.00  0.00     0.050 C 
HETATM   26  C24 UNK     1      29.169  -9.071  31.650  1.00  0.00     0.039 A 
HETATM   27  C22 UNK     1      29.069  -8.660  32.979  1.00  0.00     0.039 A 
BRANCH  24  28
HETATM   28  N1  UNK     1      28.628  -8.791  29.299  1.00  0.00    -0.115 N 
HETATM   29  O4  UNK     1      29.594  -8.384  28.611  1.00  0.00    -0.532 OA
HETATM   30  O5  UNK     1      27.760  -9.569  28.838  1.00  0.00    -0.532 OA
ENDBRANCH  24  28
ENDBRANCH  20  21
ENDBRANCH  19  20
ENDBRANCH   2  19
BRANCH   5  31
HETATM   31  O3  UNK     1      29.835  -8.059  38.282  1.00  0.00    -0.355 OA
HETATM   32  C26 UNK     1      31.079  -8.755  38.278  1.00  0.00     0.210 C 
ENDBRANCH   5  31
TORSDOF 6
ENDMDL
MODEL 8
REMARK VINA RESULT:      -8.8      4.443      8.185
REMARK  6 active torsions:
REMARK  status: ('A' for Active; 'I' for Inactive)
REMARK    1  A    between atoms: C17_23  and  O2_2 
REMARK    2  A    between atoms: C19_25  and  O2_2 
REMARK    3  A    between atoms: C16_22  and  O3_3 
REMARK    4  A    between atoms: C23_29  and  N1_6 
REMARK    5  A    between atoms: C7_13  and  C9_15 
REMARK    6  A    between atoms: C11_17  and  C17_23 
ROOT
HETATM    1  C9  UNK     1      33.092  -5.369  35.856  1.00  0.00    -0.035 A 
HETATM    2  C11 UNK     1      33.847  -6.587  33.912  1.00  0.00     0.000 A 
HETATM    3  C12 UNK     1      32.874  -5.823  34.556  1.00  0.00     0.023 A 
HETATM    4  C15 UNK     1      34.283  -5.679  36.513  1.00  0.00     0.014 A 
HETATM    5  C16 UNK     1      35.037  -6.898  34.568  1.00  0.00     0.076 A 
HETATM    6  C18 UNK     1      35.256  -6.444  35.869  1.00  0.00     0.038 A 
ENDROOT
BRANCH   1   7
HETATM    7  C7  UNK     1      32.066  -4.561  36.536  1.00  0.00     0.022 C 
HETATM    8  C4  UNK     1      30.935  -5.031  37.079  1.00  0.00    -0.006 C 
HETATM    9  C2  UNK     1      29.923  -4.163  37.762  1.00  0.00     0.047 C 
HETATM   10  C6  UNK     1      30.660  -6.496  37.005  1.00  0.00     0.189 C 
HETATM   11  C1  UNK     1      29.479  -4.786  39.080  1.00  0.00     0.044 C 
HETATM   12  C3  UNK     1      29.014  -6.203  38.878  1.00  0.00    -0.044 A 
HETATM   13  C5  UNK     1      29.586  -7.020  37.890  1.00  0.00     0.021 A 
HETATM   14  C8  UNK     1      28.031  -6.741  39.722  1.00  0.00     0.008 A 
HETATM   15  C10 UNK     1      29.166  -8.345  37.740  1.00  0.00     0.016 A 
HETATM   16  C14 UNK     1      28.177  -8.862  38.577  1.00  0.00     0.001 A 
HETATM   17  C13 UNK     1      27.612  -8.062  39.568  1.00  0.00     0.001 A 
HETATM   18  O1  UNK     1      31.274  -7.245  36.256  1.00  0.00    -0.287 OA
ENDBRANCH   1   7
BRANCH   2  19
HETATM   19  C17 UNK     1      33.598  -7.064  32.518  1.00  0.00     0.217 C 
BRANCH  19  20
HETATM   20  O2  UNK     1      32.289  -6.680  32.118  1.00  0.00    -0.347 OA
BRANCH  20  21
HETATM   21  C19 UNK     1      31.703  -7.423  31.126  1.00  0.00     0.069 A 
HETATM   22  C21 UNK     1      31.608  -8.808  31.256  1.00  0.00     0.046 A 
HETATM   23  C20 UNK     1      31.012  -9.564  30.247  1.00  0.00    -0.026 A 
HETATM   24  C23 UNK     1      30.512  -8.935  29.107  1.00  0.00     0.108 A 
HETATM   25  C25 UNK     1      30.925 -11.046  30.418  1.00  0.00     0.050 C 
HETATM   26  C24 UNK     1      30.607  -7.548  28.976  1.00  0.00     0.039 A 
HETATM   27  C22 UNK     1      31.204  -6.793  29.986  1.00  0.00     0.039 A 
BRANCH  24  28
HETATM   28  N1  UNK     1      29.900  -9.685  28.065  1.00  0.00    -0.115 N 
HETATM   29  O4  UNK     1      28.679  -9.955  28.150  1.00  0.00    -0.532 OA
HETATM   30  O5  UNK     1      30.601 -10.056  27.094  1.00  0.00    -0.532 OA
ENDBRANCH  24  28
ENDBRANCH  20  21
ENDBRANCH  19  20
ENDBRANCH   2  19
BRANCH   5  31
HETATM   31  O3  UNK     1      35.999  -7.643  33.954  1.00  0.00    -0.355 OA
HETATM   32  C26 UNK     1      37.351  -7.397  34.335  1.00  0.00     0.210 C 
ENDBRANCH   5  31
TORSDOF 6
ENDMDL
MODEL 9
REMARK VINA RESULT:      -8.8      3.562      6.904
REMARK  6 active torsions:
REMARK  status: ('A' for Active; 'I' for Inactive)
REMARK    1  A    between atoms: C17_23  and  O2_2 
REMARK    2  A    between atoms: C19_25  and  O2_2 
REMARK    3  A    between atoms: C16_22  and  O3_3 
REMARK    4  A    between atoms: C23_29  and  N1_6 
REMARK    5  A    between atoms: C7_13  and  C9_15 
REMARK    6  A    between atoms: C11_17  and  C17_23 
ROOT
HETATM    1  C9  UNK     1      28.397  -9.809  35.296  1.00  0.00    -0.035 A 
HETATM    2  C11 UNK     1      28.955  -8.941  37.481  1.00  0.00     0.000 A 
HETATM    3  C12 UNK     1      29.325  -9.244  36.171  1.00  0.00     0.023 A 
HETATM    4  C15 UNK     1      27.097 -10.069  35.733  1.00  0.00     0.014 A 
HETATM    5  C16 UNK     1      27.657  -9.202  37.917  1.00  0.00     0.076 A 
HETATM    6  C18 UNK     1      26.727  -9.765  37.043  1.00  0.00     0.038 A 
ENDROOT
BRANCH   1   7
HETATM    7  C7  UNK     1      28.786 -10.128  33.914  1.00  0.00     0.022 C 
HETATM    8  C4  UNK     1      28.939  -9.241  32.921  1.00  0.00    -0.006 C 
HETATM    9  C2  UNK     1      29.340  -9.620  31.527  1.00  0.00     0.047 C 
HETATM   10  C6  UNK     1      28.699  -7.796  33.208  1.00  0.00     0.189 C 
HETATM   11  C1  UNK     1      30.426  -8.688  31.006  1.00  0.00     0.044 C 
HETATM   12  C3  UNK     1      30.011  -7.247  31.138  1.00  0.00    -0.044 A 
HETATM   13  C5  UNK     1      29.191  -6.824  32.197  1.00  0.00     0.021 A 
HETATM   14  C8  UNK     1      30.490  -6.297  30.225  1.00  0.00     0.008 A 
HETATM   15  C10 UNK     1      28.844  -5.475  32.324  1.00  0.00     0.016 A 
HETATM   16  C14 UNK     1      29.316  -4.543  31.399  1.00  0.00     0.001 A 
HETATM   17  C13 UNK     1      30.140  -4.953  30.352  1.00  0.00     0.001 A 
HETATM   18  O1  UNK     1      28.124  -7.411  34.218  1.00  0.00    -0.287 OA
ENDBRANCH   1   7
BRANCH   2  19
HETATM   19  C17 UNK     1      29.963  -8.335  38.403  1.00  0.00     0.217 C 
BRANCH  19  20
HETATM   20  O2  UNK     1      29.942  -6.921  38.258  1.00  0.00    -0.347 OA
BRANCH  20  21
HETATM   21  C19 UNK     1      30.999  -6.353  37.596  1.00  0.00     0.069 A 
HETATM   22  C21 UNK     1      30.906  -6.090  36.230  1.00  0.00     0.046 A 
HETATM   23  C20 UNK     1      31.981  -5.512  35.556  1.00  0.00    -0.026 A 
HETATM   24  C23 UNK     1      33.150  -5.196  36.248  1.00  0.00     0.108 A 
HETATM   25  C25 UNK     1      31.849  -5.243  34.091  1.00  0.00     0.050 C 
HETATM   26  C24 UNK     1      33.243  -5.459  37.616  1.00  0.00     0.039 A 
HETATM   27  C22 UNK     1      32.168  -6.038  38.289  1.00  0.00     0.039 A 
BRANCH  24  28
HETATM   28  N1  UNK     1      34.259  -4.606  35.582  1.00  0.00    -0.115 N 
HETATM   29  O4  UNK     1      34.238  -3.375  35.343  1.00  0.00    -0.532 OA
HETATM   30  O5  UNK     1      35.224  -5.334  35.251  1.00  0.00    -0.532 OA
ENDBRANCH  24  28
ENDBRANCH  20  21
ENDBRANCH  19  20
ENDBRANCH   2  19
BRANCH   5  31
HETATM   31  O3  UNK     1      27.278  -8.911  39.193  1.00  0.00    -0.355 OA
HETATM   32  C26 UNK     1      27.119 -10.010  40.088  1.00  0.00     0.210 C 
ENDBRANCH   5  31
TORSDOF 6
ENDMDL
MODEL 10
REMARK VINA RESULT:      -8.8      3.031      4.119
REMARK  6 active torsions:
REMARK  status: ('A' for Active; 'I' for Inactive)
REMARK    1  A    between atoms: C17_23  and  O2_2 
REMARK    2  A    between atoms: C19_25  and  O2_2 
REMARK    3  A    between atoms: C16_22  and  O3_3 
REMARK    4  A    between atoms: C23_29  and  N1_6 
REMARK    5  A    between atoms: C7_13  and  C9_15 
REMARK    6  A    between atoms: C11_17  and  C17_23 
ROOT
HETATM    1  C9  UNK     1      30.781  -6.257  33.918  1.00  0.00    -0.035 A 
HETATM    2  C11 UNK     1      32.268  -7.521  35.343  1.00  0.00     0.000 A 
HETATM    3  C12 UNK     1      31.047  -7.395  34.679  1.00  0.00     0.023 A 
HETATM    4  C15 UNK     1      31.736  -5.245  33.821  1.00  0.00     0.014 A 
HETATM    5  C16 UNK     1      33.222  -6.509  35.245  1.00  0.00     0.076 A 
HETATM    6  C18 UNK     1      32.957  -5.371  34.484  1.00  0.00     0.038 A 
ENDROOT
BRANCH   1   7
HETATM    7  C7  UNK     1      29.494  -6.124  33.218  1.00  0.00     0.022 C 
HETATM    8  C4  UNK     1      29.184  -6.684  32.041  1.00  0.00    -0.006 C 
HETATM    9  C2  UNK     1      27.855  -6.518  31.369  1.00  0.00     0.047 C 
HETATM   10  C6  UNK     1      30.211  -7.521  31.353  1.00  0.00     0.189 C 
HETATM   11  C1  UNK     1      27.336  -7.857  30.860  1.00  0.00     0.044 C 
HETATM   12  C3  UNK     1      28.361  -8.541  29.996  1.00  0.00    -0.044 A 
HETATM   13  C5  UNK     1      29.735  -8.383  30.240  1.00  0.00     0.021 A 
HETATM   14  C8  UNK     1      27.945  -9.393  28.963  1.00  0.00     0.008 A 
HETATM   15  C10 UNK     1      30.673  -9.054  29.449  1.00  0.00     0.016 A 
HETATM   16  C14 UNK     1      30.245  -9.887  28.415  1.00  0.00     0.001 A 
HETATM   17  C13 UNK     1      28.883 -10.058  28.174  1.00  0.00     0.001 A 
HETATM   18  O1  UNK     1      31.394  -7.509  31.673  1.00  0.00    -0.287 OA
ENDBRANCH   1   7
BRANCH   2  19
HETATM   19  C17 UNK     1      32.536  -8.748  36.152  1.00  0.00     0.217 C 
BRANCH  19  20
HETATM   20  O2  UNK     1      32.172  -8.507  37.505  1.00  0.00    -0.347 OA
BRANCH  20  21
HETATM   21  C19 UNK     1      30.832  -8.435  37.780  1.00  0.00     0.069 A 
HETATM   22  C21 UNK     1      30.298  -7.281  38.353  1.00  0.00     0.046 A 
HETATM   23  C20 UNK     1      28.934  -7.208  38.633  1.00  0.00    -0.026 A 
HETATM   24  C23 UNK     1      28.103  -8.289  38.340  1.00  0.00     0.108 A 
HETATM   25  C25 UNK     1      28.393  -5.957  39.246  1.00  0.00     0.050 C 
HETATM   26  C24 UNK     1      28.637  -9.445  37.767  1.00  0.00     0.039 A 
HETATM   27  C22 UNK     1      30.001  -9.517  37.488  1.00  0.00     0.039 A 
BRANCH  24  28
HETATM   28  N1  UNK     1      26.709  -8.237  38.616  1.00  0.00    -0.115 N 
HETATM   29  O4  UNK     1      26.263  -8.869  39.604  1.00  0.00    -0.532 OA
HETATM   30  O5  UNK     1      25.967  -7.563  37.864  1.00  0.00    -0.532 OA
ENDBRANCH  24  28
ENDBRANCH  20  21
ENDBRANCH  19  20
ENDBRANCH   2  19
BRANCH   5  31
HETATM   31  O3  UNK     1      34.420  -6.616  35.887  1.00  0.00    -0.355 OA
HETATM   32  C26 UNK     1      35.128  -5.405  36.141  1.00  0.00     0.210 C 
ENDBRANCH   5  31
TORSDOF 6
ENDMDL
