MODEL 1
REMARK VINA RESULT:      -9.1      0.000      0.000
REMARK  3 active torsions:
REMARK  status: ('A' for Active; 'I' for Inactive)
REMARK    1  A    between atoms: C5_10  and  N1_4 
REMARK       I    between atoms: C6_11  and  N1_4 
REMARK    2  A    between atoms: C2_7  and  C6_11 
REMARK    3  A    between atoms: C5_10  and  C9_14 
ROOT
HETATM    1  O1  UNK     1      18.923   0.386  32.265  1.00  0.00    -0.274 OA
HETATM    2  O3  UNK     1      18.018   2.477  32.428  1.00  0.00    -0.259 OA
HETATM    3  C1  UNK     1      19.901  -0.337  30.159  1.00  0.00    -0.001 A 
HETATM    4  C2  UNK     1      18.942   1.882  30.330  1.00  0.00     0.108 A 
HETATM    5  C3  UNK     1      19.573  -0.593  31.487  1.00  0.00     0.089 A 
HETATM    6  C4  UNK     1      19.561   0.956  29.586  1.00  0.00     0.037 A 
HETATM    7  C7  UNK     1      20.547  -1.332  29.420  1.00  0.00     0.014 A 
HETATM    8  C8  UNK     1      18.585   1.632  31.744  1.00  0.00     0.304 A 
HETATM    9  C10 UNK     1      19.871  -1.810  32.095  1.00  0.00     0.038 A 
HETATM   10  C11 UNK     1      20.851  -2.559  30.018  1.00  0.00     0.001 A 
HETATM   11  C12 UNK     1      20.514  -2.797  31.352  1.00  0.00     0.003 A 
ENDROOT
BRANCH   4  12
HETATM   12  C6  UNK     1      18.641   3.154  29.662  1.00  0.00     0.258 C 
HETATM   13  O2  UNK     1      18.022   3.179  28.601  1.00  0.00    -0.267 OA
HETATM   14  N1  UNK     1      19.125   4.250  30.353  1.00  0.00    -0.351 N 
HETATM   15  H4  UNK     1      19.641   4.124  31.217  1.00  0.00     0.163 HD
BRANCH  14  16
HETATM   16  C5  UNK     1      18.954   5.610  29.891  1.00  0.00     0.182 C 
BRANCH  16  17
HETATM   17  C9  UNK     1      18.431   6.509  30.974  1.00  0.00     0.051 A 
HETATM   18  C13 UNK     1      19.169   6.660  32.133  1.00  0.00     0.029 A 
HETATM   19  C14 UNK     1      18.658   7.500  33.116  1.00  0.00     0.003 A 
HETATM   20  C16 UNK     1      17.445   8.148  32.908  1.00  0.00     0.019 A 
HETATM   21  C15 UNK     1      16.789   7.925  31.708  1.00  0.00     0.117 A 
HETATM   22  N2  UNK     1      17.253   7.117  30.730  1.00  0.00    -0.264 NA
ENDBRANCH  16  17
ENDBRANCH  14  16
ENDBRANCH   4  12
TORSDOF 3
ENDMDL
MODEL 2
REMARK VINA RESULT:      -8.8      1.349      2.234
REMARK  3 active torsions:
REMARK  status: ('A' for Active; 'I' for Inactive)
REMARK    1  A    between atoms: C5_10  and  N1_4 
REMARK       I    between atoms: C6_11  and  N1_4 
REMARK    2  A    between atoms: C2_7  and  C6_11 
REMARK    3  A    between atoms: C5_10  and  C9_14 
ROOT
HETATM    1  O1  UNK     1      18.996   0.444  28.579  1.00  0.00    -0.274 OA
HETATM    2  O3  UNK     1      18.028   2.428  27.991  1.00  0.00    -0.259 OA
HETATM    3  C1  UNK     1      19.719   0.096  30.875  1.00  0.00    -0.001 A 
HETATM    4  C2  UNK     1      18.692   2.201  30.253  1.00  0.00     0.108 A 
HETATM    5  C3  UNK     1      19.583  -0.368  29.570  1.00  0.00     0.089 A 
HETATM    6  C4  UNK     1      19.248   1.433  31.199  1.00  0.00     0.037 A 
HETATM    7  C7  UNK     1      20.304  -0.740  31.829  1.00  0.00     0.014 A 
HETATM    8  C8  UNK     1      18.536   1.728  28.860  1.00  0.00     0.304 A 
HETATM    9  C10 UNK     1      20.013  -1.639  29.194  1.00  0.00     0.038 A 
HETATM   10  C11 UNK     1      20.742  -2.017  31.466  1.00  0.00     0.001 A 
HETATM   11  C12 UNK     1      20.596  -2.465  30.152  1.00  0.00     0.003 A 
ENDROOT
BRANCH   4  12
HETATM   12  C6  UNK     1      18.249   3.534  30.678  1.00  0.00     0.258 C 
HETATM   13  O2  UNK     1      17.446   3.668  31.600  1.00  0.00    -0.267 OA
HETATM   14  N1  UNK     1      18.823   4.552  29.939  1.00  0.00    -0.351 N 
HETATM   15  H4  UNK     1      19.465   4.336  29.183  1.00  0.00     0.163 HD
BRANCH  14  16
HETATM   16  C5  UNK     1      18.538   5.951  30.170  1.00  0.00     0.182 C 
BRANCH  16  17
HETATM   17  C9  UNK     1      19.033   6.409  31.512  1.00  0.00     0.051 A 
HETATM   18  C13 UNK     1      20.342   6.148  31.868  1.00  0.00     0.029 A 
HETATM   19  C14 UNK     1      20.769   6.587  33.116  1.00  0.00     0.003 A 
HETATM   20  C16 UNK     1      19.883   7.260  33.951  1.00  0.00     0.019 A 
HETATM   21  C15 UNK     1      18.592   7.469  33.493  1.00  0.00     0.117 A 
HETATM   22  N2  UNK     1      18.141   7.058  32.287  1.00  0.00    -0.264 NA
ENDBRANCH  16  17
ENDBRANCH  14  16
ENDBRANCH   4  12
TORSDOF 3
ENDMDL
MODEL 3
REMARK VINA RESULT:      -8.7      2.182      7.454
REMARK  3 active torsions:
REMARK  status: ('A' for Active; 'I' for Inactive)
REMARK    1  A    between atoms: C5_10  and  N1_4 
REMARK       I    between atoms: C6_11  and  N1_4 
REMARK    2  A    between atoms: C2_7  and  C6_11 
REMARK    3  A    between atoms: C5_10  and  C9_14 
ROOT
HETATM    1  O1  UNK     1      20.306   6.712  32.643  1.00  0.00    -0.274 OA
HETATM    2  O3  UNK     1      21.319   5.674  30.877  1.00  0.00    -0.259 OA
HETATM    3  C1  UNK     1      17.950   6.300  33.085  1.00  0.00    -0.001 A 
HETATM    4  C2  UNK     1      19.022   5.199  31.212  1.00  0.00     0.108 A 
HETATM    5  C3  UNK     1      19.146   6.934  33.411  1.00  0.00     0.089 A 
HETATM    6  C4  UNK     1      17.917   5.406  31.939  1.00  0.00     0.037 A 
HETATM    7  C7  UNK     1      16.821   6.545  33.871  1.00  0.00     0.014 A 
HETATM    8  C8  UNK     1      20.305   5.861  31.541  1.00  0.00     0.304 A 
HETATM    9  C10 UNK     1      19.244   7.802  34.496  1.00  0.00     0.038 A 
HETATM   10  C11 UNK     1      16.905   7.415  34.963  1.00  0.00     0.001 A 
HETATM   11  C12 UNK     1      18.114   8.041  35.274  1.00  0.00     0.003 A 
ENDROOT
BRANCH   4  12
HETATM   12  C6  UNK     1      18.888   4.280  30.076  1.00  0.00     0.258 C 
HETATM   13  O2  UNK     1      18.667   4.704  28.943  1.00  0.00    -0.267 OA
HETATM   14  N1  UNK     1      19.033   2.953  30.438  1.00  0.00    -0.351 N 
HETATM   15  H4  UNK     1      19.199   2.702  31.407  1.00  0.00     0.163 HD
BRANCH  14  16
HETATM   16  C5  UNK     1      18.939   1.864  29.491  1.00  0.00     0.182 C 
BRANCH  16  17
HETATM   17  C9  UNK     1      19.369   0.558  30.094  1.00  0.00     0.051 A 
HETATM   18  C13 UNK     1      20.168  -0.292  29.353  1.00  0.00     0.029 A 
HETATM   19  C14 UNK     1      20.550  -1.493  29.941  1.00  0.00     0.003 A 
HETATM   20  C16 UNK     1      20.123  -1.796  31.230  1.00  0.00     0.019 A 
HETATM   21  C15 UNK     1      19.325  -0.871  31.883  1.00  0.00     0.117 A 
HETATM   22  N2  UNK     1      18.934   0.305  31.345  1.00  0.00    -0.264 NA
ENDBRANCH  16  17
ENDBRANCH  14  16
ENDBRANCH   4  12
TORSDOF 3
ENDMDL
MODEL 4
REMARK VINA RESULT:      -8.6     14.811     16.660
REMARK  3 active torsions:
REMARK  status: ('A' for Active; 'I' for Inactive)
REMARK    1  A    between atoms: C5_10  and  N1_4 
REMARK       I    between atoms: C6_11  and  N1_4 
REMARK    2  A    between atoms: C2_7  and  C6_11 
REMARK    3  A    between atoms: C5_10  and  C9_14 
ROOT
HETATM    1  O1  UNK     1      19.615  -2.646  12.849  1.00  0.00    -0.274 OA
HETATM    2  O3  UNK     1      19.589  -0.757  14.134  1.00  0.00    -0.259 OA
HETATM    3  C1  UNK     1      18.517  -4.661  13.655  1.00  0.00    -0.001 A 
HETATM    4  C2  UNK     1      18.488  -2.659  15.020  1.00  0.00     0.108 A 
HETATM    5  C3  UNK     1      19.249  -3.995  12.676  1.00  0.00     0.089 A 
HETATM    6  C4  UNK     1      18.137  -3.941  14.860  1.00  0.00     0.037 A 
HETATM    7  C7  UNK     1      18.172  -5.999  13.446  1.00  0.00     0.014 A 
HETATM    8  C8  UNK     1      19.265  -1.931  13.991  1.00  0.00     0.304 A 
HETATM    9  C10 UNK     1      19.644  -4.628  11.498  1.00  0.00     0.038 A 
HETATM   10  C11 UNK     1      18.562  -6.646  12.269  1.00  0.00     0.001 A 
HETATM   11  C12 UNK     1      19.296  -5.961  11.298  1.00  0.00     0.003 A 
ENDROOT
BRANCH   4  12
HETATM   12  C6  UNK     1      18.059  -2.020  16.269  1.00  0.00     0.258 C 
HETATM   13  O2  UNK     1      16.905  -2.140  16.676  1.00  0.00    -0.267 OA
HETATM   14  N1  UNK     1      19.073  -1.307  16.883  1.00  0.00    -0.351 N 
HETATM   15  H4  UNK     1      19.992  -1.255  16.458  1.00  0.00     0.163 HD
BRANCH  14  16
HETATM   16  C5  UNK     1      18.890  -0.589  18.125  1.00  0.00     0.182 C 
BRANCH  16  17
HETATM   17  C9  UNK     1      19.127   0.884  17.962  1.00  0.00     0.051 A 
HETATM   18  C13 UNK     1      19.274   1.668  19.091  1.00  0.00     0.029 A 
HETATM   19  C14 UNK     1      19.493   3.028  18.906  1.00  0.00     0.003 A 
HETATM   20  C16 UNK     1      19.555   3.548  17.617  1.00  0.00     0.019 A 
HETATM   21  C15 UNK     1      19.395   2.671  16.556  1.00  0.00     0.117 A 
HETATM   22  N2  UNK     1      19.180   1.344  16.697  1.00  0.00    -0.264 NA
ENDBRANCH  16  17
ENDBRANCH  14  16
ENDBRANCH   4  12
TORSDOF 3
ENDMDL
MODEL 5
REMARK VINA RESULT:      -8.3      7.192     10.296
REMARK  3 active torsions:
REMARK  status: ('A' for Active; 'I' for Inactive)
REMARK    1  A    between atoms: C5_10  and  N1_4 
REMARK       I    between atoms: C6_11  and  N1_4 
REMARK    2  A    between atoms: C2_7  and  C6_11 
REMARK    3  A    between atoms: C5_10  and  C9_14 
ROOT
HETATM    1  O1  UNK     1      20.007  -8.191  35.679  1.00  0.00    -0.274 OA
HETATM    2  O3  UNK     1      20.353  -6.335  34.392  1.00  0.00    -0.259 OA
HETATM    3  C1  UNK     1      19.949  -7.977  38.101  1.00  0.00    -0.001 A 
HETATM    4  C2  UNK     1      20.316  -6.008  36.738  1.00  0.00     0.108 A 
HETATM    5  C3  UNK     1      19.867  -8.766  36.957  1.00  0.00     0.089 A 
HETATM    6  C4  UNK     1      20.183  -6.550  37.955  1.00  0.00     0.037 A 
HETATM    7  C7  UNK     1      19.803  -8.585  39.351  1.00  0.00     0.014 A 
HETATM    8  C8  UNK     1      20.231  -6.827  35.508  1.00  0.00     0.304 A 
HETATM    9  C10 UNK     1      19.644 -10.140  37.028  1.00  0.00     0.038 A 
HETATM   10  C11 UNK     1      19.580  -9.962  39.437  1.00  0.00     0.001 A 
HETATM   11  C12 UNK     1      19.500 -10.737  38.278  1.00  0.00     0.003 A 
ENDROOT
BRANCH   4  12
HETATM   12  C6  UNK     1      20.550  -4.560  36.695  1.00  0.00     0.258 C 
HETATM   13  O2  UNK     1      21.469  -4.049  37.332  1.00  0.00    -0.267 OA
HETATM   14  N1  UNK     1      19.645  -3.893  35.889  1.00  0.00    -0.351 N 
HETATM   15  H4  UNK     1      18.908  -4.405  35.415  1.00  0.00     0.163 HD
BRANCH  14  16
HETATM   16  C5  UNK     1      19.672  -2.461  35.691  1.00  0.00     0.182 C 
BRANCH  16  17
HETATM   17  C9  UNK     1      19.781  -2.097  34.239  1.00  0.00     0.051 A 
HETATM   18  C13 UNK     1      18.824  -1.272  33.681  1.00  0.00     0.029 A 
HETATM   19  C14 UNK     1      18.954  -0.953  32.334  1.00  0.00     0.003 A 
HETATM   20  C16 UNK     1      20.022  -1.465  31.604  1.00  0.00     0.019 A 
HETATM   21  C15 UNK     1      20.925  -2.283  32.264  1.00  0.00     0.117 A 
HETATM   22  N2  UNK     1      20.831  -2.615  33.570  1.00  0.00    -0.264 NA
ENDBRANCH  16  17
ENDBRANCH  14  16
ENDBRANCH   4  12
TORSDOF 3
ENDMDL
MODEL 6
REMARK VINA RESULT:      -8.2      4.881      8.694
REMARK  3 active torsions:
REMARK  status: ('A' for Active; 'I' for Inactive)
REMARK    1  A    between atoms: C5_10  and  N1_4 
REMARK       I    between atoms: C6_11  and  N1_4 
REMARK    2  A    between atoms: C2_7  and  C6_11 
REMARK    3  A    between atoms: C5_10  and  C9_14 
ROOT
HETATM    1  O1  UNK     1      18.706   0.916  32.246  1.00  0.00    -0.274 OA
HETATM    2  O3  UNK     1      17.954   1.206  34.384  1.00  0.00    -0.259 OA
HETATM    3  C1  UNK     1      19.719  -1.200  31.607  1.00  0.00    -0.001 A 
HETATM    4  C2  UNK     1      18.922  -0.896  33.875  1.00  0.00     0.108 A 
HETATM    5  C3  UNK     1      19.316   0.091  31.281  1.00  0.00     0.089 A 
HETATM    6  C4  UNK     1      19.501  -1.684  32.961  1.00  0.00     0.037 A 
HETATM    7  C7  UNK     1      20.319  -1.989  30.622  1.00  0.00     0.014 A 
HETATM    8  C8  UNK     1      18.484   0.480  33.550  1.00  0.00     0.304 A 
HETATM    9  C10 UNK     1      19.496   0.615  30.002  1.00  0.00     0.038 A 
HETATM   10  C11 UNK     1      20.506  -1.476  29.334  1.00  0.00     0.001 A 
HETATM   11  C12 UNK     1      20.095  -0.178  29.026  1.00  0.00     0.003 A 
ENDROOT
BRANCH   4  12
HETATM   12  C6  UNK     1      18.746  -1.474  35.212  1.00  0.00     0.258 C 
HETATM   13  O2  UNK     1      17.694  -1.327  35.831  1.00  0.00    -0.267 OA
HETATM   14  N1  UNK     1      19.864  -2.161  35.651  1.00  0.00    -0.351 N 
HETATM   15  H4  UNK     1      20.694  -2.213  35.070  1.00  0.00     0.163 HD
BRANCH  14  16
HETATM   16  C5  UNK     1      19.931  -2.815  36.939  1.00  0.00     0.182 C 
BRANCH  16  17
HETATM   17  C9  UNK     1      20.286  -4.269  36.813  1.00  0.00     0.051 A 
HETATM   18  C13 UNK     1      21.036  -4.864  37.809  1.00  0.00     0.029 A 
HETATM   19  C14 UNK     1      21.347  -6.211  37.662  1.00  0.00     0.003 A 
HETATM   20  C16 UNK     1      20.903  -6.903  36.541  1.00  0.00     0.019 A 
HETATM   21  C15 UNK     1      20.156  -6.208  35.603  1.00  0.00     0.117 A 
HETATM   22  N2  UNK     1      19.835  -4.901  35.711  1.00  0.00    -0.264 NA
ENDBRANCH  16  17
ENDBRANCH  14  16
ENDBRANCH   4  12
TORSDOF 3
ENDMDL
MODEL 7
REMARK VINA RESULT:      -8.1      3.647      8.062
REMARK  3 active torsions:
REMARK  status: ('A' for Active; 'I' for Inactive)
REMARK    1  A    between atoms: C5_10  and  N1_4 
REMARK       I    between atoms: C6_11  and  N1_4 
REMARK    2  A    between atoms: C2_7  and  C6_11 
REMARK    3  A    between atoms: C5_10  and  C9_14 
ROOT
HETATM    1  O1  UNK     1      16.856   7.970  32.939  1.00  0.00    -0.274 OA
HETATM    2  O3  UNK     1      15.792   6.123  32.116  1.00  0.00    -0.259 OA
HETATM    3  C1  UNK     1      19.184   7.810  33.620  1.00  0.00    -0.001 A 
HETATM    4  C2  UNK     1      18.059   5.850  32.748  1.00  0.00     0.108 A 
HETATM    5  C3  UNK     1      18.024   8.561  33.460  1.00  0.00     0.089 A 
HETATM    6  C4  UNK     1      19.172   6.406  33.242  1.00  0.00     0.037 A 
HETATM    7  C7  UNK     1      20.323   8.432  34.139  1.00  0.00     0.014 A 
HETATM    8  C8  UNK     1      16.814   6.629  32.568  1.00  0.00     0.304 A 
HETATM    9  C10 UNK     1      17.969   9.911  33.802  1.00  0.00     0.038 A 
HETATM   10  C11 UNK     1      20.283   9.786  34.487  1.00  0.00     0.001 A 
HETATM   11  C12 UNK     1      19.109  10.523  34.319  1.00  0.00     0.003 A 
ENDROOT
BRANCH   4  12
HETATM   12  C6  UNK     1      18.146   4.427  32.397  1.00  0.00     0.258 C 
HETATM   13  O2  UNK     1      18.246   4.071  31.225  1.00  0.00    -0.267 OA
HETATM   14  N1  UNK     1      18.100   3.598  33.503  1.00  0.00    -0.351 N 
HETATM   15  H4  UNK     1      18.000   3.990  34.433  1.00  0.00     0.163 HD
BRANCH  14  16
HETATM   16  C5  UNK     1      18.166   2.156  33.409  1.00  0.00     0.182 C 
BRANCH  16  17
HETATM   17  C9  UNK     1      17.570   1.487  34.614  1.00  0.00     0.051 A 
HETATM   18  C13 UNK     1      18.137   1.711  35.854  1.00  0.00     0.029 A 
HETATM   19  C14 UNK     1      17.560   1.077  36.949  1.00  0.00     0.003 A 
HETATM   20  C16 UNK     1      16.453   0.255  36.766  1.00  0.00     0.019 A 
HETATM   21  C15 UNK     1      15.965   0.102  35.479  1.00  0.00     0.117 A 
HETATM   22  N2  UNK     1      16.498   0.700  34.391  1.00  0.00    -0.264 NA
ENDBRANCH  16  17
ENDBRANCH  14  16
ENDBRANCH   4  12
TORSDOF 3
ENDMDL
MODEL 8
REMARK VINA RESULT:      -8.1      6.638     11.230
REMARK  3 active torsions:
REMARK  status: ('A' for Active; 'I' for Inactive)
REMARK    1  A    between atoms: C5_10  and  N1_4 
REMARK       I    between atoms: C6_11  and  N1_4 
REMARK    2  A    between atoms: C2_7  and  C6_11 
REMARK    3  A    between atoms: C5_10  and  C9_14 
ROOT
HETATM    1  O1  UNK     1      19.629  -1.034  34.907  1.00  0.00    -0.274 OA
HETATM    2  O3  UNK     1      20.548  -3.093  34.540  1.00  0.00    -0.259 OA
HETATM    3  C1  UNK     1      18.335  -0.641  36.929  1.00  0.00    -0.001 A 
HETATM    4  C2  UNK     1      19.310  -2.825  36.542  1.00  0.00     0.108 A 
HETATM    5  C3  UNK     1      18.864  -0.180  35.727  1.00  0.00     0.089 A 
HETATM    6  C4  UNK     1      18.583  -2.018  37.325  1.00  0.00     0.037 A 
HETATM    7  C7  UNK     1      17.584   0.237  37.715  1.00  0.00     0.014 A 
HETATM    8  C8  UNK     1      19.883  -2.357  35.260  1.00  0.00     0.304 A 
HETATM    9  C10 UNK     1      18.664   1.128  35.290  1.00  0.00     0.038 A 
HETATM   10  C11 UNK     1      17.374   1.552  37.289  1.00  0.00     0.001 A 
HETATM   11  C12 UNK     1      17.913   1.996  36.080  1.00  0.00     0.003 A 
ENDROOT
BRANCH   4  12
HETATM   12  C6  UNK     1      19.503  -4.197  37.027  1.00  0.00     0.258 C 
HETATM   13  O2  UNK     1      20.503  -4.503  37.673  1.00  0.00    -0.267 OA
HETATM   14  N1  UNK     1      18.468  -5.043  36.673  1.00  0.00    -0.351 N 
HETATM   15  H4  UNK     1      17.690  -4.697  36.122  1.00  0.00     0.163 HD
BRANCH  14  16
HETATM   16  C5  UNK     1      18.435  -6.442  37.035  1.00  0.00     0.182 C 
BRANCH  16  17
HETATM   17  C9  UNK     1      19.451  -7.243  36.273  1.00  0.00     0.051 A 
HETATM   18  C13 UNK     1      19.748  -6.885  34.972  1.00  0.00     0.029 A 
HETATM   19  C14 UNK     1      20.694  -7.645  34.294  1.00  0.00     0.003 A 
HETATM   20  C16 UNK     1      21.299  -8.722  34.933  1.00  0.00     0.019 A 
HETATM   21  C15 UNK     1      20.928  -8.993  36.241  1.00  0.00     0.117 A 
HETATM   22  N2  UNK     1      20.014  -8.277  36.931  1.00  0.00    -0.264 NA
ENDBRANCH  16  17
ENDBRANCH  14  16
ENDBRANCH   4  12
TORSDOF 3
ENDMDL
MODEL 9
REMARK VINA RESULT:      -8.0     22.252     24.454
REMARK  3 active torsions:
REMARK  status: ('A' for Active; 'I' for Inactive)
REMARK    1  A    between atoms: C5_10  and  N1_4 
REMARK       I    between atoms: C6_11  and  N1_4 
REMARK    2  A    between atoms: C2_7  and  C6_11 
REMARK    3  A    between atoms: C5_10  and  C9_14 
ROOT
HETATM    1  O1  UNK     1      17.047   8.545   9.821  1.00  0.00    -0.274 OA
HETATM    2  O3  UNK     1      16.292   6.497  10.495  1.00  0.00    -0.259 OA
HETATM    3  C1  UNK     1      15.526  10.073   8.696  1.00  0.00    -0.001 A 
HETATM    4  C2  UNK     1      14.723   7.902   9.410  1.00  0.00     0.108 A 
HETATM    5  C3  UNK     1      16.791   9.784   9.200  1.00  0.00     0.089 A 
HETATM    6  C4  UNK     1      14.475   9.078   8.819  1.00  0.00     0.037 A 
HETATM    7  C7  UNK     1      15.311  11.313   8.088  1.00  0.00     0.014 A 
HETATM    8  C8  UNK     1      16.060   7.573   9.954  1.00  0.00     0.304 A 
HETATM    9  C10 UNK     1      17.842  10.695   9.114  1.00  0.00     0.038 A 
HETATM   10  C11 UNK     1      16.357  12.237   7.994  1.00  0.00     0.001 A 
HETATM   11  C12 UNK     1      17.619  11.928   8.506  1.00  0.00     0.003 A 
ENDROOT
BRANCH   4  12
HETATM   12  C6  UNK     1      13.598   6.963   9.485  1.00  0.00     0.258 C 
HETATM   13  O2  UNK     1      12.776   7.034  10.397  1.00  0.00    -0.267 OA
HETATM   14  N1  UNK     1      13.597   6.042   8.453  1.00  0.00    -0.351 N 
HETATM   15  H4  UNK     1      14.332   6.056   7.754  1.00  0.00     0.163 HD
BRANCH  14  16
HETATM   16  C5  UNK     1      12.589   5.015   8.315  1.00  0.00     0.182 C 
BRANCH  16  17
HETATM   17  C9  UNK     1      11.356   5.526   7.627  1.00  0.00     0.051 A 
HETATM   18  C13 UNK     1      11.461   6.009   6.337  1.00  0.00     0.029 A 
HETATM   19  C14 UNK     1      10.300   6.474   5.728  1.00  0.00     0.003 A 
HETATM   20  C16 UNK     1       9.096   6.441   6.422  1.00  0.00     0.019 A 
HETATM   21  C15 UNK     1       9.105   5.936   7.712  1.00  0.00     0.117 A 
HETATM   22  N2  UNK     1      10.211   5.475   8.337  1.00  0.00    -0.264 NA
ENDBRANCH  16  17
ENDBRANCH  14  16
ENDBRANCH   4  12
TORSDOF 3
ENDMDL
MODEL 10
REMARK VINA RESULT:      -8.0      1.879      7.520
REMARK  3 active torsions:
REMARK  status: ('A' for Active; 'I' for Inactive)
REMARK    1  A    between atoms: C5_10  and  N1_4 
REMARK       I    between atoms: C6_11  and  N1_4 
REMARK    2  A    between atoms: C2_7  and  C6_11 
REMARK    3  A    between atoms: C5_10  and  C9_14 
ROOT
HETATM    1  O1  UNK     1      17.657   5.201  34.100  1.00  0.00    -0.274 OA
HETATM    2  O3  UNK     1      18.450   3.247  33.221  1.00  0.00    -0.259 OA
HETATM    3  C1  UNK     1      17.450   7.161  32.676  1.00  0.00    -0.001 A 
HETATM    4  C2  UNK     1      18.291   5.090  31.741  1.00  0.00     0.108 A 
HETATM    5  C3  UNK     1      17.310   6.555  33.920  1.00  0.00     0.089 A 
HETATM    6  C4  UNK     1      17.962   6.376  31.564  1.00  0.00     0.037 A 
HETATM    7  C7  UNK     1      17.094   8.505  32.537  1.00  0.00     0.014 A 
HETATM    8  C8  UNK     1      18.149   4.425  33.055  1.00  0.00     0.304 A 
HETATM    9  C10 UNK     1      16.824   7.252  35.026  1.00  0.00     0.038 A 
HETATM   10  C11 UNK     1      16.607   9.217  33.637  1.00  0.00     0.001 A 
HETATM   11  C12 UNK     1      16.472   8.591  34.878  1.00  0.00     0.003 A 
ENDROOT
BRANCH   4  12
HETATM   12  C6  UNK     1      18.799   4.383  30.560  1.00  0.00     0.258 C 
HETATM   13  O2  UNK     1      19.596   4.922  29.795  1.00  0.00    -0.267 OA
HETATM   14  N1  UNK     1      18.282   3.106  30.435  1.00  0.00    -0.351 N 
HETATM   15  H4  UNK     1      17.614   2.756  31.114  1.00  0.00     0.163 HD
BRANCH  14  16
HETATM   16  C5  UNK     1      18.632   2.216  29.350  1.00  0.00     0.182 C 
BRANCH  16  17
HETATM   17  C9  UNK     1      19.255   0.943  29.846  1.00  0.00     0.051 A 
HETATM   18  C13 UNK     1      19.095   0.592  31.173  1.00  0.00     0.029 A 
HETATM   19  C14 UNK     1      19.683  -0.593  31.600  1.00  0.00     0.003 A 
HETATM   20  C16 UNK     1      20.399  -1.372  30.698  1.00  0.00     0.019 A 
HETATM   21  C15 UNK     1      20.496  -0.926  29.390  1.00  0.00     0.117 A 
HETATM   22  N2  UNK     1      19.939   0.219  28.938  1.00  0.00    -0.264 NA
ENDBRANCH  16  17
ENDBRANCH  14  16
ENDBRANCH   4  12
TORSDOF 3
ENDMDL
