MODEL 1
REMARK VINA RESULT:      -8.9      0.000      0.000
REMARK  3 active torsions:
REMARK  status: ('A' for Active; 'I' for Inactive)
REMARK    1  A    between atoms: C10_13  and  O2_2 
REMARK    2  A    between atoms: C4_7  and  O2_2 
REMARK    3  A    between atoms: C10_13  and  C13_16 
ROOT
HETATM    1  O1  UNK     1      19.270  -0.353  32.814  1.00  0.00    -0.274 OA
HETATM    2  O3  UNK     1      20.061  -2.451  33.260  1.00  0.00    -0.260 OA
HETATM    3  C1  UNK     1      19.414   0.518  30.536  1.00  0.00     0.005 A 
HETATM    4  C2  UNK     1      19.046   0.673  31.874  1.00  0.00     0.099 A 
HETATM    5  C3  UNK     1      18.444   1.838  32.351  1.00  0.00     0.006 A 
HETATM    6  C4  UNK     1      18.198   2.886  31.469  1.00  0.00     0.077 A 
HETATM    7  C5  UNK     1      20.044  -0.742  30.121  1.00  0.00    -0.043 A 
HETATM    8  C6  UNK     1      19.158   1.585  29.663  1.00  0.00     0.017 A 
HETATM    9  C7  UNK     1      18.554   2.759  30.128  1.00  0.00     0.038 A 
HETATM   10  C8  UNK     1      18.064   1.964  33.790  1.00  0.00     0.054 C 
HETATM   11  C9  UNK     1      20.244  -1.700  31.036  1.00  0.00     0.090 A 
HETATM   12  C11 UNK     1      20.451  -0.940  28.689  1.00  0.00     0.049 C 
HETATM   13  C12 UNK     1      19.862  -1.552  32.450  1.00  0.00     0.288 A 
ENDROOT
BRANCH   6  14
HETATM   14  O2  UNK     1      17.611   4.037  31.898  1.00  0.00    -0.346 OA
BRANCH  14  15
HETATM   15  C10 UNK     1      18.205   5.264  31.475  1.00  0.00     0.214 C 
BRANCH  15  16
HETATM   16  C13 UNK     1      18.459   6.182  32.623  1.00  0.00    -0.034 A 
HETATM   17  C15 UNK     1      17.439   6.460  33.533  1.00  0.00     0.009 A 
HETATM   18  C17 UNK     1      17.677   7.318  34.606  1.00  0.00     0.001 A 
HETATM   19  C18 UNK     1      18.934   7.898  34.771  1.00  0.00     0.000 A 
HETATM   20  C16 UNK     1      19.955   7.619  33.862  1.00  0.00     0.001 A 
HETATM   21  C14 UNK     1      19.717   6.761  32.788  1.00  0.00     0.009 A 
ENDBRANCH  15  16
ENDBRANCH  14  15
ENDBRANCH   6  14
TORSDOF 3
ENDMDL
MODEL 2
REMARK VINA RESULT:      -8.4      2.436      8.172
REMARK  3 active torsions:
REMARK  status: ('A' for Active; 'I' for Inactive)
REMARK    1  A    between atoms: C10_13  and  O2_2 
REMARK    2  A    between atoms: C4_7  and  O2_2 
REMARK    3  A    between atoms: C10_13  and  C13_16 
ROOT
HETATM    1  O1  UNK     1      16.662   8.955  33.286  1.00  0.00    -0.274 OA
HETATM    2  O3  UNK     1      16.251  11.112  33.924  1.00  0.00    -0.260 OA
HETATM    3  C1  UNK     1      18.912   8.041  33.546  1.00  0.00     0.005 A 
HETATM    4  C2  UNK     1      17.580   7.894  33.155  1.00  0.00     0.099 A 
HETATM    5  C3  UNK     1      17.087   6.704  32.619  1.00  0.00     0.006 A 
HETATM    6  C4  UNK     1      17.947   5.620  32.466  1.00  0.00     0.077 A 
HETATM    7  C5  UNK     1      19.345   9.330  34.101  1.00  0.00    -0.043 A 
HETATM    8  C6  UNK     1      19.763   6.938  33.384  1.00  0.00     0.017 A 
HETATM    9  C7  UNK     1      19.282   5.738  32.848  1.00  0.00     0.038 A 
HETATM   10  C8  UNK     1      15.655   6.586  32.213  1.00  0.00     0.054 C 
HETATM   11  C9  UNK     1      18.450  10.321  34.213  1.00  0.00     0.090 A 
HETATM   12  C11 UNK     1      20.771   9.520  34.530  1.00  0.00     0.049 C 
HETATM   13  C12 UNK     1      17.042  10.183  33.805  1.00  0.00     0.288 A 
ENDROOT
BRANCH   6  14
HETATM   14  O2  UNK     1      17.503   4.442  31.947  1.00  0.00    -0.346 OA
BRANCH  14  15
HETATM   15  C10 UNK     1      18.276   3.277  32.231  1.00  0.00     0.214 C 
BRANCH  15  16
HETATM   16  C13 UNK     1      18.469   2.430  31.018  1.00  0.00    -0.034 A 
HETATM   17  C15 UNK     1      17.859   2.785  29.815  1.00  0.00     0.009 A 
HETATM   18  C17 UNK     1      18.040   1.993  28.681  1.00  0.00     0.001 A 
HETATM   19  C18 UNK     1      18.831   0.847  28.749  1.00  0.00     0.000 A 
HETATM   20  C16 UNK     1      19.442   0.493  29.952  1.00  0.00     0.001 A 
HETATM   21  C14 UNK     1      19.261   1.284  31.087  1.00  0.00     0.009 A 
ENDBRANCH  15  16
ENDBRANCH  14  15
ENDBRANCH   6  14
TORSDOF 3
ENDMDL
MODEL 3
REMARK VINA RESULT:      -8.4      5.238     10.018
REMARK  3 active torsions:
REMARK  status: ('A' for Active; 'I' for Inactive)
REMARK    1  A    between atoms: C10_13  and  O2_2 
REMARK    2  A    between atoms: C4_7  and  O2_2 
REMARK    3  A    between atoms: C10_13  and  C13_16 
ROOT
HETATM    1  O1  UNK     1      18.964  -0.234  33.938  1.00  0.00    -0.274 OA
HETATM    2  O3  UNK     1      18.220   1.606  32.804  1.00  0.00    -0.260 OA
HETATM    3  C1  UNK     1      18.369  -0.507  36.292  1.00  0.00     0.005 A 
HETATM    4  C2  UNK     1      19.016  -0.964  35.143  1.00  0.00     0.099 A 
HETATM    5  C3  UNK     1      19.743  -2.155  35.120  1.00  0.00     0.006 A 
HETATM    6  C4  UNK     1      19.830  -2.920  36.280  1.00  0.00     0.077 A 
HETATM    7  C5  UNK     1      17.626   0.759  36.225  1.00  0.00    -0.043 A 
HETATM    8  C6  UNK     1      18.468  -1.292  37.450  1.00  0.00     0.017 A 
HETATM    9  C7  UNK     1      19.193  -2.488  37.442  1.00  0.00     0.038 A 
HETATM   10  C8  UNK     1      20.422  -2.610  33.870  1.00  0.00     0.054 C 
HETATM   11  C9  UNK     1      17.594   1.431  35.066  1.00  0.00     0.090 A 
HETATM   12  C11 UNK     1      16.919   1.277  37.443  1.00  0.00     0.049 C 
HETATM   13  C12 UNK     1      18.272   0.963  33.846  1.00  0.00     0.288 A 
ENDROOT
BRANCH   6  14
HETATM   14  O2  UNK     1      20.530  -4.088  36.297  1.00  0.00    -0.346 OA
BRANCH  14  15
HETATM   15  C10 UNK     1      20.955  -4.570  37.571  1.00  0.00     0.214 C 
BRANCH  15  16
HETATM   16  C13 UNK     1      20.330  -5.882  37.905  1.00  0.00    -0.034 A 
HETATM   17  C15 UNK     1      19.444  -6.481  37.010  1.00  0.00     0.009 A 
HETATM   18  C17 UNK     1      18.859  -7.708  37.322  1.00  0.00     0.001 A 
HETATM   19  C18 UNK     1      19.160  -8.337  38.530  1.00  0.00     0.000 A 
HETATM   20  C16 UNK     1      20.047  -7.738  39.425  1.00  0.00     0.001 A 
HETATM   21  C14 UNK     1      20.631  -6.511  39.113  1.00  0.00     0.009 A 
ENDBRANCH  15  16
ENDBRANCH  14  15
ENDBRANCH   6  14
TORSDOF 3
ENDMDL
MODEL 4
REMARK VINA RESULT:      -8.4      2.282      7.740
REMARK  3 active torsions:
REMARK  status: ('A' for Active; 'I' for Inactive)
REMARK    1  A    between atoms: C10_13  and  O2_2 
REMARK    2  A    between atoms: C4_7  and  O2_2 
REMARK    3  A    between atoms: C10_13  and  C13_16 
ROOT
HETATM    1  O1  UNK     1      20.386   7.646  33.233  1.00  0.00    -0.274 OA
HETATM    2  O3  UNK     1      20.958   9.455  34.510  1.00  0.00    -0.260 OA
HETATM    3  C1  UNK     1      18.166   6.659  33.488  1.00  0.00     0.005 A 
HETATM    4  C2  UNK     1      19.423   6.680  32.880  1.00  0.00     0.099 A 
HETATM    5  C3  UNK     1      19.793   5.758  31.899  1.00  0.00     0.006 A 
HETATM    6  C4  UNK     1      18.883   4.780  31.509  1.00  0.00     0.077 A 
HETATM    7  C5  UNK     1      17.862   7.668  34.511  1.00  0.00    -0.043 A 
HETATM    8  C6  UNK     1      17.264   5.666  33.080  1.00  0.00     0.017 A 
HETATM    9  C7  UNK     1      17.621   4.735  32.099  1.00  0.00     0.038 A 
HETATM   10  C8  UNK     1      21.147   5.815  31.272  1.00  0.00     0.054 C 
HETATM   11  C9  UNK     1      18.798   8.574  34.827  1.00  0.00     0.090 A 
HETATM   12  C11 UNK     1      16.521   7.671  35.183  1.00  0.00     0.049 C 
HETATM   13  C12 UNK     1      20.127   8.610  34.195  1.00  0.00     0.288 A 
ENDROOT
BRANCH   6  14
HETATM   14  O2  UNK     1      19.207   3.864  30.555  1.00  0.00    -0.346 OA
BRANCH  14  15
HETATM   15  C10 UNK     1      18.280   2.801  30.336  1.00  0.00     0.214 C 
BRANCH  15  16
HETATM   16  C13 UNK     1      18.966   1.541  29.929  1.00  0.00    -0.034 A 
HETATM   17  C15 UNK     1      18.662   0.945  28.706  1.00  0.00     0.009 A 
HETATM   18  C17 UNK     1      19.304  -0.233  28.325  1.00  0.00     0.001 A 
HETATM   19  C18 UNK     1      20.250  -0.816  29.168  1.00  0.00     0.000 A 
HETATM   20  C16 UNK     1      20.554  -0.219  30.392  1.00  0.00     0.001 A 
HETATM   21  C14 UNK     1      19.912   0.959  30.773  1.00  0.00     0.009 A 
ENDBRANCH  15  16
ENDBRANCH  14  15
ENDBRANCH   6  14
TORSDOF 3
ENDMDL
MODEL 5
REMARK VINA RESULT:      -8.1      1.662      2.758
REMARK  3 active torsions:
REMARK  status: ('A' for Active; 'I' for Inactive)
REMARK    1  A    between atoms: C10_13  and  O2_2 
REMARK    2  A    between atoms: C4_7  and  O2_2 
REMARK    3  A    between atoms: C10_13  and  C13_16 
ROOT
HETATM    1  O1  UNK     1      19.631   0.863  29.566  1.00  0.00    -0.274 OA
HETATM    2  O3  UNK     1      20.563  -0.645  28.121  1.00  0.00    -0.260 OA
HETATM    3  C1  UNK     1      19.217   0.200  31.880  1.00  0.00     0.005 A 
HETATM    4  C2  UNK     1      19.166   1.155  30.863  1.00  0.00     0.099 A 
HETATM    5  C3  UNK     1      18.657   2.438  31.070  1.00  0.00     0.006 A 
HETATM    6  C4  UNK     1      18.183   2.785  32.332  1.00  0.00     0.077 A 
HETATM    7  C5  UNK     1      19.769  -1.126  31.573  1.00  0.00    -0.043 A 
HETATM    8  C6  UNK     1      18.735   0.570  33.144  1.00  0.00     0.017 A 
HETATM    9  C7  UNK     1      18.222   1.852  33.366  1.00  0.00     0.038 A 
HETATM   10  C8  UNK     1      18.619   3.432  29.956  1.00  0.00     0.054 C 
HETATM   11  C9  UNK     1      20.204  -1.376  30.330  1.00  0.00     0.090 A 
HETATM   12  C11 UNK     1      19.838  -2.174  32.645  1.00  0.00     0.049 C 
HETATM   13  C12 UNK     1      20.156  -0.380  29.247  1.00  0.00     0.288 A 
ENDROOT
BRANCH   6  14
HETATM   14  O2  UNK     1      17.680   4.028  32.573  1.00  0.00    -0.346 OA
BRANCH  14  15
HETATM   15  C10 UNK     1      18.273   4.772  33.636  1.00  0.00     0.214 C 
BRANCH  15  16
HETATM   16  C13 UNK     1      17.982   6.231  33.523  1.00  0.00    -0.034 A 
HETATM   17  C15 UNK     1      18.778   7.155  34.199  1.00  0.00     0.009 A 
HETATM   18  C17 UNK     1      18.506   8.519  34.093  1.00  0.00     0.001 A 
HETATM   19  C18 UNK     1      17.439   8.959  33.311  1.00  0.00     0.000 A 
HETATM   20  C16 UNK     1      16.644   8.034  32.634  1.00  0.00     0.001 A 
HETATM   21  C14 UNK     1      16.915   6.670  32.740  1.00  0.00     0.009 A 
ENDBRANCH  15  16
ENDBRANCH  14  15
ENDBRANCH   6  14
TORSDOF 3
ENDMDL
MODEL 6
REMARK VINA RESULT:      -7.9      1.584      3.055
REMARK  3 active torsions:
REMARK  status: ('A' for Active; 'I' for Inactive)
REMARK    1  A    between atoms: C10_13  and  O2_2 
REMARK    2  A    between atoms: C4_7  and  O2_2 
REMARK    3  A    between atoms: C10_13  and  C13_16 
ROOT
HETATM    1  O1  UNK     1      18.810   0.213  31.677  1.00  0.00    -0.274 OA
HETATM    2  O3  UNK     1      19.101  -2.051  31.812  1.00  0.00    -0.260 OA
HETATM    3  C1  UNK     1      18.380   1.485  33.718  1.00  0.00     0.005 A 
HETATM    4  C2  UNK     1      18.561   1.434  32.335  1.00  0.00     0.099 A 
HETATM    5  C3  UNK     1      18.506   2.576  31.534  1.00  0.00     0.006 A 
HETATM    6  C4  UNK     1      18.263   3.811  32.127  1.00  0.00     0.077 A 
HETATM    7  C5  UNK     1      18.454   0.233  34.484  1.00  0.00    -0.043 A 
HETATM    8  C6  UNK     1      18.137   2.738  34.297  1.00  0.00     0.017 A 
HETATM    9  C7  UNK     1      18.079   3.891  33.506  1.00  0.00     0.038 A 
HETATM   10  C8  UNK     1      18.705   2.480  30.057  1.00  0.00     0.054 C 
HETATM   11  C9  UNK     1      18.692  -0.913  33.831  1.00  0.00     0.090 A 
HETATM   12  C11 UNK     1      18.264   0.254  35.972  1.00  0.00     0.049 C 
HETATM   13  C12 UNK     1      18.885  -0.983  32.374  1.00  0.00     0.288 A 
ENDROOT
BRANCH   6  14
HETATM   14  O2  UNK     1      18.204   4.947  31.378  1.00  0.00    -0.346 OA
BRANCH  14  15
HETATM   15  C10 UNK     1      19.305   5.848  31.480  1.00  0.00     0.214 C 
BRANCH  15  16
HETATM   16  C13 UNK     1      19.034   6.951  32.446  1.00  0.00    -0.034 A 
HETATM   17  C15 UNK     1      20.004   7.314  33.381  1.00  0.00     0.009 A 
HETATM   18  C17 UNK     1      19.750   8.345  34.284  1.00  0.00     0.001 A 
HETATM   19  C18 UNK     1      18.527   9.015  34.254  1.00  0.00     0.000 A 
HETATM   20  C16 UNK     1      17.557   8.653  33.319  1.00  0.00     0.001 A 
HETATM   21  C14 UNK     1      17.810   7.620  32.415  1.00  0.00     0.009 A 
ENDBRANCH  15  16
ENDBRANCH  14  15
ENDBRANCH   6  14
TORSDOF 3
ENDMDL
MODEL 7
REMARK VINA RESULT:      -7.8      3.583      6.147
REMARK  3 active torsions:
REMARK  status: ('A' for Active; 'I' for Inactive)
REMARK    1  A    between atoms: C10_13  and  O2_2 
REMARK    2  A    between atoms: C4_7  and  O2_2 
REMARK    3  A    between atoms: C10_13  and  C13_16 
ROOT
HETATM    1  O1  UNK     1      20.576  -3.387  35.528  1.00  0.00    -0.274 OA
HETATM    2  O3  UNK     1      20.968  -4.325  37.576  1.00  0.00    -0.260 OA
HETATM    3  C1  UNK     1      18.950  -1.573  35.337  1.00  0.00     0.005 A 
HETATM    4  C2  UNK     1      19.879  -2.437  34.754  1.00  0.00     0.099 A 
HETATM    5  C3  UNK     1      20.168  -2.410  33.389  1.00  0.00     0.006 A 
HETATM    6  C4  UNK     1      19.512  -1.494  32.574  1.00  0.00     0.077 A 
HETATM    7  C5  UNK     1      18.708  -1.672  36.783  1.00  0.00    -0.043 A 
HETATM    8  C6  UNK     1      18.299  -0.657  34.499  1.00  0.00     0.017 A 
HETATM    9  C7  UNK     1      18.579  -0.619  33.129  1.00  0.00     0.038 A 
HETATM   10  C8  UNK     1      21.170  -3.351  32.804  1.00  0.00     0.054 C 
HETATM   11  C9  UNK     1      19.385  -2.585  37.493  1.00  0.00     0.090 A 
HETATM   12  C11 UNK     1      17.715  -0.758  37.439  1.00  0.00     0.049 C 
HETATM   13  C12 UNK     1      20.368  -3.502  36.894  1.00  0.00     0.288 A 
ENDROOT
BRANCH   6  14
HETATM   14  O2  UNK     1      19.768  -1.436  31.238  1.00  0.00    -0.346 OA
BRANCH  14  15
HETATM   15  C10 UNK     1      20.464  -0.286  30.760  1.00  0.00     0.214 C 
BRANCH  15  16
HETATM   16  C13 UNK     1      19.541   0.696  30.120  1.00  0.00    -0.034 A 
HETATM   17  C15 UNK     1      19.202   1.872  30.789  1.00  0.00     0.009 A 
HETATM   18  C17 UNK     1      18.339   2.790  30.191  1.00  0.00     0.001 A 
HETATM   19  C18 UNK     1      17.817   2.534  28.924  1.00  0.00     0.000 A 
HETATM   20  C16 UNK     1      18.157   1.358  28.255  1.00  0.00     0.001 A 
HETATM   21  C14 UNK     1      19.019   0.439  28.853  1.00  0.00     0.009 A 
ENDBRANCH  15  16
ENDBRANCH  14  15
ENDBRANCH   6  14
TORSDOF 3
ENDMDL
MODEL 8
REMARK VINA RESULT:      -7.7      6.635     10.055
REMARK  3 active torsions:
REMARK  status: ('A' for Active; 'I' for Inactive)
REMARK    1  A    between atoms: C10_13  and  O2_2 
REMARK    2  A    between atoms: C4_7  and  O2_2 
REMARK    3  A    between atoms: C10_13  and  C13_16 
ROOT
HETATM    1  O1  UNK     1      19.117  -8.287  37.881  1.00  0.00    -0.274 OA
HETATM    2  O3  UNK     1      19.009 -10.447  38.623  1.00  0.00    -0.260 OA
HETATM    3  C1  UNK     1      21.084  -6.939  38.413  1.00  0.00     0.005 A 
HETATM    4  C2  UNK     1      19.833  -7.075  37.809  1.00  0.00     0.099 A 
HETATM    5  C3  UNK     1      19.227  -6.033  37.106  1.00  0.00     0.006 A 
HETATM    6  C4  UNK     1      19.886  -4.812  37.001  1.00  0.00     0.077 A 
HETATM    7  C5  UNK     1      21.647  -8.089  39.133  1.00  0.00    -0.043 A 
HETATM    8  C6  UNK     1      21.732  -5.701  38.295  1.00  0.00     0.017 A 
HETATM    9  C7  UNK     1      21.136  -4.647  37.594  1.00  0.00     0.038 A 
HETATM   10  C8  UNK     1      17.887  -6.218  36.473  1.00  0.00     0.054 C 
HETATM   11  C9  UNK     1      20.943  -9.229  39.186  1.00  0.00     0.090 A 
HETATM   12  C11 UNK     1      22.990  -7.974  39.794  1.00  0.00     0.049 C 
HETATM   13  C12 UNK     1      19.624  -9.388  38.554  1.00  0.00     0.288 A 
ENDROOT
BRANCH   6  14
HETATM   14  O2  UNK     1      19.327  -3.771  36.323  1.00  0.00    -0.346 OA
BRANCH  14  15
HETATM   15  C10 UNK     1      20.190  -2.694  35.962  1.00  0.00     0.214 C 
BRANCH  15  16
HETATM   16  C13 UNK     1      19.929  -2.213  34.575  1.00  0.00    -0.034 A 
HETATM   17  C15 UNK     1      20.724  -2.662  33.520  1.00  0.00     0.009 A 
HETATM   18  C17 UNK     1      20.480  -2.213  32.223  1.00  0.00     0.001 A 
HETATM   19  C18 UNK     1      19.441  -1.316  31.979  1.00  0.00     0.000 A 
HETATM   20  C16 UNK     1      18.645  -0.868  33.033  1.00  0.00     0.001 A 
HETATM   21  C14 UNK     1      18.889  -1.316  34.331  1.00  0.00     0.009 A 
ENDBRANCH  15  16
ENDBRANCH  14  15
ENDBRANCH   6  14
TORSDOF 3
ENDMDL
MODEL 9
REMARK VINA RESULT:      -7.7      6.943      9.846
REMARK  3 active torsions:
REMARK  status: ('A' for Active; 'I' for Inactive)
REMARK    1  A    between atoms: C10_13  and  O2_2 
REMARK    2  A    between atoms: C4_7  and  O2_2 
REMARK    3  A    between atoms: C10_13  and  C13_16 
ROOT
HETATM    1  O1  UNK     1      19.117  -8.373  37.952  1.00  0.00    -0.274 OA
HETATM    2  O3  UNK     1      19.059 -10.533  38.699  1.00  0.00    -0.260 OA
HETATM    3  C1  UNK     1      21.077  -6.996  38.434  1.00  0.00     0.005 A 
HETATM    4  C2  UNK     1      19.813  -7.151  37.860  1.00  0.00     0.099 A 
HETATM    5  C3  UNK     1      19.175  -6.119  37.172  1.00  0.00     0.006 A 
HETATM    6  C4  UNK     1      19.814  -4.888  37.048  1.00  0.00     0.077 A 
HETATM    7  C5  UNK     1      21.673  -8.136  39.142  1.00  0.00    -0.043 A 
HETATM    8  C6  UNK     1      21.703  -5.749  38.299  1.00  0.00     0.017 A 
HETATM    9  C7  UNK     1      21.075  -4.705  37.611  1.00  0.00     0.038 A 
HETATM   10  C8  UNK     1      17.823  -6.325  36.571  1.00  0.00     0.054 C 
HETATM   11  C9  UNK     1      20.988  -9.286  39.213  1.00  0.00     0.090 A 
HETATM   12  C11 UNK     1      23.030  -8.001  39.770  1.00  0.00     0.049 C 
HETATM   13  C12 UNK     1      19.656  -9.466  38.614  1.00  0.00     0.288 A 
ENDROOT
BRANCH   6  14
HETATM   14  O2  UNK     1      19.223  -3.857  36.383  1.00  0.00    -0.346 OA
BRANCH  14  15
HETATM   15  C10 UNK     1      19.774  -2.556  36.584  1.00  0.00     0.214 C 
BRANCH  15  16
HETATM   16  C13 UNK     1      18.742  -1.488  36.440  1.00  0.00    -0.034 A 
HETATM   17  C15 UNK     1      18.044  -1.039  37.560  1.00  0.00     0.009 A 
HETATM   18  C17 UNK     1      17.079  -0.041  37.427  1.00  0.00     0.001 A 
HETATM   19  C18 UNK     1      16.814   0.510  36.174  1.00  0.00     0.000 A 
HETATM   20  C16 UNK     1      17.514   0.061  35.053  1.00  0.00     0.001 A 
HETATM   21  C14 UNK     1      18.478  -0.938  35.186  1.00  0.00     0.009 A 
ENDBRANCH  15  16
ENDBRANCH  14  15
ENDBRANCH   6  14
TORSDOF 3
ENDMDL
MODEL 10
REMARK VINA RESULT:      -7.6      3.684      7.933
REMARK  3 active torsions:
REMARK  status: ('A' for Active; 'I' for Inactive)
REMARK    1  A    between atoms: C10_13  and  O2_2 
REMARK    2  A    between atoms: C4_7  and  O2_2 
REMARK    3  A    between atoms: C10_13  and  C13_16 
ROOT
HETATM    1  O1  UNK     1      18.364   1.059  31.975  1.00  0.00    -0.274 OA
HETATM    2  O3  UNK     1      17.921   2.631  30.375  1.00  0.00    -0.260 OA
HETATM    3  C1  UNK     1      19.867  -0.793  31.446  1.00  0.00     0.005 A 
HETATM    4  C2  UNK     1      19.036  -0.123  32.346  1.00  0.00     0.099 A 
HETATM    5  C3  UNK     1      18.824  -0.579  33.647  1.00  0.00     0.006 A 
HETATM    6  C4  UNK     1      19.461  -1.742  34.071  1.00  0.00     0.077 A 
HETATM    7  C5  UNK     1      20.032  -0.240  30.095  1.00  0.00    -0.043 A 
HETATM    8  C6  UNK     1      20.500  -1.962  31.892  1.00  0.00     0.017 A 
HETATM    9  C7  UNK     1      20.297  -2.431  33.194  1.00  0.00     0.038 A 
HETATM   10  C8  UNK     1      17.927   0.166  34.580  1.00  0.00     0.054 C 
HETATM   11  C9  UNK     1      19.381   0.885  29.771  1.00  0.00     0.090 A 
HETATM   12  C11 UNK     1      20.919  -0.937  29.105  1.00  0.00     0.049 C 
HETATM   13  C12 UNK     1      18.500   1.603  30.707  1.00  0.00     0.288 A 
ENDROOT
BRANCH   6  14
HETATM   14  O2  UNK     1      19.280  -2.219  35.334  1.00  0.00    -0.346 OA
BRANCH  14  15
HETATM   15  C10 UNK     1      20.449  -2.611  36.052  1.00  0.00     0.214 C 
BRANCH  15  16
HETATM   16  C13 UNK     1      20.295  -3.961  36.669  1.00  0.00    -0.034 A 
HETATM   17  C15 UNK     1      19.224  -4.775  36.304  1.00  0.00     0.009 A 
HETATM   18  C17 UNK     1      19.079  -6.037  36.881  1.00  0.00     0.001 A 
HETATM   19  C18 UNK     1      20.007  -6.485  37.821  1.00  0.00     0.000 A 
HETATM   20  C16 UNK     1      21.079  -5.671  38.184  1.00  0.00     0.001 A 
HETATM   21  C14 UNK     1      21.224  -4.408  37.609  1.00  0.00     0.009 A 
ENDBRANCH  15  16
ENDBRANCH  14  15
ENDBRANCH   6  14
TORSDOF 3
ENDMDL
