MODEL 1
REMARK VINA RESULT:      -9.0      0.000      0.000
REMARK  5 active torsions:
REMARK  status: ('A' for Active; 'I' for Inactive)
REMARK    1  A    between atoms: C1_7  and  N1_4 
REMARK    2  A    between atoms: C11_17  and  N1_4 
REMARK    3  A    between atoms: C11_17  and  N2_5 
REMARK    4  A    between atoms: C5_11  and  N2_5 
REMARK    5  A    between atoms: C1_7  and  C2_8 
ROOT
HETATM    1  N2  UNK     1      18.875  -0.639  31.145  1.00  0.00    -0.333 N 
HETATM    2  H9  UNK     1      18.115  -1.141  30.697  1.00  0.00     0.168 HD
ENDROOT
BRANCH   1   3
HETATM    3  C11 UNK     1      19.712   0.048  30.248  1.00  0.00     0.172 C 
HETATM    4  S1  UNK     1      20.766  -0.609  29.117  1.00  0.00    -0.041 SA
BRANCH   3   5
HETATM    5  N1  UNK     1      19.618   1.433  30.288  1.00  0.00    -0.359 N 
HETATM    6  H2  UNK     1      20.498   1.931  30.384  1.00  0.00     0.162 HD
BRANCH   5   7
HETATM    7  C1  UNK     1      18.413   2.231  30.161  1.00  0.00     0.113 C 
HETATM    8  C6  UNK     1      17.946   2.250  28.706  1.00  0.00     0.037 C 
BRANCH   7   9
HETATM    9  C2  UNK     1      18.609   3.622  30.725  1.00  0.00    -0.033 A 
HETATM   10  C12 UNK     1      19.155   4.605  29.926  1.00  0.00     0.028 A 
HETATM   11  C17 UNK     1      19.314   5.860  30.490  1.00  0.00     0.116 A 
HETATM   12  N3  UNK     1      18.969   6.169  31.759  1.00  0.00    -0.273 NA
HETATM   13  C18 UNK     1      18.438   5.169  32.497  1.00  0.00     0.116 A 
HETATM   14  C13 UNK     1      18.238   3.881  32.028  1.00  0.00     0.028 A 
ENDBRANCH   7   9
ENDBRANCH   5   7
ENDBRANCH   3   5
ENDBRANCH   1   3
BRANCH   1  15
HETATM   15  C5  UNK     1      19.041  -1.043  32.470  1.00  0.00     0.036 A 
HETATM   16  C10 UNK     1      19.954  -2.049  32.785  1.00  0.00     0.030 A 
HETATM   17  C9  UNK     1      20.124  -2.460  34.112  1.00  0.00     0.017 A 
HETATM   18  C3  UNK     1      19.384  -1.870  35.145  1.00  0.00     0.004 A 
HETATM   19  C4  UNK     1      18.477  -0.866  34.800  1.00  0.00     0.092 A 
HETATM   20  C7  UNK     1      19.509  -2.250  36.558  1.00  0.00    -0.043 A 
HETATM   21  O1  UNK     1      17.694  -0.224  35.780  1.00  0.00    -0.275 OA
HETATM   22  C8  UNK     1      18.296  -0.445  33.481  1.00  0.00     0.067 A 
HETATM   23  C16 UNK     1      17.790  -0.561  37.121  1.00  0.00     0.288 A 
HETATM   24  C14 UNK     1      18.751  -1.622  37.469  1.00  0.00     0.090 A 
HETATM   25  O2  UNK     1      17.114  -0.008  37.981  1.00  0.00    -0.260 OA
HETATM   26  C15 UNK     1      20.475  -3.326  36.962  1.00  0.00     0.049 C 
ENDBRANCH   1  15
TORSDOF 5
ENDMDL
MODEL 2
REMARK VINA RESULT:      -9.0      1.485      2.162
REMARK  5 active torsions:
REMARK  status: ('A' for Active; 'I' for Inactive)
REMARK    1  A    between atoms: C1_7  and  N1_4 
REMARK    2  A    between atoms: C11_17  and  N1_4 
REMARK    3  A    between atoms: C11_17  and  N2_5 
REMARK    4  A    between atoms: C5_11  and  N2_5 
REMARK    5  A    between atoms: C1_7  and  C2_8 
ROOT
HETATM    1  N2  UNK     1      18.709  -0.456  31.443  1.00  0.00    -0.333 N 
HETATM    2  H9  UNK     1      17.982  -0.980  30.965  1.00  0.00     0.168 HD
ENDROOT
BRANCH   1   3
HETATM    3  C11 UNK     1      19.645   0.140  30.579  1.00  0.00     0.172 C 
HETATM    4  S1  UNK     1      20.776  -0.628  29.604  1.00  0.00    -0.041 SA
BRANCH   3   5
HETATM    5  N1  UNK     1      19.590   1.525  30.506  1.00  0.00    -0.359 N 
HETATM    6  H2  UNK     1      20.482   2.005  30.585  1.00  0.00     0.162 HD
BRANCH   5   7
HETATM    7  C1  UNK     1      18.413   2.344  30.286  1.00  0.00     0.113 C 
HETATM    8  C6  UNK     1      18.019   2.311  28.810  1.00  0.00     0.037 C 
BRANCH   7   9
HETATM    9  C2  UNK     1      18.614   3.752  30.803  1.00  0.00    -0.033 A 
HETATM   10  C12 UNK     1      19.173   4.702  29.973  1.00  0.00     0.028 A 
HETATM   11  C17 UNK     1      19.336   5.976  30.494  1.00  0.00     0.116 A 
HETATM   12  N3  UNK     1      18.983   6.332  31.748  1.00  0.00    -0.273 NA
HETATM   13  C18 UNK     1      18.439   5.362  32.517  1.00  0.00     0.116 A 
HETATM   14  C13 UNK     1      18.234   4.060  32.093  1.00  0.00     0.028 A 
ENDBRANCH   7   9
ENDBRANCH   5   7
ENDBRANCH   3   5
ENDBRANCH   1   3
BRANCH   1  15
HETATM   15  C5  UNK     1      18.736  -0.751  32.806  1.00  0.00     0.036 A 
HETATM   16  C10 UNK     1      17.975   0.002  33.699  1.00  0.00     0.030 A 
HETATM   17  C9  UNK     1      17.999  -0.288  35.069  1.00  0.00     0.017 A 
HETATM   18  C3  UNK     1      18.785  -1.337  35.564  1.00  0.00     0.004 A 
HETATM   19  C4  UNK     1      19.537  -2.073  34.647  1.00  0.00     0.092 A 
HETATM   20  C7  UNK     1      18.859  -1.698  36.987  1.00  0.00    -0.043 A 
HETATM   21  O1  UNK     1      20.353  -3.142  35.066  1.00  0.00    -0.275 OA
HETATM   22  C8  UNK     1      19.523  -1.795  33.279  1.00  0.00     0.067 A 
HETATM   23  C16 UNK     1      20.444  -3.505  36.401  1.00  0.00     0.288 A 
HETATM   24  C14 UNK     1      19.645  -2.719  37.356  1.00  0.00     0.090 A 
HETATM   25  O2  UNK     1      21.151  -4.435  36.775  1.00  0.00    -0.260 OA
HETATM   26  C15 UNK     1      18.063  -0.926  37.998  1.00  0.00     0.049 C 
ENDBRANCH   1  15
TORSDOF 5
ENDMDL
MODEL 3
REMARK VINA RESULT:      -8.9      4.297      8.134
REMARK  5 active torsions:
REMARK  status: ('A' for Active; 'I' for Inactive)
REMARK    1  A    between atoms: C1_7  and  N1_4 
REMARK    2  A    between atoms: C11_17  and  N1_4 
REMARK    3  A    between atoms: C11_17  and  N2_5 
REMARK    4  A    between atoms: C5_11  and  N2_5 
REMARK    5  A    between atoms: C1_7  and  C2_8 
ROOT
HETATM    1  N2  UNK     1      17.587   4.299  32.315  1.00  0.00    -0.333 N 
HETATM    2  H9  UNK     1      16.690   4.364  31.842  1.00  0.00     0.168 HD
ENDROOT
BRANCH   1   3
HETATM    3  C11 UNK     1      17.957   2.985  32.654  1.00  0.00     0.172 C 
HETATM    4  S1  UNK     1      18.353   2.389  34.174  1.00  0.00    -0.041 SA
BRANCH   3   5
HETATM    5  N1  UNK     1      17.956   2.076  31.604  1.00  0.00    -0.359 N 
HETATM    6  H2  UNK     1      17.169   1.435  31.579  1.00  0.00     0.162 HD
BRANCH   5   7
HETATM    7  C1  UNK     1      18.926   1.982  30.529  1.00  0.00     0.113 C 
HETATM    8  C6  UNK     1      18.316   2.493  29.225  1.00  0.00     0.037 C 
BRANCH   7   9
HETATM    9  C2  UNK     1      19.474   0.576  30.401  1.00  0.00    -0.033 A 
HETATM   10  C12 UNK     1      19.402  -0.278  31.483  1.00  0.00     0.028 A 
HETATM   11  C17 UNK     1      19.918  -1.553  31.315  1.00  0.00     0.116 A 
HETATM   12  N3  UNK     1      20.479  -1.998  30.169  1.00  0.00    -0.273 NA
HETATM   13  C18 UNK     1      20.524  -1.119  29.142  1.00  0.00     0.116 A 
HETATM   14  C13 UNK     1      20.036   0.176  29.207  1.00  0.00     0.028 A 
ENDBRANCH   7   9
ENDBRANCH   5   7
ENDBRANCH   3   5
ENDBRANCH   1   3
BRANCH   1  15
HETATM   15  C5  UNK     1      18.019   5.547  32.761  1.00  0.00     0.036 A 
HETATM   16  C10 UNK     1      19.358   5.744  33.096  1.00  0.00     0.030 A 
HETATM   17  C9  UNK     1      19.798   6.994  33.546  1.00  0.00     0.017 A 
HETATM   18  C3  UNK     1      18.905   8.067  33.667  1.00  0.00     0.004 A 
HETATM   19  C4  UNK     1      17.571   7.841  33.325  1.00  0.00     0.092 A 
HETATM   20  C7  UNK     1      19.295   9.405  34.132  1.00  0.00    -0.043 A 
HETATM   21  O1  UNK     1      16.610   8.867  33.420  1.00  0.00    -0.275 OA
HETATM   22  C8  UNK     1      17.117   6.599  32.875  1.00  0.00     0.067 A 
HETATM   23  C16 UNK     1      16.949  10.139  33.855  1.00  0.00     0.288 A 
HETATM   24  C14 UNK     1      18.360  10.362  34.213  1.00  0.00     0.090 A 
HETATM   25  O2  UNK     1      16.121  11.039  33.941  1.00  0.00    -0.260 OA
HETATM   26  C15 UNK     1      20.722   9.681  34.508  1.00  0.00     0.049 C 
ENDBRANCH   1  15
TORSDOF 5
ENDMDL
MODEL 4
REMARK VINA RESULT:      -8.7      5.561      7.663
REMARK  5 active torsions:
REMARK  status: ('A' for Active; 'I' for Inactive)
REMARK    1  A    between atoms: C1_7  and  N1_4 
REMARK    2  A    between atoms: C11_17  and  N1_4 
REMARK    3  A    between atoms: C11_17  and  N2_5 
REMARK    4  A    between atoms: C5_11  and  N2_5 
REMARK    5  A    between atoms: C1_7  and  C2_8 
ROOT
HETATM    1  N2  UNK     1      18.493  -4.958  36.445  1.00  0.00    -0.333 N 
HETATM    2  H9  UNK     1      17.588  -4.935  35.986  1.00  0.00     0.168 HD
ENDROOT
BRANCH   1   3
HETATM    3  C11 UNK     1      19.011  -3.686  36.747  1.00  0.00     0.172 C 
HETATM    4  S1  UNK     1      20.560  -3.305  37.273  1.00  0.00    -0.041 SA
BRANCH   3   5
HETATM    5  N1  UNK     1      18.138  -2.625  36.546  1.00  0.00    -0.359 N 
HETATM    6  H2  UNK     1      17.175  -2.880  36.349  1.00  0.00     0.162 HD
BRANCH   5   7
HETATM    7  C1  UNK     1      18.447  -1.210  36.635  1.00  0.00     0.113 C 
HETATM    8  C6  UNK     1      17.462  -0.515  37.575  1.00  0.00     0.037 C 
BRANCH   7   9
HETATM    9  C2  UNK     1      18.493  -0.567  35.265  1.00  0.00    -0.033 A 
HETATM   10  C12 UNK     1      18.220   0.779  35.141  1.00  0.00     0.028 A 
HETATM   11  C17 UNK     1      18.275   1.319  33.866  1.00  0.00     0.116 A 
HETATM   12  N3  UNK     1      18.577   0.610  32.756  1.00  0.00    -0.273 NA
HETATM   13  C18 UNK     1      18.836  -0.705  32.936  1.00  0.00     0.116 A 
HETATM   14  C13 UNK     1      18.807  -1.339  34.166  1.00  0.00     0.028 A 
ENDBRANCH   7   9
ENDBRANCH   5   7
ENDBRANCH   3   5
ENDBRANCH   1   3
BRANCH   1  15
HETATM   15  C5  UNK     1      19.083  -6.218  36.346  1.00  0.00     0.036 A 
HETATM   16  C10 UNK     1      20.001  -6.482  35.331  1.00  0.00     0.030 A 
HETATM   17  C9  UNK     1      20.596  -7.745  35.226  1.00  0.00     0.017 A 
HETATM   18  C3  UNK     1      20.280  -8.763  36.136  1.00  0.00     0.004 A 
HETATM   19  C4  UNK     1      19.357  -8.470  37.141  1.00  0.00     0.092 A 
HETATM   20  C7  UNK     1      20.863 -10.111  36.087  1.00  0.00    -0.043 A 
HETATM   21  O1  UNK     1      18.985  -9.439  38.095  1.00  0.00    -0.275 OA
HETATM   22  C8  UNK     1      18.756  -7.215  37.259  1.00  0.00     0.067 A 
HETATM   23  C16 UNK     1      19.519 -10.718  38.073  1.00  0.00     0.288 A 
HETATM   24  C14 UNK     1      20.491 -11.013  37.006  1.00  0.00     0.090 A 
HETATM   25  O2  UNK     1      19.203 -11.569  38.898  1.00  0.00    -0.260 OA
HETATM   26  C15 UNK     1      21.858 -10.458  35.018  1.00  0.00     0.049 C 
ENDBRANCH   1  15
TORSDOF 5
ENDMDL
MODEL 5
REMARK VINA RESULT:      -8.5      5.564      7.829
REMARK  5 active torsions:
REMARK  status: ('A' for Active; 'I' for Inactive)
REMARK    1  A    between atoms: C1_7  and  N1_4 
REMARK    2  A    between atoms: C11_17  and  N1_4 
REMARK    3  A    between atoms: C11_17  and  N2_5 
REMARK    4  A    between atoms: C5_11  and  N2_5 
REMARK    5  A    between atoms: C1_7  and  C2_8 
ROOT
HETATM    1  N2  UNK     1      18.461  -5.010  36.415  1.00  0.00    -0.333 N 
HETATM    2  H9  UNK     1      17.744  -4.958  35.698  1.00  0.00     0.168 HD
ENDROOT
BRANCH   1   3
HETATM    3  C11 UNK     1      19.051  -3.771  36.723  1.00  0.00     0.172 C 
HETATM    4  S1  UNK     1      20.624  -3.480  37.234  1.00  0.00    -0.041 SA
BRANCH   3   5
HETATM    5  N1  UNK     1      18.234  -2.662  36.544  1.00  0.00    -0.359 N 
HETATM    6  H2  UNK     1      17.253  -2.862  36.376  1.00  0.00     0.162 HD
BRANCH   5   7
HETATM    7  C1  UNK     1      18.625  -1.267  36.619  1.00  0.00     0.113 C 
HETATM    8  C6  UNK     1      17.756  -0.532  37.638  1.00  0.00     0.037 C 
BRANCH   7   9
HETATM    9  C2  UNK     1      18.600  -0.612  35.254  1.00  0.00    -0.033 A 
HETATM   10  C12 UNK     1      18.895  -1.366  34.137  1.00  0.00     0.028 A 
HETATM   11  C17 UNK     1      18.858  -0.720  32.912  1.00  0.00     0.116 A 
HETATM   12  N3  UNK     1      18.555   0.587  32.755  1.00  0.00    -0.273 NA
HETATM   13  C18 UNK     1      18.274   1.279  33.882  1.00  0.00     0.116 A 
HETATM   14  C13 UNK     1      18.283   0.726  35.152  1.00  0.00     0.028 A 
ENDBRANCH   7   9
ENDBRANCH   5   7
ENDBRANCH   3   5
ENDBRANCH   1   3
BRANCH   1  15
HETATM   15  C5  UNK     1      18.859  -6.327  36.642  1.00  0.00     0.036 A 
HETATM   16  C10 UNK     1      18.367  -7.026  37.744  1.00  0.00     0.030 A 
HETATM   17  C9  UNK     1      18.763  -8.348  37.978  1.00  0.00     0.017 A 
HETATM   18  C3  UNK     1      19.658  -8.991  37.112  1.00  0.00     0.004 A 
HETATM   19  C4  UNK     1      20.134  -8.267  36.018  1.00  0.00     0.092 A 
HETATM   20  C7  UNK     1      20.118 -10.374  37.295  1.00  0.00    -0.043 A 
HETATM   21  O1  UNK     1      21.037  -8.841  35.101  1.00  0.00    -0.275 OA
HETATM   22  C8  UNK     1      19.748  -6.948  35.771  1.00  0.00     0.067 A 
HETATM   23  C16 UNK     1      21.488 -10.144  35.248  1.00  0.00     0.288 A 
HETATM   24  C14 UNK     1      20.977 -10.895  36.407  1.00  0.00     0.090 A 
HETATM   25  O2  UNK     1      22.274 -10.654  34.456  1.00  0.00    -0.260 OA
HETATM   26  C15 UNK     1      19.624 -11.180  38.461  1.00  0.00     0.049 C 
ENDBRANCH   1  15
TORSDOF 5
ENDMDL
MODEL 6
REMARK VINA RESULT:      -8.4      2.559      6.594
REMARK  5 active torsions:
REMARK  status: ('A' for Active; 'I' for Inactive)
REMARK    1  A    between atoms: C1_7  and  N1_4 
REMARK    2  A    between atoms: C11_17  and  N1_4 
REMARK    3  A    between atoms: C11_17  and  N2_5 
REMARK    4  A    between atoms: C5_11  and  N2_5 
REMARK    5  A    between atoms: C1_7  and  C2_8 
ROOT
HETATM    1  N2  UNK     1      18.573  -0.469  31.521  1.00  0.00    -0.333 N 
HETATM    2  H9  UNK     1      17.724  -0.859  31.125  1.00  0.00     0.168 HD
ENDROOT
BRANCH   1   3
HETATM    3  C11 UNK     1      19.273  -1.357  32.357  1.00  0.00     0.172 C 
HETATM    4  S1  UNK     1      20.753  -2.095  32.062  1.00  0.00    -0.041 SA
BRANCH   3   5
HETATM    5  N1  UNK     1      18.676  -1.617  33.583  1.00  0.00    -0.359 N 
HETATM    6  H2  UNK     1      17.922  -2.298  33.570  1.00  0.00     0.162 HD
BRANCH   5   7
HETATM    7  C1  UNK     1      19.043  -1.058  34.871  1.00  0.00     0.113 C 
HETATM    8  C6  UNK     1      19.662  -2.139  35.755  1.00  0.00     0.037 C 
BRANCH   7   9
HETATM    9  C2  UNK     1      17.867  -0.370  35.531  1.00  0.00    -0.033 A 
HETATM   10  C12 UNK     1      18.067   0.336  36.699  1.00  0.00     0.028 A 
HETATM   11  C17 UNK     1      16.959   0.947  37.264  1.00  0.00     0.116 A 
HETATM   12  N3  UNK     1      15.714   0.889  36.742  1.00  0.00    -0.273 NA
HETATM   13  C18 UNK     1      15.576   0.184  35.597  1.00  0.00     0.116 A 
HETATM   14  C13 UNK     1      16.618  -0.463  34.954  1.00  0.00     0.028 A 
ENDBRANCH   7   9
ENDBRANCH   5   7
ENDBRANCH   3   5
ENDBRANCH   1   3
BRANCH   1  15
HETATM   15  C5  UNK     1      18.614   0.917  31.372  1.00  0.00     0.036 A 
HETATM   16  C10 UNK     1      19.003   1.477  30.156  1.00  0.00     0.030 A 
HETATM   17  C9  UNK     1      19.047   2.868  29.999  1.00  0.00     0.017 A 
HETATM   18  C3  UNK     1      18.702   3.719  31.057  1.00  0.00     0.004 A 
HETATM   19  C4  UNK     1      18.316   3.130  32.263  1.00  0.00     0.092 A 
HETATM   20  C7  UNK     1      18.725   5.185  30.966  1.00  0.00    -0.043 A 
HETATM   21  O1  UNK     1      17.955   3.916  33.375  1.00  0.00    -0.275 OA
HETATM   22  C8  UNK     1      18.267   1.745  32.434  1.00  0.00     0.067 A 
HETATM   23  C16 UNK     1      17.968   5.301  33.318  1.00  0.00     0.288 A 
HETATM   24  C14 UNK     1      18.377   5.908  32.040  1.00  0.00     0.090 A 
HETATM   25  O2  UNK     1      17.654   5.995  34.280  1.00  0.00    -0.260 OA
HETATM   26  C15 UNK     1      19.135   5.849  29.683  1.00  0.00     0.049 C 
ENDBRANCH   1  15
TORSDOF 5
ENDMDL
MODEL 7
REMARK VINA RESULT:      -8.3      3.324      5.595
REMARK  5 active torsions:
REMARK  status: ('A' for Active; 'I' for Inactive)
REMARK    1  A    between atoms: C1_7  and  N1_4 
REMARK    2  A    between atoms: C11_17  and  N1_4 
REMARK    3  A    between atoms: C11_17  and  N2_5 
REMARK    4  A    between atoms: C5_11  and  N2_5 
REMARK    5  A    between atoms: C1_7  and  C2_8 
ROOT
HETATM    1  N2  UNK     1      17.643   3.938  31.899  1.00  0.00    -0.333 N 
HETATM    2  H9  UNK     1      16.635   3.899  31.787  1.00  0.00     0.168 HD
ENDROOT
BRANCH   1   3
HETATM    3  C11 UNK     1      18.141   5.233  32.129  1.00  0.00     0.172 C 
HETATM    4  S1  UNK     1      18.742   6.319  30.998  1.00  0.00    -0.041 SA
BRANCH   3   5
HETATM    5  N1  UNK     1      18.089   5.665  33.448  1.00  0.00    -0.359 N 
HETATM    6  H2  UNK     1      18.706   5.181  34.093  1.00  0.00     0.162 HD
BRANCH   5   7
HETATM    7  C1  UNK     1      17.290   6.753  33.981  1.00  0.00     0.113 C 
HETATM    8  C6  UNK     1      16.024   6.932  33.145  1.00  0.00     0.037 C 
BRANCH   7   9
HETATM    9  C2  UNK     1      18.098   8.028  34.093  1.00  0.00    -0.033 A 
HETATM   10  C12 UNK     1      17.481   9.240  33.859  1.00  0.00     0.028 A 
HETATM   11  C17 UNK     1      18.264  10.378  33.973  1.00  0.00     0.116 A 
HETATM   12  N3  UNK     1      19.575  10.366  34.297  1.00  0.00    -0.273 NA
HETATM   13  C18 UNK     1      20.128   9.151  34.515  1.00  0.00     0.116 A 
HETATM   14  C13 UNK     1      19.434   7.956  34.426  1.00  0.00     0.028 A 
ENDBRANCH   7   9
ENDBRANCH   5   7
ENDBRANCH   3   5
ENDBRANCH   1   3
BRANCH   1  15
HETATM   15  C5  UNK     1      18.249   2.755  31.477  1.00  0.00     0.036 A 
HETATM   16  C10 UNK     1      18.615   2.596  30.141  1.00  0.00     0.030 A 
HETATM   17  C9  UNK     1      19.222   1.410  29.711  1.00  0.00     0.017 A 
HETATM   18  C3  UNK     1      19.473   0.366  30.611  1.00  0.00     0.004 A 
HETATM   19  C4  UNK     1      19.096   0.554  31.942  1.00  0.00     0.092 A 
HETATM   20  C7  UNK     1      20.105  -0.905  30.232  1.00  0.00    -0.043 A 
HETATM   21  O1  UNK     1      19.312  -0.448  32.909  1.00  0.00    -0.275 OA
HETATM   22  C8  UNK     1      18.489   1.730  32.386  1.00  0.00     0.067 A 
HETATM   23  C16 UNK     1      19.906  -1.656  32.580  1.00  0.00     0.288 A 
HETATM   24  C14 UNK     1      20.299  -1.840  31.172  1.00  0.00     0.090 A 
HETATM   25  O2  UNK     1      20.100  -2.534  33.414  1.00  0.00    -0.260 OA
HETATM   26  C15 UNK     1      20.523  -1.138  28.809  1.00  0.00     0.049 C 
ENDBRANCH   1  15
TORSDOF 5
ENDMDL
MODEL 8
REMARK VINA RESULT:      -8.2      3.467      5.938
REMARK  5 active torsions:
REMARK  status: ('A' for Active; 'I' for Inactive)
REMARK    1  A    between atoms: C1_7  and  N1_4 
REMARK    2  A    between atoms: C11_17  and  N1_4 
REMARK    3  A    between atoms: C11_17  and  N2_5 
REMARK    4  A    between atoms: C5_11  and  N2_5 
REMARK    5  A    between atoms: C1_7  and  C2_8 
ROOT
HETATM    1  N2  UNK     1      17.701   4.088  31.987  1.00  0.00    -0.333 N 
HETATM    2  H9  UNK     1      16.687   4.054  31.974  1.00  0.00     0.168 HD
ENDROOT
BRANCH   1   3
HETATM    3  C11 UNK     1      18.225   5.381  32.165  1.00  0.00     0.172 C 
HETATM    4  S1  UNK     1      19.295   6.203  31.165  1.00  0.00    -0.041 SA
BRANCH   3   5
HETATM    5  N1  UNK     1      17.766   6.060  33.286  1.00  0.00    -0.359 N 
HETATM    6  H2  UNK     1      17.253   5.499  33.960  1.00  0.00     0.162 HD
BRANCH   5   7
HETATM    7  C1  UNK     1      17.982   7.457  33.611  1.00  0.00     0.113 C 
HETATM    8  C6  UNK     1      18.981   7.581  34.762  1.00  0.00     0.037 C 
BRANCH   7   9
HETATM    9  C2  UNK     1      16.676   8.167  33.898  1.00  0.00    -0.033 A 
HETATM   10  C12 UNK     1      16.701   9.454  34.395  1.00  0.00     0.028 A 
HETATM   11  C17 UNK     1      15.479  10.059  34.641  1.00  0.00     0.116 A 
HETATM   12  N3  UNK     1      14.284   9.467  34.424  1.00  0.00    -0.273 NA
HETATM   13  C18 UNK     1      14.318   8.206  33.936  1.00  0.00     0.116 A 
HETATM   14  C13 UNK     1      15.485   7.514  33.657  1.00  0.00     0.028 A 
ENDBRANCH   7   9
ENDBRANCH   5   7
ENDBRANCH   3   5
ENDBRANCH   1   3
BRANCH   1  15
HETATM   15  C5  UNK     1      18.257   2.902  31.509  1.00  0.00     0.036 A 
HETATM   16  C10 UNK     1      18.551   2.765  30.153  1.00  0.00     0.030 A 
HETATM   17  C9  UNK     1      19.108   1.576  29.666  1.00  0.00     0.017 A 
HETATM   18  C3  UNK     1      19.380   0.507  30.530  1.00  0.00     0.004 A 
HETATM   19  C4  UNK     1      19.076   0.673  31.882  1.00  0.00     0.092 A 
HETATM   20  C7  UNK     1      19.963  -0.768  30.091  1.00  0.00    -0.043 A 
HETATM   21  O1  UNK     1      19.319  -0.355  32.815  1.00  0.00    -0.275 OA
HETATM   22  C8  UNK     1      18.520   1.852  32.382  1.00  0.00     0.067 A 
HETATM   23  C16 UNK     1      19.867  -1.568  32.430  1.00  0.00     0.288 A 
HETATM   24  C14 UNK     1      20.183  -1.728  31.000  1.00  0.00     0.090 A 
HETATM   25  O2  UNK     1      20.083  -2.469  33.234  1.00  0.00    -0.260 OA
HETATM   26  C15 UNK     1      20.301  -0.978  28.644  1.00  0.00     0.049 C 
ENDBRANCH   1  15
TORSDOF 5
ENDMDL
MODEL 9
REMARK VINA RESULT:      -8.0      4.962      9.388
REMARK  5 active torsions:
REMARK  status: ('A' for Active; 'I' for Inactive)
REMARK    1  A    between atoms: C1_7  and  N1_4 
REMARK    2  A    between atoms: C11_17  and  N1_4 
REMARK    3  A    between atoms: C11_17  and  N2_5 
REMARK    4  A    between atoms: C5_11  and  N2_5 
REMARK    5  A    between atoms: C1_7  and  C2_8 
ROOT
HETATM    1  N2  UNK     1      20.045  -3.952  35.900  1.00  0.00    -0.333 N 
HETATM    2  H9  UNK     1      20.342  -4.129  34.945  1.00  0.00     0.168 HD
ENDROOT
BRANCH   1   3
HETATM    3  C11 UNK     1      20.044  -5.096  36.718  1.00  0.00     0.172 C 
HETATM    4  S1  UNK     1      21.155  -5.509  37.907  1.00  0.00    -0.041 SA
BRANCH   3   5
HETATM    5  N1  UNK     1      18.971  -5.957  36.535  1.00  0.00    -0.359 N 
HETATM    6  H2  UNK     1      18.179  -5.812  37.154  1.00  0.00     0.162 HD
BRANCH   5   7
HETATM    7  C1  UNK     1      18.847  -6.999  35.532  1.00  0.00     0.113 C 
HETATM    8  C6  UNK     1      17.382  -7.403  35.373  1.00  0.00     0.037 C 
BRANCH   7   9
HETATM    9  C2  UNK     1      19.744  -8.177  35.845  1.00  0.00    -0.033 A 
HETATM   10  C12 UNK     1      20.926  -8.331  35.149  1.00  0.00     0.028 A 
HETATM   11  C17 UNK     1      21.711  -9.426  35.473  1.00  0.00     0.116 A 
HETATM   12  N3  UNK     1      21.387 -10.336  36.418  1.00  0.00    -0.273 NA
HETATM   13  C18 UNK     1      20.219 -10.137  37.069  1.00  0.00     0.116 A 
HETATM   14  C13 UNK     1      19.364  -9.076  36.820  1.00  0.00     0.028 A 
ENDBRANCH   7   9
ENDBRANCH   5   7
ENDBRANCH   3   5
ENDBRANCH   1   3
BRANCH   1  15
HETATM   15  C5  UNK     1      19.432  -2.705  36.019  1.00  0.00     0.036 A 
HETATM   16  C10 UNK     1      18.906  -2.299  37.245  1.00  0.00     0.030 A 
HETATM   17  C9  UNK     1      18.288  -1.049  37.371  1.00  0.00     0.017 A 
HETATM   18  C3  UNK     1      18.187  -0.187  36.272  1.00  0.00     0.004 A 
HETATM   19  C4  UNK     1      18.722  -0.619  35.057  1.00  0.00     0.092 A 
HETATM   20  C7  UNK     1      17.553   1.138  36.330  1.00  0.00    -0.043 A 
HETATM   21  O1  UNK     1      18.660   0.189  33.905  1.00  0.00    -0.275 OA
HETATM   22  C8  UNK     1      19.341  -1.863  34.916  1.00  0.00     0.067 A 
HETATM   23  C16 UNK     1      18.068   1.442  33.929  1.00  0.00     0.288 A 
HETATM   24  C14 UNK     1      17.508   1.885  35.218  1.00  0.00     0.090 A 
HETATM   25  O2  UNK     1      18.009   2.153  32.932  1.00  0.00    -0.260 OA
HETATM   26  C15 UNK     1      16.968   1.632  37.621  1.00  0.00     0.049 C 
ENDBRANCH   1  15
TORSDOF 5
ENDMDL
MODEL 10
REMARK VINA RESULT:      -8.0      3.822      5.986
REMARK  5 active torsions:
REMARK  status: ('A' for Active; 'I' for Inactive)
REMARK    1  A    between atoms: C1_7  and  N1_4 
REMARK    2  A    between atoms: C11_17  and  N1_4 
REMARK    3  A    between atoms: C11_17  and  N2_5 
REMARK    4  A    between atoms: C5_11  and  N2_5 
REMARK    5  A    between atoms: C1_7  and  C2_8 
ROOT
HETATM    1  N2  UNK     1      17.607   4.128  32.392  1.00  0.00    -0.333 N 
HETATM    2  H9  UNK     1      16.630   4.171  32.121  1.00  0.00     0.168 HD
ENDROOT
BRANCH   1   3
HETATM    3  C11 UNK     1      18.209   5.389  32.556  1.00  0.00     0.172 C 
HETATM    4  S1  UNK     1      18.903   6.357  31.373  1.00  0.00    -0.041 SA
BRANCH   3   5
HETATM    5  N1  UNK     1      18.187   5.895  33.849  1.00  0.00    -0.359 N 
HETATM    6  H2  UNK     1      18.829   5.459  34.503  1.00  0.00     0.162 HD
BRANCH   5   7
HETATM    7  C1  UNK     1      17.385   7.000  34.341  1.00  0.00     0.113 C 
HETATM    8  C6  UNK     1      16.064   7.070  33.577  1.00  0.00     0.037 C 
BRANCH   7   9
HETATM    9  C2  UNK     1      18.152   8.304  34.296  1.00  0.00    -0.033 A 
HETATM   10  C12 UNK     1      19.505   8.301  34.569  1.00  0.00     0.028 A 
HETATM   11  C17 UNK     1      20.161   9.520  34.514  1.00  0.00     0.116 A 
HETATM   12  N3  UNK     1      19.559  10.692  34.214  1.00  0.00    -0.273 NA
HETATM   13  C18 UNK     1      18.233  10.636  33.955  1.00  0.00     0.116 A 
HETATM   14  C13 UNK     1      17.486   9.470  33.983  1.00  0.00     0.028 A 
ENDBRANCH   7   9
ENDBRANCH   5   7
ENDBRANCH   3   5
ENDBRANCH   1   3
BRANCH   1  15
HETATM   15  C5  UNK     1      18.131   2.848  32.209  1.00  0.00     0.036 A 
HETATM   16  C10 UNK     1      18.164   1.948  33.273  1.00  0.00     0.030 A 
HETATM   17  C9  UNK     1      18.690   0.663  33.096  1.00  0.00     0.017 A 
HETATM   18  C3  UNK     1      19.189   0.259  31.851  1.00  0.00     0.004 A 
HETATM   19  C4  UNK     1      19.143   1.181  30.804  1.00  0.00     0.092 A 
HETATM   20  C7  UNK     1      19.754  -1.073  31.592  1.00  0.00    -0.043 A 
HETATM   21  O1  UNK     1      19.625   0.852  29.522  1.00  0.00    -0.275 OA
HETATM   22  C8  UNK     1      18.622   2.466  30.965  1.00  0.00     0.067 A 
HETATM   23  C16 UNK     1      20.164  -0.396  29.248  1.00  0.00     0.288 A 
HETATM   24  C14 UNK     1      20.206  -1.357  30.363  1.00  0.00     0.090 A 
HETATM   25  O2  UNK     1      20.587  -0.692  28.136  1.00  0.00    -0.260 OA
HETATM   26  C15 UNK     1      19.818  -2.087  32.697  1.00  0.00     0.049 C 
ENDBRANCH   1  15
TORSDOF 5
ENDMDL
