MODEL 1
REMARK VINA RESULT:      -8.9      0.000      0.000
REMARK  2 active torsions:
REMARK  status: ('A' for Active; 'I' for Inactive)
REMARK       I    between atoms: C11_16  and  N1_4 
REMARK    1  A    between atoms: C12_17  and  N1_4 
REMARK    2  A    between atoms: C11_16  and  C7_12 
ROOT
HETATM    1  O1  UNK     1      17.070   5.102  32.280  1.00  0.00    -0.304 OA
HETATM    2  O2  UNK     1      20.608   6.985  33.029  1.00  0.00    -0.287 OA
HETATM    3  C1  UNK     1      18.246   7.109  32.985  1.00  0.00     0.048 A 
HETATM    4  C2  UNK     1      17.072   6.406  32.710  1.00  0.00     0.090 A 
HETATM    5  C3  UNK     1      16.950   9.054  33.578  1.00  0.00    -0.061 A 
HETATM    6  C4  UNK     1      18.190   8.435  33.419  1.00  0.00     0.025 A 
HETATM    7  C5  UNK     1      19.541   6.429  32.807  1.00  0.00     0.187 A 
HETATM    8  C6  UNK     1      15.834   7.028  32.870  1.00  0.00     0.039 A 
HETATM    9  C7  UNK     1      18.287   4.476  32.118  1.00  0.00     0.147 A 
HETATM   10  C8  UNK     1      15.774   8.352  33.303  1.00  0.00     0.009 A 
HETATM   11  C9  UNK     1      19.484   5.028  32.343  1.00  0.00     0.098 A 
HETATM   12  C10 UNK     1      16.878  10.470  34.042  1.00  0.00     0.048 C 
ENDROOT
BRANCH   9  13
HETATM   13  C11 UNK     1      18.261   3.086  31.658  1.00  0.00     0.280 C 
HETATM   14  O3  UNK     1      17.595   2.253  32.273  1.00  0.00    -0.265 OA
HETATM   15  N1  UNK     1      19.040   2.898  30.523  1.00  0.00    -0.320 N 
HETATM   16  H8  UNK     1      19.530   3.704  30.140  1.00  0.00     0.169 HD
BRANCH  15  17
HETATM   17  C12 UNK     1      19.227   1.695  29.839  1.00  0.00     0.052 A 
HETATM   18  C13 UNK     1      20.134   0.749  30.297  1.00  0.00     0.032 A 
HETATM   19  C15 UNK     1      20.297  -0.440  29.595  1.00  0.00     0.021 A 
HETATM   20  C16 UNK     1      19.537  -0.630  28.452  1.00  0.00     0.116 A 
HETATM   21  N2  UNK     1      18.645   0.271  27.979  1.00  0.00    -0.271 NA
HETATM   22  C14 UNK     1      18.513   1.414  28.688  1.00  0.00     0.145 A 
ENDBRANCH  15  17
ENDBRANCH   9  13
TORSDOF 2
ENDMDL
MODEL 2
REMARK VINA RESULT:      -8.8      1.921      2.382
REMARK  2 active torsions:
REMARK  status: ('A' for Active; 'I' for Inactive)
REMARK       I    between atoms: C11_16  and  N1_4 
REMARK    1  A    between atoms: C12_17  and  N1_4 
REMARK    2  A    between atoms: C11_16  and  C7_12 
ROOT
HETATM    1  O1  UNK     1      17.994   3.772  32.129  1.00  0.00    -0.304 OA
HETATM    2  O2  UNK     1      19.545   6.653  29.696  1.00  0.00    -0.287 OA
HETATM    3  C1  UNK     1      18.518   6.116  31.758  1.00  0.00     0.048 A 
HETATM    4  C2  UNK     1      18.002   5.082  32.540  1.00  0.00     0.090 A 
HETATM    5  C3  UNK     1      17.963   7.706  33.484  1.00  0.00    -0.061 A 
HETATM    6  C4  UNK     1      18.500   7.431  32.226  1.00  0.00     0.025 A 
HETATM    7  C5  UNK     1      19.077   5.796  30.434  1.00  0.00     0.187 A 
HETATM    8  C6  UNK     1      17.466   5.359  33.798  1.00  0.00     0.039 A 
HETATM    9  C7  UNK     1      18.521   3.484  30.889  1.00  0.00     0.147 A 
HETATM   10  C8  UNK     1      17.446   6.672  34.269  1.00  0.00     0.009 A 
HETATM   11  C9  UNK     1      19.045   4.374  30.038  1.00  0.00     0.098 A 
HETATM   12  C10 UNK     1      17.939   9.108  33.995  1.00  0.00     0.048 C 
ENDROOT
BRANCH   9  13
HETATM   13  C11 UNK     1      18.502   2.081  30.469  1.00  0.00     0.280 C 
HETATM   14  O3  UNK     1      17.542   1.650  29.829  1.00  0.00    -0.265 OA
HETATM   15  N1  UNK     1      19.640   1.399  30.879  1.00  0.00    -0.320 N 
HETATM   16  H8  UNK     1      20.343   1.913  31.406  1.00  0.00     0.169 HD
BRANCH  15  17
HETATM   17  C12 UNK     1      19.928   0.052  30.640  1.00  0.00     0.052 A 
HETATM   18  C13 UNK     1      20.408  -0.364  29.405  1.00  0.00     0.032 A 
HETATM   19  C15 UNK     1      20.686  -1.710  29.197  1.00  0.00     0.021 A 
HETATM   20  C16 UNK     1      20.467  -2.589  30.246  1.00  0.00     0.116 A 
HETATM   21  N2  UNK     1      20.000  -2.216  31.459  1.00  0.00    -0.271 NA
HETATM   22  C14 UNK     1      19.742  -0.900  31.625  1.00  0.00     0.145 A 
ENDBRANCH  15  17
ENDBRANCH   9  13
TORSDOF 2
ENDMDL
MODEL 3
REMARK VINA RESULT:      -8.6     14.420     18.984
REMARK  2 active torsions:
REMARK  status: ('A' for Active; 'I' for Inactive)
REMARK       I    between atoms: C11_16  and  N1_4 
REMARK    1  A    between atoms: C12_17  and  N1_4 
REMARK    2  A    between atoms: C11_16  and  C7_12 
ROOT
HETATM    1  O1  UNK     1      19.505  -1.323  14.483  1.00  0.00    -0.304 OA
HETATM    2  O2  UNK     1      18.043  -5.007  13.525  1.00  0.00    -0.287 OA
HETATM    3  C1  UNK     1      19.388  -3.164  12.900  1.00  0.00     0.048 A 
HETATM    4  C2  UNK     1      19.852  -1.907  13.289  1.00  0.00     0.090 A 
HETATM    5  C3  UNK     1      20.626  -2.989  10.839  1.00  0.00    -0.061 A 
HETATM    6  C4  UNK     1      19.773  -3.710  11.674  1.00  0.00     0.025 A 
HETATM    7  C5  UNK     1      18.487  -3.901  13.803  1.00  0.00     0.187 A 
HETATM    8  C6  UNK     1      20.705  -1.188  12.452  1.00  0.00     0.039 A 
HETATM    9  C7  UNK     1      18.662  -2.022  15.320  1.00  0.00     0.147 A 
HETATM   10  C8  UNK     1      21.091  -1.731  11.226  1.00  0.00     0.009 A 
HETATM   11  C9  UNK     1      18.143  -3.231  15.073  1.00  0.00     0.098 A 
HETATM   12  C10 UNK     1      21.045  -3.563   9.527  1.00  0.00     0.048 C 
ENDROOT
BRANCH   9  13
HETATM   13  C11 UNK     1      18.304  -1.381  16.586  1.00  0.00     0.280 C 
HETATM   14  O3  UNK     1      17.255  -1.693  17.152  1.00  0.00    -0.265 OA
HETATM   15  N1  UNK     1      19.259  -0.458  16.992  1.00  0.00    -0.320 N 
HETATM   16  H8  UNK     1      20.075  -0.322  16.400  1.00  0.00     0.169 HD
BRANCH  15  17
HETATM   17  C12 UNK     1      19.217   0.320  18.152  1.00  0.00     0.052 A 
HETATM   18  C13 UNK     1      18.959   1.682  18.086  1.00  0.00     0.032 A 
HETATM   19  C15 UNK     1      18.922   2.430  19.257  1.00  0.00     0.021 A 
HETATM   20  C16 UNK     1      19.149   1.772  20.456  1.00  0.00     0.116 A 
HETATM   21  N2  UNK     1      19.403   0.448  20.555  1.00  0.00    -0.271 NA
HETATM   22  C14 UNK     1      19.430  -0.247  19.396  1.00  0.00     0.145 A 
ENDBRANCH  15  17
ENDBRANCH   9  13
TORSDOF 2
ENDMDL
MODEL 4
REMARK VINA RESULT:      -8.5      9.224     13.081
REMARK  2 active torsions:
REMARK  status: ('A' for Active; 'I' for Inactive)
REMARK       I    between atoms: C11_16  and  N1_4 
REMARK    1  A    between atoms: C12_17  and  N1_4 
REMARK    2  A    between atoms: C11_16  and  C7_12 
ROOT
HETATM    1  O1  UNK     1      19.825  -5.536  37.665  1.00  0.00    -0.304 OA
HETATM    2  O2  UNK     1      19.937  -7.630  34.168  1.00  0.00    -0.287 OA
HETATM    3  C1  UNK     1      19.850  -7.686  36.532  1.00  0.00     0.048 A 
HETATM    4  C2  UNK     1      19.814  -6.909  37.690  1.00  0.00     0.090 A 
HETATM    5  C3  UNK     1      19.789  -9.692  37.867  1.00  0.00    -0.061 A 
HETATM    6  C4  UNK     1      19.838  -9.080  36.615  1.00  0.00     0.025 A 
HETATM    7  C5  UNK     1      19.903  -7.011  35.223  1.00  0.00     0.187 A 
HETATM    8  C6  UNK     1      19.765  -7.525  38.941  1.00  0.00     0.039 A 
HETATM    9  C7  UNK     1      19.873  -4.916  36.436  1.00  0.00     0.147 A 
HETATM   10  C8  UNK     1      19.753  -8.917  39.028  1.00  0.00     0.009 A 
HETATM   11  C9  UNK     1      19.913  -5.534  35.250  1.00  0.00     0.098 A 
HETATM   12  C10 UNK     1      19.774 -11.181  37.969  1.00  0.00     0.048 C 
ENDROOT
BRANCH   9  13
HETATM   13  C11 UNK     1      19.885  -3.452  36.432  1.00  0.00     0.280 C 
HETATM   14  O3  UNK     1      20.953  -2.851  36.318  1.00  0.00    -0.265 OA
HETATM   15  N1  UNK     1      18.608  -2.920  36.566  1.00  0.00    -0.320 N 
HETATM   16  H8  UNK     1      17.826  -3.566  36.650  1.00  0.00     0.169 HD
BRANCH  15  17
HETATM   17  C12 UNK     1      18.277  -1.563  36.598  1.00  0.00     0.052 A 
HETATM   18  C13 UNK     1      17.991  -0.928  37.799  1.00  0.00     0.032 A 
HETATM   19  C15 UNK     1      17.666   0.423  37.800  1.00  0.00     0.021 A 
HETATM   20  C16 UNK     1      17.641   1.086  36.584  1.00  0.00     0.116 A 
HETATM   21  N2  UNK     1      17.914   0.499  35.397  1.00  0.00    -0.271 NA
HETATM   22  C14 UNK     1      18.226  -0.816  35.435  1.00  0.00     0.145 A 
ENDBRANCH  15  17
ENDBRANCH   9  13
TORSDOF 2
ENDMDL
MODEL 5
REMARK VINA RESULT:      -8.5      1.482      1.809
REMARK  2 active torsions:
REMARK  status: ('A' for Active; 'I' for Inactive)
REMARK       I    between atoms: C11_16  and  N1_4 
REMARK    1  A    between atoms: C12_17  and  N1_4 
REMARK    2  A    between atoms: C11_16  and  C7_12 
ROOT
HETATM    1  O1  UNK     1      17.051   6.181  31.898  1.00  0.00    -0.304 OA
HETATM    2  O2  UNK     1      19.449   8.465  34.276  1.00  0.00    -0.287 OA
HETATM    3  C1  UNK     1      17.257   7.952  33.549  1.00  0.00     0.048 A 
HETATM    4  C2  UNK     1      16.495   7.138  32.711  1.00  0.00     0.090 A 
HETATM    5  C3  UNK     1      15.251   9.047  34.318  1.00  0.00    -0.061 A 
HETATM    6  C4  UNK     1      16.639   8.910  34.356  1.00  0.00     0.025 A 
HETATM    7  C5  UNK     1      18.720   7.785  33.566  1.00  0.00     0.187 A 
HETATM    8  C6  UNK     1      15.107   7.277  32.676  1.00  0.00     0.039 A 
HETATM    9  C7  UNK     1      18.420   6.033  31.923  1.00  0.00     0.147 A 
HETATM   10  C8  UNK     1      14.486   8.234  33.480  1.00  0.00     0.009 A 
HETATM   11  C9  UNK     1      19.269   6.744  32.674  1.00  0.00     0.098 A 
HETATM   12  C10 UNK     1      14.580  10.067  35.176  1.00  0.00     0.048 C 
ENDROOT
BRANCH   9  13
HETATM   13  C11 UNK     1      18.992   5.008  31.047  1.00  0.00     0.280 C 
HETATM   14  O3  UNK     1      20.006   5.260  30.394  1.00  0.00    -0.265 OA
HETATM   15  N1  UNK     1      18.264   3.825  31.084  1.00  0.00    -0.320 N 
HETATM   16  H8  UNK     1      17.444   3.786  31.684  1.00  0.00     0.169 HD
BRANCH  15  17
HETATM   17  C12 UNK     1      18.545   2.659  30.367  1.00  0.00     0.052 A 
HETATM   18  C13 UNK     1      19.224   1.604  30.962  1.00  0.00     0.032 A 
HETATM   19  C15 UNK     1      19.489   0.456  30.224  1.00  0.00     0.021 A 
HETATM   20  C16 UNK     1      19.057   0.416  28.908  1.00  0.00     0.116 A 
HETATM   21  N2  UNK     1      18.395   1.425  28.298  1.00  0.00    -0.271 NA
HETATM   22  C14 UNK     1      18.155   2.525  29.047  1.00  0.00     0.145 A 
ENDBRANCH  15  17
ENDBRANCH   9  13
TORSDOF 2
ENDMDL
MODEL 6
REMARK VINA RESULT:      -8.4      8.518     12.044
REMARK  2 active torsions:
REMARK  status: ('A' for Active; 'I' for Inactive)
REMARK       I    between atoms: C11_16  and  N1_4 
REMARK    1  A    between atoms: C12_17  and  N1_4 
REMARK    2  A    between atoms: C11_16  and  C7_12 
ROOT
HETATM    1  O1  UNK     1      21.281  -4.218  37.189  1.00  0.00    -0.304 OA
HETATM    2  O2  UNK     1      17.955  -6.550  36.828  1.00  0.00    -0.287 OA
HETATM    3  C1  UNK     1      20.123  -6.284  37.737  1.00  0.00     0.048 A 
HETATM    4  C2  UNK     1      21.229  -5.438  37.818  1.00  0.00     0.090 A 
HETATM    5  C3  UNK     1      21.243  -7.893  39.140  1.00  0.00    -0.061 A 
HETATM    6  C4  UNK     1      20.125  -7.515  38.396  1.00  0.00     0.025 A 
HETATM    7  C5  UNK     1      18.958  -5.858  36.943  1.00  0.00     0.187 A 
HETATM    8  C6  UNK     1      22.346  -5.819  38.563  1.00  0.00     0.039 A 
HETATM    9  C7  UNK     1      20.184  -3.829  36.450  1.00  0.00     0.147 A 
HETATM   10  C8  UNK     1      22.352  -7.048  39.223  1.00  0.00     0.009 A 
HETATM   11  C9  UNK     1      19.062  -4.539  36.286  1.00  0.00     0.098 A 
HETATM   12  C10 UNK     1      21.256  -9.206  39.850  1.00  0.00     0.048 C 
ENDROOT
BRANCH   9  13
HETATM   13  C11 UNK     1      20.260  -2.526  35.787  1.00  0.00     0.280 C 
HETATM   14  O3  UNK     1      21.355  -2.082  35.439  1.00  0.00    -0.265 OA
HETATM   15  N1  UNK     1      19.008  -1.944  35.636  1.00  0.00    -0.320 N 
HETATM   16  H8  UNK     1      18.198  -2.453  35.984  1.00  0.00     0.169 HD
BRANCH  15  17
HETATM   17  C12 UNK     1      18.736  -0.707  35.045  1.00  0.00     0.052 A 
HETATM   18  C13 UNK     1      18.544   0.426  35.823  1.00  0.00     0.032 A 
HETATM   19  C15 UNK     1      18.277   1.643  35.207  1.00  0.00     0.021 A 
HETATM   20  C16 UNK     1      18.213   1.670  33.823  1.00  0.00     0.116 A 
HETATM   21  N2  UNK     1      18.394   0.585  33.036  1.00  0.00    -0.271 NA
HETATM   22  C14 UNK     1      18.653  -0.580  33.670  1.00  0.00     0.145 A 
ENDBRANCH  15  17
ENDBRANCH   9  13
TORSDOF 2
ENDMDL
MODEL 7
REMARK VINA RESULT:      -8.3      9.212     12.893
REMARK  2 active torsions:
REMARK  status: ('A' for Active; 'I' for Inactive)
REMARK       I    between atoms: C11_16  and  N1_4 
REMARK    1  A    between atoms: C12_17  and  N1_4 
REMARK    2  A    between atoms: C11_16  and  C7_12 
ROOT
HETATM    1  O1  UNK     1      19.162  -5.415  36.611  1.00  0.00    -0.304 OA
HETATM    2  O2  UNK     1      22.655  -6.396  38.471  1.00  0.00    -0.287 OA
HETATM    3  C1  UNK     1      20.620  -7.135  37.517  1.00  0.00     0.048 A 
HETATM    4  C2  UNK     1      19.445  -6.731  36.885  1.00  0.00     0.090 A 
HETATM    5  C3  UNK     1      19.907  -9.434  37.388  1.00  0.00    -0.061 A 
HETATM    6  C4  UNK     1      20.856  -8.488  37.772  1.00  0.00     0.025 A 
HETATM    7  C5  UNK     1      21.604  -6.112  37.913  1.00  0.00     0.187 A 
HETATM    8  C6  UNK     1      18.497  -7.680  36.502  1.00  0.00     0.039 A 
HETATM    9  C7  UNK     1      20.090  -4.467  36.985  1.00  0.00     0.147 A 
HETATM   10  C8  UNK     1      18.729  -9.032  36.755  1.00  0.00     0.009 A 
HETATM   11  C9  UNK     1      21.254  -4.713  37.597  1.00  0.00     0.098 A 
HETATM   12  C10 UNK     1      20.148 -10.883  37.653  1.00  0.00     0.048 C 
ENDROOT
BRANCH   9  13
HETATM   13  C11 UNK     1      19.769  -3.070  36.685  1.00  0.00     0.280 C 
HETATM   14  O3  UNK     1      20.623  -2.344  36.175  1.00  0.00    -0.265 OA
HETATM   15  N1  UNK     1      18.465  -2.748  37.040  1.00  0.00    -0.320 N 
HETATM   16  H8  UNK     1      17.887  -3.476  37.454  1.00  0.00     0.169 HD
BRANCH  15  17
HETATM   17  C12 UNK     1      17.850  -1.502  36.885  1.00  0.00     0.052 A 
HETATM   18  C13 UNK     1      17.921  -0.544  37.887  1.00  0.00     0.032 A 
HETATM   19  C15 UNK     1      17.301   0.686  37.704  1.00  0.00     0.021 A 
HETATM   20  C16 UNK     1      16.628   0.904  36.513  1.00  0.00     0.116 A 
HETATM   21  N2  UNK     1      16.539  -0.007  35.517  1.00  0.00    -0.271 NA
HETATM   22  C14 UNK     1      17.155  -1.191  35.730  1.00  0.00     0.145 A 
ENDBRANCH  15  17
ENDBRANCH   9  13
TORSDOF 2
ENDMDL
MODEL 8
REMARK VINA RESULT:      -8.3      1.359      2.271
REMARK  2 active torsions:
REMARK  status: ('A' for Active; 'I' for Inactive)
REMARK       I    between atoms: C11_16  and  N1_4 
REMARK    1  A    between atoms: C12_17  and  N1_4 
REMARK    2  A    between atoms: C11_16  and  C7_12 
ROOT
HETATM    1  O1  UNK     1      19.038   5.812  32.946  1.00  0.00    -0.304 OA
HETATM    2  O2  UNK     1      15.640   7.866  32.018  1.00  0.00    -0.287 OA
HETATM    3  C1  UNK     1      17.791   7.898  33.002  1.00  0.00     0.048 A 
HETATM    4  C2  UNK     1      18.925   7.137  33.290  1.00  0.00     0.090 A 
HETATM    5  C3  UNK     1      18.811   9.820  34.040  1.00  0.00    -0.061 A 
HETATM    6  C4  UNK     1      17.730   9.242  33.376  1.00  0.00     0.025 A 
HETATM    7  C5  UNK     1      16.664   7.259  32.301  1.00  0.00     0.187 A 
HETATM    8  C6  UNK     1      20.005   7.718  33.954  1.00  0.00     0.039 A 
HETATM    9  C7  UNK     1      17.978   5.225  32.289  1.00  0.00     0.147 A 
HETATM   10  C8  UNK     1      19.947   9.061  34.329  1.00  0.00     0.009 A 
HETATM   11  C9  UNK     1      16.835   5.834  31.953  1.00  0.00     0.098 A 
HETATM   12  C10 UNK     1      18.756  11.256  34.444  1.00  0.00     0.048 C 
ENDROOT
BRANCH   9  13
HETATM   13  C11 UNK     1      18.119   3.813  31.932  1.00  0.00     0.280 C 
HETATM   14  O3  UNK     1      17.883   2.945  32.774  1.00  0.00    -0.265 OA
HETATM   15  N1  UNK     1      18.523   3.646  30.614  1.00  0.00    -0.320 N 
HETATM   16  H8  UNK     1      18.675   4.479  30.050  1.00  0.00     0.169 HD
BRANCH  15  17
HETATM   17  C12 UNK     1      18.747   2.428  29.966  1.00  0.00     0.052 A 
HETATM   18  C13 UNK     1      19.618   1.488  30.499  1.00  0.00     0.032 A 
HETATM   19  C15 UNK     1      19.821   0.285  29.833  1.00  0.00     0.021 A 
HETATM   20  C16 UNK     1      19.135   0.076  28.647  1.00  0.00     0.116 A 
HETATM   21  N2  UNK     1      18.280   0.970  28.100  1.00  0.00    -0.271 NA
HETATM   22  C14 UNK     1      18.108   2.127  28.777  1.00  0.00     0.145 A 
ENDBRANCH  15  17
ENDBRANCH   9  13
TORSDOF 2
ENDMDL
MODEL 9
REMARK VINA RESULT:      -8.3      6.829      9.478
REMARK  2 active torsions:
REMARK  status: ('A' for Active; 'I' for Inactive)
REMARK       I    between atoms: C11_16  and  N1_4 
REMARK    1  A    between atoms: C12_17  and  N1_4 
REMARK    2  A    between atoms: C11_16  and  C7_12 
ROOT
HETATM    1  O1  UNK     1      20.041  -2.529  33.885  1.00  0.00    -0.304 OA
HETATM    2  O2  UNK     1      17.773   0.856  33.747  1.00  0.00    -0.287 OA
HETATM    3  C1  UNK     1      19.195  -0.647  32.601  1.00  0.00     0.048 A 
HETATM    4  C2  UNK     1      19.954  -1.812  32.717  1.00  0.00     0.090 A 
HETATM    5  C3  UNK     1      19.853  -0.442  30.291  1.00  0.00    -0.061 A 
HETATM    6  C4  UNK     1      19.142   0.043  31.388  1.00  0.00     0.025 A 
HETATM    7  C5  UNK     1      18.456  -0.158  33.778  1.00  0.00     0.187 A 
HETATM    8  C6  UNK     1      20.664  -2.295  31.618  1.00  0.00     0.039 A 
HETATM    9  C7  UNK     1      19.345  -2.063  34.979  1.00  0.00     0.147 A 
HETATM   10  C8  UNK     1      20.613  -1.608  30.404  1.00  0.00     0.009 A 
HETATM   11  C9  UNK     1      18.583  -0.964  35.009  1.00  0.00     0.098 A 
HETATM   12  C10 UNK     1      19.803   0.287  28.989  1.00  0.00     0.048 C 
ENDROOT
BRANCH   9  13
HETATM   13  C11 UNK     1      19.453  -2.842  36.215  1.00  0.00     0.280 C 
HETATM   14  O3  UNK     1      19.316  -2.281  37.302  1.00  0.00    -0.265 OA
HETATM   15  N1  UNK     1      19.709  -4.184  35.964  1.00  0.00    -0.320 N 
HETATM   16  H8  UNK     1      19.794  -4.483  34.995  1.00  0.00     0.169 HD
BRANCH  15  17
HETATM   17  C12 UNK     1      19.867  -5.188  36.923  1.00  0.00     0.052 A 
HETATM   18  C13 UNK     1      20.982  -5.214  37.750  1.00  0.00     0.032 A 
HETATM   19  C15 UNK     1      21.111  -6.225  38.695  1.00  0.00     0.021 A 
HETATM   20  C16 UNK     1      20.106  -7.176  38.770  1.00  0.00     0.116 A 
HETATM   21  N2  UNK     1      19.008  -7.180  37.981  1.00  0.00    -0.271 NA
HETATM   22  C14 UNK     1      18.916  -6.182  37.074  1.00  0.00     0.145 A 
ENDBRANCH  15  17
ENDBRANCH   9  13
TORSDOF 2
ENDMDL
MODEL 10
REMARK VINA RESULT:      -8.2      7.005      9.848
REMARK  2 active torsions:
REMARK  status: ('A' for Active; 'I' for Inactive)
REMARK       I    between atoms: C11_16  and  N1_4 
REMARK    1  A    between atoms: C12_17  and  N1_4 
REMARK    2  A    between atoms: C11_16  and  C7_12 
ROOT
HETATM    1  O1  UNK     1      20.355  -2.846  33.854  1.00  0.00    -0.304 OA
HETATM    2  O2  UNK     1      17.990   0.472  33.692  1.00  0.00    -0.287 OA
HETATM    3  C1  UNK     1      19.404  -1.036  32.541  1.00  0.00     0.048 A 
HETATM    4  C2  UNK     1      20.198  -2.176  32.666  1.00  0.00     0.090 A 
HETATM    5  C3  UNK     1      19.957  -0.900  30.198  1.00  0.00    -0.061 A 
HETATM    6  C4  UNK     1      19.280  -0.393  31.307  1.00  0.00     0.025 A 
HETATM    7  C5  UNK     1      18.702  -0.523  33.730  1.00  0.00     0.187 A 
HETATM    8  C6  UNK     1      20.874  -2.680  31.555  1.00  0.00     0.039 A 
HETATM    9  C7  UNK     1      19.693  -2.358  34.960  1.00  0.00     0.147 A 
HETATM   10  C8  UNK     1      20.753  -2.041  30.321  1.00  0.00     0.009 A 
HETATM   11  C9  UNK     1      18.903  -1.278  34.983  1.00  0.00     0.098 A 
HETATM   12  C10 UNK     1      19.831  -0.222  28.874  1.00  0.00     0.048 C 
ENDROOT
BRANCH   9  13
HETATM   13  C11 UNK     1      19.875  -3.086  36.217  1.00  0.00     0.280 C 
HETATM   14  O3  UNK     1      20.062  -2.462  37.262  1.00  0.00    -0.265 OA
HETATM   15  N1  UNK     1      19.804  -4.462  36.037  1.00  0.00    -0.320 N 
HETATM   16  H8  UNK     1      19.641  -4.814  35.096  1.00  0.00     0.169 HD
BRANCH  15  17
HETATM   17  C12 UNK     1      19.935  -5.434  37.032  1.00  0.00     0.052 A 
HETATM   18  C13 UNK     1      18.963  -6.408  37.208  1.00  0.00     0.032 A 
HETATM   19  C15 UNK     1      19.121  -7.363  38.207  1.00  0.00     0.021 A 
HETATM   20  C16 UNK     1      20.260  -7.297  38.994  1.00  0.00     0.116 A 
HETATM   21  N2  UNK     1      21.226  -6.361  38.849  1.00  0.00    -0.271 NA
HETATM   22  C14 UNK     1      21.038  -5.450  37.868  1.00  0.00     0.145 A 
ENDBRANCH  15  17
ENDBRANCH   9  13
TORSDOF 2
ENDMDL
