MODEL 1
REMARK VINA RESULT:      -7.0      0.000      0.000
REMARK  0 active torsions:
REMARK  status: ('A' for Active; 'I' for Inactive)
ROOT
HETATM    1 Br1  UNK     1      20.154  -3.746  37.195  1.00  0.00    -0.051 Br
HETATM    2  S1  UNK     1      18.565   2.547  31.073  1.00  0.00    -0.099 SA
HETATM    3  O1  UNK     1      18.775   0.140  32.769  1.00  0.00    -0.308 OA
HETATM    4  O2  UNK     1      21.117  -3.058  31.824  1.00  0.00    -0.287 OA
HETATM    5  C1  UNK     1      19.913  -1.883  33.484  1.00  0.00     0.049 A 
HETATM    6  C2  UNK     1      19.116  -0.769  33.739  1.00  0.00     0.090 A 
HETATM    7  C3  UNK     1      19.252  -0.061  31.484  1.00  0.00     0.097 A 
HETATM    8  C4  UNK     1      20.415  -2.101  32.117  1.00  0.00     0.187 A 
HETATM    9  C5  UNK     1      20.023  -1.094  31.111  1.00  0.00     0.094 A 
HETATM   10  C6  UNK     1      18.843   0.937  30.542  1.00  0.00     0.038 A 
HETATM   11  C7  UNK     1      20.228  -2.776  34.511  1.00  0.00     0.037 A 
HETATM   12  C8  UNK     1      18.626  -0.541  35.025  1.00  0.00     0.039 A 
HETATM   13  C9  UNK     1      19.738  -2.546  35.796  1.00  0.00     0.012 A 
HETATM   14  C10 UNK     1      18.938  -1.430  36.053  1.00  0.00     0.022 A 
HETATM   15  C11 UNK     1      18.617   0.808  29.182  1.00  0.00     0.022 A 
HETATM   16  C12 UNK     1      18.218   2.036  28.580  1.00  0.00     0.008 A 
HETATM   17  C13 UNK     1      18.149   3.063  29.495  1.00  0.00     0.050 A 
ENDROOT
TORSDOF 0
ENDMDL
MODEL 2
REMARK VINA RESULT:      -6.8      8.330     10.510
REMARK  0 active torsions:
REMARK  status: ('A' for Active; 'I' for Inactive)
ROOT
HETATM    1 Br1  UNK     1      13.045  11.901  35.218  1.00  0.00    -0.051 Br
HETATM    2  S1  UNK     1      19.915   6.797  32.694  1.00  0.00    -0.099 SA
HETATM    3  O1  UNK     1      17.579   8.579  32.981  1.00  0.00    -0.308 OA
HETATM    4  O2  UNK     1      13.770   7.420  32.111  1.00  0.00    -0.287 OA
HETATM    5  C1  UNK     1      15.191   8.958  33.207  1.00  0.00     0.049 A 
HETATM    6  C2  UNK     1      16.517   9.300  33.466  1.00  0.00     0.090 A 
HETATM    7  C3  UNK     1      17.315   7.461  32.205  1.00  0.00     0.097 A 
HETATM    8  C4  UNK     1      14.909   7.774  32.379  1.00  0.00     0.187 A 
HETATM    9  C5  UNK     1      16.085   7.031  31.883  1.00  0.00     0.094 A 
HETATM   10  C6  UNK     1      18.484   6.776  31.744  1.00  0.00     0.038 A 
HETATM   11  C7  UNK     1      14.148   9.729  33.727  1.00  0.00     0.037 A 
HETATM   12  C8  UNK     1      16.810  10.417  34.247  1.00  0.00     0.039 A 
HETATM   13  C9  UNK     1      14.445  10.847  34.509  1.00  0.00     0.012 A 
HETATM   14  C10 UNK     1      15.773  11.190  34.768  1.00  0.00     0.022 A 
HETATM   15  C11 UNK     1      18.663   6.051  30.578  1.00  0.00     0.022 A 
HETATM   16  C12 UNK     1      19.978   5.514  30.470  1.00  0.00     0.008 A 
HETATM   17  C13 UNK     1      20.763   5.844  31.553  1.00  0.00     0.050 A 
ENDROOT
TORSDOF 0
ENDMDL
MODEL 3
REMARK VINA RESULT:      -6.7      3.119      4.014
REMARK  0 active torsions:
REMARK  status: ('A' for Active; 'I' for Inactive)
ROOT
HETATM    1 Br1  UNK     1      18.161  -2.253  36.858  1.00  0.00    -0.051 Br
HETATM    2  S1  UNK     1      18.929   6.125  33.884  1.00  0.00    -0.099 SA
HETATM    3  O1  UNK     1      18.193   3.353  34.583  1.00  0.00    -0.308 OA
HETATM    4  O2  UNK     1      18.480   0.242  31.966  1.00  0.00    -0.287 OA
HETATM    5  C1  UNK     1      18.286   0.954  34.211  1.00  0.00     0.049 A 
HETATM    6  C2  UNK     1      18.191   2.063  35.051  1.00  0.00     0.090 A 
HETATM    7  C3  UNK     1      18.301   3.556  33.216  1.00  0.00     0.097 A 
HETATM    8  C4  UNK     1      18.395   1.169  32.759  1.00  0.00     0.187 A 
HETATM    9  C5  UNK     1      18.395   2.574  32.305  1.00  0.00     0.094 A 
HETATM   10  C6  UNK     1      18.292   4.933  32.823  1.00  0.00     0.038 A 
HETATM   11  C7  UNK     1      18.279  -0.337  34.743  1.00  0.00     0.037 A 
HETATM   12  C8  UNK     1      18.085   1.887  36.430  1.00  0.00     0.039 A 
HETATM   13  C9  UNK     1      18.174  -0.511  36.123  1.00  0.00     0.012 A 
HETATM   14  C10 UNK     1      18.077   0.599  36.965  1.00  0.00     0.022 A 
HETATM   15  C11 UNK     1      17.822   5.499  31.650  1.00  0.00     0.022 A 
HETATM   16  C12 UNK     1      17.989   6.914  31.627  1.00  0.00     0.008 A 
HETATM   17  C13 UNK     1      18.578   7.385  32.780  1.00  0.00     0.050 A 
ENDROOT
TORSDOF 0
ENDMDL
MODEL 4
REMARK VINA RESULT:      -6.7      8.011     10.306
REMARK  0 active torsions:
REMARK  status: ('A' for Active; 'I' for Inactive)
ROOT
HETATM    1 Br1  UNK     1      18.504   3.471  31.193  1.00  0.00    -0.051 Br
HETATM    2  S1  UNK     1      18.266  11.903  34.100  1.00  0.00    -0.099 SA
HETATM    3  O1  UNK     1      18.046   9.003  33.599  1.00  0.00    -0.308 OA
HETATM    4  O2  UNK     1      14.628   7.220  32.277  1.00  0.00    -0.287 OA
HETATM    5  C1  UNK     1      16.969   7.083  32.573  1.00  0.00     0.049 A 
HETATM    6  C2  UNK     1      18.099   7.749  33.045  1.00  0.00     0.090 A 
HETATM    7  C3  UNK     1      16.814   9.631  33.686  1.00  0.00     0.097 A 
HETATM    8  C4  UNK     1      15.659   7.748  32.669  1.00  0.00     0.187 A 
HETATM    9  C5  UNK     1      15.655   9.096  33.271  1.00  0.00     0.094 A 
HETATM   10  C6  UNK     1      16.859  10.934  34.279  1.00  0.00     0.038 A 
HETATM   11  C7  UNK     1      17.081   5.806  32.018  1.00  0.00     0.037 A 
HETATM   12  C8  UNK     1      19.351   7.140  32.966  1.00  0.00     0.039 A 
HETATM   13  C9  UNK     1      18.336   5.199  31.940  1.00  0.00     0.012 A 
HETATM   14  C10 UNK     1      19.468   5.865  32.413  1.00  0.00     0.022 A 
HETATM   15  C11 UNK     1      15.889  11.583  35.024  1.00  0.00     0.022 A 
HETATM   16  C12 UNK     1      16.307  12.878  35.446  1.00  0.00     0.008 A 
HETATM   17  C13 UNK     1      17.579  13.179  35.012  1.00  0.00     0.050 A 
ENDROOT
TORSDOF 0
ENDMDL
MODEL 5
REMARK VINA RESULT:      -6.6      4.069      6.616
REMARK  0 active torsions:
REMARK  status: ('A' for Active; 'I' for Inactive)
ROOT
HETATM    1 Br1  UNK     1      18.638   6.130  30.079  1.00  0.00    -0.051 Br
HETATM    2  S1  UNK     1      17.279   0.507  36.872  1.00  0.00    -0.099 SA
HETATM    3  O1  UNK     1      18.245   2.151  34.619  1.00  0.00    -0.308 OA
HETATM    4  O2  UNK     1      18.772   0.687  30.852  1.00  0.00    -0.287 OA
HETATM    5  C1  UNK     1      18.519   2.580  32.244  1.00  0.00     0.049 A 
HETATM    6  C2  UNK     1      18.339   3.014  33.556  1.00  0.00     0.090 A 
HETATM    7  C3  UNK     1      18.328   0.791  34.370  1.00  0.00     0.097 A 
HETATM    8  C4  UNK     1      18.613   1.135  31.979  1.00  0.00     0.187 A 
HETATM    9  C5  UNK     1      18.503   0.248  33.154  1.00  0.00     0.094 A 
HETATM   10  C6  UNK     1      18.221  -0.029  35.539  1.00  0.00     0.038 A 
HETATM   11  C7  UNK     1      18.608   3.504  31.200  1.00  0.00     0.037 A 
HETATM   12  C8  UNK     1      18.249   4.378  33.834  1.00  0.00     0.039 A 
HETATM   13  C9  UNK     1      18.517   4.868  31.481  1.00  0.00     0.012 A 
HETATM   14  C10 UNK     1      18.338   5.304  32.795  1.00  0.00     0.022 A 
HETATM   15  C11 UNK     1      18.793  -1.265  35.788  1.00  0.00     0.022 A 
HETATM   16  C12 UNK     1      18.452  -1.769  37.077  1.00  0.00     0.008 A 
HETATM   17  C13 UNK     1      17.635  -0.905  37.771  1.00  0.00     0.050 A 
ENDROOT
TORSDOF 0
ENDMDL
MODEL 6
REMARK VINA RESULT:      -6.6     12.658     13.797
REMARK  0 active torsions:
REMARK  status: ('A' for Active; 'I' for Inactive)
ROOT
HETATM    1 Br1  UNK     1      26.901  -9.924  40.070  1.00  0.00    -0.051 Br
HETATM    2  S1  UNK     1      32.787  -5.562  34.979  1.00  0.00    -0.099 SA
HETATM    3  O1  UNK     1      31.074  -6.720  37.085  1.00  0.00    -0.308 OA
HETATM    4  O2  UNK     1      28.019  -4.679  38.849  1.00  0.00    -0.287 OA
HETATM    5  C1  UNK     1      29.031  -6.767  38.398  1.00  0.00     0.049 A 
HETATM    6  C2  UNK     1      30.103  -7.403  37.772  1.00  0.00     0.090 A 
HETATM    7  C3  UNK     1      30.978  -5.340  37.007  1.00  0.00     0.097 A 
HETATM    8  C4  UNK     1      28.931  -5.300  38.321  1.00  0.00     0.187 A 
HETATM    9  C5  UNK     1      29.999  -4.612  37.568  1.00  0.00     0.094 A 
HETATM   10  C6  UNK     1      32.036  -4.716  36.272  1.00  0.00     0.038 A 
HETATM   11  C7  UNK     1      28.071  -7.513  39.085  1.00  0.00     0.037 A 
HETATM   12  C8  UNK     1      30.221  -8.791  37.832  1.00  0.00     0.039 A 
HETATM   13  C9  UNK     1      28.192  -8.902  39.143  1.00  0.00     0.012 A 
HETATM   14  C10 UNK     1      29.264  -9.539  38.517  1.00  0.00     0.022 A 
HETATM   15  C11 UNK     1      32.592  -3.460  36.445  1.00  0.00     0.022 A 
HETATM   16  C12 UNK     1      33.635  -3.195  35.511  1.00  0.00     0.008 A 
HETATM   17  C13 UNK     1      33.845  -4.255  34.656  1.00  0.00     0.050 A 
ENDROOT
TORSDOF 0
ENDMDL
MODEL 7
REMARK VINA RESULT:      -6.5      4.303      6.129
REMARK  0 active torsions:
REMARK  status: ('A' for Active; 'I' for Inactive)
ROOT
HETATM    1 Br1  UNK     1      19.770  -1.089  29.655  1.00  0.00    -0.051 Br
HETATM    2  S1  UNK     1      16.587   6.922  31.956  1.00  0.00    -0.099 SA
HETATM    3  O1  UNK     1      18.095   4.430  31.480  1.00  0.00    -0.308 OA
HETATM    4  O2  UNK     1      18.642   1.573  34.334  1.00  0.00    -0.287 OA
HETATM    5  C1  UNK     1      18.678   2.139  32.040  1.00  0.00     0.049 A 
HETATM    6  C2  UNK     1      18.474   3.163  31.115  1.00  0.00     0.090 A 
HETATM    7  C3  UNK     1      17.903   4.697  32.826  1.00  0.00     0.097 A 
HETATM    8  C4  UNK     1      18.479   2.423  33.471  1.00  0.00     0.187 A 
HETATM    9  C5  UNK     1      18.069   3.800  33.811  1.00  0.00     0.094 A 
HETATM   10  C6  UNK     1      17.510   6.044  33.108  1.00  0.00     0.038 A 
HETATM   11  C7  UNK     1      19.064   0.867  31.612  1.00  0.00     0.037 A 
HETATM   12  C8  UNK     1      18.658   2.920  29.754  1.00  0.00     0.039 A 
HETATM   13  C9  UNK     1      19.246   0.627  30.249  1.00  0.00     0.012 A 
HETATM   14  C10 UNK     1      19.043   1.651  29.323  1.00  0.00     0.022 A 
HETATM   15  C11 UNK     1      17.773   6.808  34.233  1.00  0.00     0.022 A 
HETATM   16  C12 UNK     1      17.211   8.115  34.144  1.00  0.00     0.008 A 
HETATM   17  C13 UNK     1      16.540   8.310  32.957  1.00  0.00     0.050 A 
ENDROOT
TORSDOF 0
ENDMDL
MODEL 8
REMARK VINA RESULT:      -6.5      9.831     11.769
REMARK  0 active torsions:
REMARK  status: ('A' for Active; 'I' for Inactive)
ROOT
HETATM    1 Br1  UNK     1      31.294  -5.767  38.328  1.00  0.00    -0.051 Br
HETATM    2  S1  UNK     1      22.373  -5.910  38.362  1.00  0.00    -0.099 SA
HETATM    3  O1  UNK     1      25.276  -6.086  38.862  1.00  0.00    -0.308 OA
HETATM    4  O2  UNK     1      27.357  -9.588  38.713  1.00  0.00    -0.287 OA
HETATM    5  C1  UNK     1      27.415  -7.225  38.683  1.00  0.00     0.049 A 
HETATM    6  C2  UNK     1      26.643  -6.066  38.740  1.00  0.00     0.090 A 
HETATM    7  C3  UNK     1      24.641  -7.317  38.924  1.00  0.00     0.097 A 
HETATM    8  C4  UNK     1      26.741  -8.532  38.755  1.00  0.00     0.187 A 
HETATM    9  C5  UNK     1      25.270  -8.502  38.883  1.00  0.00     0.094 A 
HETATM   10  C6  UNK     1      23.217  -7.237  39.052  1.00  0.00     0.038 A 
HETATM   11  C7  UNK     1      28.804  -7.144  38.559  1.00  0.00     0.037 A 
HETATM   12  C8  UNK     1      27.257  -4.816  38.675  1.00  0.00     0.039 A 
HETATM   13  C9  UNK     1      29.416  -5.892  38.494  1.00  0.00     0.012 A 
HETATM   14  C10 UNK     1      28.644  -4.730  38.551  1.00  0.00     0.022 A 
HETATM   15  C11 UNK     1      22.351  -8.113  39.685  1.00  0.00     0.022 A 
HETATM   16  C12 UNK     1      20.994  -7.690  39.599  1.00  0.00     0.008 A 
HETATM   17  C13 UNK     1      20.864  -6.506  38.906  1.00  0.00     0.050 A 
ENDROOT
TORSDOF 0
ENDMDL
MODEL 9
REMARK VINA RESULT:      -6.4     15.257     18.054
REMARK  0 active torsions:
REMARK  status: ('A' for Active; 'I' for Inactive)
ROOT
HETATM    1 Br1  UNK     1      19.221  -4.457  10.622  1.00  0.00    -0.051 Br
HETATM    2  S1  UNK     1      19.033   1.882  16.898  1.00  0.00    -0.099 SA
HETATM    3  O1  UNK     1      19.409  -0.496  15.191  1.00  0.00    -0.308 OA
HETATM    4  O2  UNK     1      17.458  -4.020  15.813  1.00  0.00    -0.287 OA
HETATM    5  C1  UNK     1      18.687  -2.650  14.330  1.00  0.00     0.049 A 
HETATM    6  C2  UNK     1      19.339  -1.427  14.184  1.00  0.00     0.090 A 
HETATM    7  C3  UNK     1      18.799  -0.790  16.400  1.00  0.00     0.097 A 
HETATM    8  C4  UNK     1      18.044  -2.965  15.617  1.00  0.00     0.187 A 
HETATM    9  C5  UNK     1      18.146  -1.932  16.666  1.00  0.00     0.094 A 
HETATM   10  C6  UNK     1      18.927   0.239  17.388  1.00  0.00     0.038 A 
HETATM   11  C7  UNK     1      18.647  -3.560  13.271  1.00  0.00     0.037 A 
HETATM   12  C8  UNK     1      19.957  -1.105  12.976  1.00  0.00     0.039 A 
HETATM   13  C9  UNK     1      19.266  -3.236  12.063  1.00  0.00     0.012 A 
HETATM   14  C10 UNK     1      19.919  -2.011  11.916  1.00  0.00     0.022 A 
HETATM   15  C11 UNK     1      18.985   0.118  18.766  1.00  0.00     0.022 A 
HETATM   16  C12 UNK     1      19.115   1.379  19.416  1.00  0.00     0.008 A 
HETATM   17  C13 UNK     1      19.154   2.422  18.517  1.00  0.00     0.050 A 
ENDROOT
TORSDOF 0
ENDMDL
MODEL 10
REMARK VINA RESULT:      -6.4      5.064      6.777
REMARK  0 active torsions:
REMARK  status: ('A' for Active; 'I' for Inactive)
ROOT
HETATM    1 Br1  UNK     1      20.292 -10.582  37.601  1.00  0.00    -0.051 Br
HETATM    2  S1  UNK     1      17.540  -2.163  36.528  1.00  0.00    -0.099 SA
HETATM    3  O1  UNK     1      18.826  -4.819  36.488  1.00  0.00    -0.308 OA
HETATM    4  O2  UNK     1      22.464  -5.561  38.170  1.00  0.00    -0.287 OA
HETATM    5  C1  UNK     1      20.432  -6.433  37.335  1.00  0.00     0.049 A 
HETATM    6  C2  UNK     1      19.204  -6.110  36.761  1.00  0.00     0.090 A 
HETATM    7  C3  UNK     1      19.706  -3.796  36.806  1.00  0.00     0.097 A 
HETATM    8  C4  UNK     1      21.370  -5.348  37.667  1.00  0.00     0.187 A 
HETATM    9  C5  UNK     1      20.917  -3.977  37.358  1.00  0.00     0.094 A 
HETATM   10  C6  UNK     1      19.226  -2.486  36.484  1.00  0.00     0.038 A 
HETATM   11  C7  UNK     1      20.764  -7.765  37.590  1.00  0.00     0.037 A 
HETATM   12  C8  UNK     1      18.298  -7.119  36.435  1.00  0.00     0.039 A 
HETATM   13  C9  UNK     1      19.856  -8.774  37.264  1.00  0.00     0.012 A 
HETATM   14  C10 UNK     1      18.626  -8.451  36.688  1.00  0.00     0.022 A 
HETATM   15  C11 UNK     1      19.947  -1.362  36.117  1.00  0.00     0.022 A 
HETATM   16  C12 UNK     1      19.108  -0.236  35.874  1.00  0.00     0.008 A 
HETATM   17  C13 UNK     1      17.776  -0.533  36.061  1.00  0.00     0.050 A 
ENDROOT
TORSDOF 0
ENDMDL
