MODEL 1
REMARK VINA RESULT:      -8.0      0.000      0.000
REMARK  1 active torsions:
REMARK  status: ('A' for Active; 'I' for Inactive)
REMARK       I    between atoms: C6_11  and  N1_5 
REMARK    1  A    between atoms: C6_11  and  C7_12 
ROOT
HETATM    1 Cl1  UNK     1       6.916   4.927   9.771  1.00  0.00    -0.084 Cl
HETATM    2  O2  UNK     1      11.615   6.706   6.683  1.00  0.00    -0.274 OA
HETATM    3  O3  UNK     1      13.874   6.995   6.498  1.00  0.00    -0.259 OA
HETATM    4  C7  UNK     1      13.088   6.043   8.520  1.00  0.00     0.108 A 
HETATM    5  C8  UNK     1      12.041   5.631   9.246  1.00  0.00     0.037 A 
HETATM    6  C9  UNK     1      10.691   5.738   8.713  1.00  0.00     0.001 A 
HETATM    7  C10 UNK     1      12.918   6.616   7.166  1.00  0.00     0.304 A 
HETATM    8  C11 UNK     1      10.510   6.274   7.442  1.00  0.00     0.089 A 
HETATM    9  C12 UNK     1       9.571   5.320   9.434  1.00  0.00     0.038 A 
HETATM   10  C13 UNK     1       9.245   6.403   6.873  1.00  0.00     0.040 A 
HETATM   11  C14 UNK     1       8.294   5.443   8.878  1.00  0.00     0.035 A 
HETATM   12  C15 UNK     1       8.132   5.983   7.600  1.00  0.00     0.026 A 
ENDROOT
BRANCH   4  13
HETATM   13  C6  UNK     1      14.416   5.893   9.147  1.00  0.00     0.259 C 
HETATM   14  O1  UNK     1      14.976   4.800   9.038  1.00  0.00    -0.267 OA
HETATM   15  N1  UNK     1      14.945   6.992   9.819  1.00  0.00    -0.348 N 
HETATM   16  C4  UNK     1      16.260   6.871  10.456  1.00  0.00     0.126 C 
HETATM   17  C5  UNK     1      14.288   8.294  10.008  1.00  0.00     0.126 C 
HETATM   18  C2  UNK     1      17.199   7.986  10.012  1.00  0.00     0.020 C 
HETATM   19  C1  UNK     1      16.569   9.358  10.246  1.00  0.00     0.003 C 
HETATM   20  C3  UNK     1      15.201   9.441   9.576  1.00  0.00     0.020 C 
ENDBRANCH   4  13
TORSDOF 1
ENDMDL
MODEL 2
REMARK VINA RESULT:      -8.0     11.931     13.917
REMARK  1 active torsions:
REMARK  status: ('A' for Active; 'I' for Inactive)
REMARK       I    between atoms: C6_11  and  N1_5 
REMARK    1  A    between atoms: C6_11  and  C7_12 
ROOT
HETATM    1 Cl1  UNK     1      18.803   2.192  21.017  1.00  0.00    -0.084 Cl
HETATM    2  O2  UNK     1      19.287   0.926  15.277  1.00  0.00    -0.274 OA
HETATM    3  O3  UNK     1      19.255  -0.593  13.571  1.00  0.00    -0.259 OA
HETATM    4  C7  UNK     1      18.867  -1.437  15.750  1.00  0.00     0.108 A 
HETATM    5  C8  UNK     1      18.752  -1.181  17.060  1.00  0.00     0.037 A 
HETATM    6  C9  UNK     1      18.903   0.177  17.558  1.00  0.00     0.001 A 
HETATM    7  C10 UNK     1      19.148  -0.364  14.770  1.00  0.00     0.304 A 
HETATM    8  C11 UNK     1      19.166   1.201  16.653  1.00  0.00     0.089 A 
HETATM    9  C12 UNK     1      18.789   0.490  18.914  1.00  0.00     0.038 A 
HETATM   10  C13 UNK     1      19.320   2.523  17.064  1.00  0.00     0.040 A 
HETATM   11  C14 UNK     1      18.942   1.811  19.343  1.00  0.00     0.035 A 
HETATM   12  C15 UNK     1      19.206   2.826  18.420  1.00  0.00     0.026 A 
ENDROOT
BRANCH   4  13
HETATM   13  C6  UNK     1      18.699  -2.846  15.343  1.00  0.00     0.259 C 
HETATM   14  O1  UNK     1      17.739  -3.117  14.619  1.00  0.00    -0.267 OA
HETATM   15  N1  UNK     1      19.631  -3.772  15.805  1.00  0.00    -0.348 N 
HETATM   16  C4  UNK     1      19.486  -5.179  15.420  1.00  0.00     0.126 C 
HETATM   17  C5  UNK     1      20.761  -3.493  16.704  1.00  0.00     0.126 C 
HETATM   18  C2  UNK     1      20.772  -5.726  14.811  1.00  0.00     0.020 C 
HETATM   19  C1  UNK     1      21.959  -5.502  15.746  1.00  0.00     0.003 C 
HETATM   20  C3  UNK     1      22.071  -4.030  16.129  1.00  0.00     0.020 C 
ENDBRANCH   4  13
TORSDOF 1
ENDMDL
MODEL 3
REMARK VINA RESULT:      -7.9     24.314     26.375
REMARK  1 active torsions:
REMARK  status: ('A' for Active; 'I' for Inactive)
REMARK       I    between atoms: C6_11  and  N1_5 
REMARK    1  A    between atoms: C6_11  and  C7_12 
ROOT
HETATM    1 Cl1  UNK     1      15.055   0.619  36.457  1.00  0.00    -0.084 Cl
HETATM    2  O2  UNK     1      20.227  -1.823  35.018  1.00  0.00    -0.274 OA
HETATM    3  O3  UNK     1      21.715  -2.531  33.435  1.00  0.00    -0.259 OA
HETATM    4  C7  UNK     1      19.693  -1.583  32.644  1.00  0.00     0.108 A 
HETATM    5  C8  UNK     1      18.512  -1.026  32.938  1.00  0.00     0.037 A 
HETATM    6  C9  UNK     1      18.117  -0.834  34.325  1.00  0.00     0.001 A 
HETATM    7  C10 UNK     1      20.633  -2.020  33.701  1.00  0.00     0.304 A 
HETATM    8  C11 UNK     1      18.986  -1.237  35.335  1.00  0.00     0.089 A 
HETATM    9  C12 UNK     1      16.896  -0.256  34.679  1.00  0.00     0.038 A 
HETATM   10  C13 UNK     1      18.669  -1.081  36.682  1.00  0.00     0.040 A 
HETATM   11  C14 UNK     1      16.563  -0.092  36.026  1.00  0.00     0.035 A 
HETATM   12  C15 UNK     1      17.448  -0.504  37.026  1.00  0.00     0.026 A 
ENDROOT
BRANCH   4  13
HETATM   13  C6  UNK     1      20.003  -1.735  31.208  1.00  0.00     0.259 C 
HETATM   14  O1  UNK     1      20.343  -2.854  30.816  1.00  0.00    -0.267 OA
HETATM   15  N1  UNK     1      19.896  -0.609  30.397  1.00  0.00    -0.348 N 
HETATM   16  C4  UNK     1      20.203  -0.729  28.968  1.00  0.00     0.126 C 
HETATM   17  C5  UNK     1      19.539   0.749  30.837  1.00  0.00     0.126 C 
HETATM   18  C2  UNK     1      19.064  -0.195  28.107  1.00  0.00     0.020 C 
HETATM   19  C1  UNK     1      18.705   1.236  28.501  1.00  0.00     0.003 C 
HETATM   20  C3  UNK     1      18.400   1.322  29.993  1.00  0.00     0.020 C 
ENDBRANCH   4  13
TORSDOF 1
ENDMDL
MODEL 4
REMARK VINA RESULT:      -7.9     22.193     23.858
REMARK  1 active torsions:
REMARK  status: ('A' for Active; 'I' for Inactive)
REMARK       I    between atoms: C6_11  and  N1_5 
REMARK    1  A    between atoms: C6_11  and  C7_12 
ROOT
HETATM    1 Cl1  UNK     1      20.898  -2.951  31.536  1.00  0.00    -0.084 Cl
HETATM    2  O2  UNK     1      18.949   1.808  28.649  1.00  0.00    -0.274 OA
HETATM    3  O3  UNK     1      18.161   3.953  28.663  1.00  0.00    -0.259 OA
HETATM    4  C7  UNK     1      18.658   2.991  30.770  1.00  0.00     0.108 A 
HETATM    5  C8  UNK     1      19.096   1.926  31.454  1.00  0.00     0.037 A 
HETATM    6  C9  UNK     1      19.493   0.716  30.751  1.00  0.00     0.001 A 
HETATM    7  C10 UNK     1      18.561   2.981  29.293  1.00  0.00     0.304 A 
HETATM    8  C11 UNK     1      19.411   0.686  29.362  1.00  0.00     0.089 A 
HETATM    9  C12 UNK     1      19.957  -0.417  31.424  1.00  0.00     0.038 A 
HETATM   10  C13 UNK     1      19.777  -0.441  28.630  1.00  0.00     0.040 A 
HETATM   11  C14 UNK     1      20.328  -1.556  30.703  1.00  0.00     0.035 A 
HETATM   12  C15 UNK     1      20.238  -1.568  29.309  1.00  0.00     0.026 A 
ENDROOT
BRANCH   4  13
HETATM   13  C6  UNK     1      18.278   4.171  31.572  1.00  0.00     0.259 C 
HETATM   14  O1  UNK     1      17.188   4.139  32.148  1.00  0.00    -0.267 OA
HETATM   15  N1  UNK     1      19.171   5.238  31.621  1.00  0.00    -0.348 N 
HETATM   16  C4  UNK     1      18.817   6.426  32.405  1.00  0.00     0.126 C 
HETATM   17  C5  UNK     1      20.456   5.330  30.912  1.00  0.00     0.126 C 
HETATM   18  C2  UNK     1      19.921   6.791  33.391  1.00  0.00     0.020 C 
HETATM   19  C1  UNK     1      21.262   6.948  32.678  1.00  0.00     0.003 C 
HETATM   20  C3  UNK     1      21.590   5.698  31.868  1.00  0.00     0.020 C 
ENDBRANCH   4  13
TORSDOF 1
ENDMDL
MODEL 5
REMARK VINA RESULT:      -7.8      3.470      6.853
REMARK  1 active torsions:
REMARK  status: ('A' for Active; 'I' for Inactive)
REMARK       I    between atoms: C6_11  and  N1_5 
REMARK    1  A    between atoms: C6_11  and  C7_12 
ROOT
HETATM    1 Cl1  UNK     1      17.144  11.761   8.306  1.00  0.00    -0.084 Cl
HETATM    2  O2  UNK     1      14.523   6.871  10.304  1.00  0.00    -0.274 OA
HETATM    3  O3  UNK     1      12.653   5.583  10.556  1.00  0.00    -0.259 OA
HETATM    4  C7  UNK     1      12.383   7.634   9.400  1.00  0.00     0.108 A 
HETATM    5  C8  UNK     1      12.949   8.754   8.935  1.00  0.00     0.037 A 
HETATM    6  C9  UNK     1      14.369   8.997   9.136  1.00  0.00     0.001 A 
HETATM    7  C10 UNK     1      13.167   6.610  10.128  1.00  0.00     0.304 A 
HETATM    8  C11 UNK     1      15.125   8.047   9.817  1.00  0.00     0.089 A 
HETATM    9  C12 UNK     1      15.001  10.150   8.667  1.00  0.00     0.038 A 
HETATM   10  C13 UNK     1      16.489   8.218  10.042  1.00  0.00     0.040 A 
HETATM   11  C14 UNK     1      16.369  10.337   8.885  1.00  0.00     0.035 A 
HETATM   12  C15 UNK     1      17.112   9.372   9.570  1.00  0.00     0.026 A 
ENDROOT
BRANCH   4  13
HETATM   13  C6  UNK     1      10.937   7.479   9.147  1.00  0.00     0.259 C 
HETATM   14  O1  UNK     1      10.162   8.095   9.881  1.00  0.00    -0.267 OA
HETATM   15  N1  UNK     1      10.546   6.647   8.101  1.00  0.00    -0.348 N 
HETATM   16  C4  UNK     1       9.116   6.470   7.829  1.00  0.00     0.126 C 
HETATM   17  C5  UNK     1      11.438   5.862   7.234  1.00  0.00     0.126 C 
HETATM   18  C2  UNK     1       8.787   6.751   6.367  1.00  0.00     0.020 C 
HETATM   19  C1  UNK     1       9.659   5.910   5.439  1.00  0.00     0.003 C 
HETATM   20  C3  UNK     1      11.137   6.115   5.757  1.00  0.00     0.020 C 
ENDBRANCH   4  13
TORSDOF 1
ENDMDL
MODEL 6
REMARK VINA RESULT:      -7.6      3.027      6.637
REMARK  1 active torsions:
REMARK  status: ('A' for Active; 'I' for Inactive)
REMARK       I    between atoms: C6_11  and  N1_5 
REMARK    1  A    between atoms: C6_11  and  C7_12 
ROOT
HETATM    1 Cl1  UNK     1      17.179  10.606  10.243  1.00  0.00    -0.084 Cl
HETATM    2  O2  UNK     1      14.475   5.450   9.304  1.00  0.00    -0.274 OA
HETATM    3  O3  UNK     1      12.835   4.226   8.289  1.00  0.00    -0.259 OA
HETATM    4  C7  UNK     1      12.893   6.541   7.792  1.00  0.00     0.108 A 
HETATM    5  C8  UNK     1      13.485   7.727   7.985  1.00  0.00     0.037 A 
HETATM    6  C9  UNK     1      14.634   7.837   8.871  1.00  0.00     0.001 A 
HETATM    7  C10 UNK     1      13.374   5.313   8.462  1.00  0.00     0.304 A 
HETATM    8  C11 UNK     1      15.103   6.694   9.511  1.00  0.00     0.089 A 
HETATM    9  C12 UNK     1      15.283   9.052   9.101  1.00  0.00     0.038 A 
HETATM   10  C13 UNK     1      16.198   6.731  10.371  1.00  0.00     0.040 A 
HETATM   11  C14 UNK     1      16.383   9.106   9.962  1.00  0.00     0.035 A 
HETATM   12  C15 UNK     1      16.840   7.948  10.595  1.00  0.00     0.026 A 
ENDROOT
BRANCH   4  13
HETATM   13  C6  UNK     1      11.736   6.531   6.875  1.00  0.00     0.259 C 
HETATM   14  O1  UNK     1      11.965   6.390   5.672  1.00  0.00    -0.267 OA
HETATM   15  N1  UNK     1      10.467   6.686   7.428  1.00  0.00    -0.348 N 
HETATM   16  C4  UNK     1       9.300   6.685   6.542  1.00  0.00     0.126 C 
HETATM   17  C5  UNK     1      10.159   6.902   8.850  1.00  0.00     0.126 C 
HETATM   18  C2  UNK     1       8.254   5.674   6.998  1.00  0.00     0.020 C 
HETATM   19  C1  UNK     1       7.870   5.906   8.458  1.00  0.00     0.003 C 
HETATM   20  C3  UNK     1       9.110   5.908   9.346  1.00  0.00     0.020 C 
ENDBRANCH   4  13
TORSDOF 1
ENDMDL
MODEL 7
REMARK VINA RESULT:      -7.6     24.488     26.550
REMARK  1 active torsions:
REMARK  status: ('A' for Active; 'I' for Inactive)
REMARK       I    between atoms: C6_11  and  N1_5 
REMARK    1  A    between atoms: C6_11  and  C7_12 
ROOT
HETATM    1 Cl1  UNK     1      18.282   2.297  28.471  1.00  0.00    -0.084 Cl
HETATM    2  O2  UNK     1      20.511  -2.206  31.560  1.00  0.00    -0.274 OA
HETATM    3  O3  UNK     1      20.813  -3.292  33.547  1.00  0.00    -0.259 OA
HETATM    4  C7  UNK     1      19.548  -1.290  33.613  1.00  0.00     0.108 A 
HETATM    5  C8  UNK     1      19.030  -0.255  32.939  1.00  0.00     0.037 A 
HETATM    6  C9  UNK     1      19.231  -0.140  31.503  1.00  0.00     0.001 A 
HETATM    7  C10 UNK     1      20.336  -2.343  32.934  1.00  0.00     0.304 A 
HETATM    8  C11 UNK     1      19.968  -1.120  30.846  1.00  0.00     0.089 A 
HETATM    9  C12 UNK     1      18.707   0.921  30.761  1.00  0.00     0.038 A 
HETATM   10  C13 UNK     1      20.196  -1.070  29.473  1.00  0.00     0.040 A 
HETATM   11  C14 UNK     1      18.928   0.986  29.382  1.00  0.00     0.035 A 
HETATM   12  C15 UNK     1      19.670  -0.007  28.739  1.00  0.00     0.026 A 
ENDROOT
BRANCH   4  13
HETATM   13  C6  UNK     1      19.290  -1.318  35.066  1.00  0.00     0.259 C 
HETATM   14  O1  UNK     1      20.249  -1.538  35.809  1.00  0.00    -0.267 OA
HETATM   15  N1  UNK     1      17.985  -1.099  35.499  1.00  0.00    -0.348 N 
HETATM   16  C4  UNK     1      17.698  -1.127  36.936  1.00  0.00     0.126 C 
HETATM   17  C5  UNK     1      16.810  -0.879  34.641  1.00  0.00     0.126 C 
HETATM   18  C2  UNK     1      16.967   0.135  37.383  1.00  0.00     0.020 C 
HETATM   19  C1  UNK     1      15.709   0.363  36.548  1.00  0.00     0.003 C 
HETATM   20  C3  UNK     1      16.047   0.377  35.060  1.00  0.00     0.020 C 
ENDBRANCH   4  13
TORSDOF 1
ENDMDL
MODEL 8
REMARK VINA RESULT:      -7.3     24.012     25.833
REMARK  1 active torsions:
REMARK  status: ('A' for Active; 'I' for Inactive)
REMARK       I    between atoms: C6_11  and  N1_5 
REMARK    1  A    between atoms: C6_11  and  C7_12 
ROOT
HETATM    1 Cl1  UNK     1      16.410  14.397  35.988  1.00  0.00    -0.084 Cl
HETATM    2  O2  UNK     1      14.123   9.142  34.595  1.00  0.00    -0.274 OA
HETATM    3  O3  UNK     1      14.193   7.206  33.382  1.00  0.00    -0.259 OA
HETATM    4  C7  UNK     1      15.928   8.770  32.986  1.00  0.00     0.108 A 
HETATM    5  C8  UNK     1      16.471   9.958  33.281  1.00  0.00     0.037 A 
HETATM    6  C9  UNK     1      15.851  10.821  34.274  1.00  0.00     0.001 A 
HETATM    7  C10 UNK     1      14.693   8.293  33.649  1.00  0.00     0.304 A 
HETATM    8  C11 UNK     1      14.690  10.392  34.909  1.00  0.00     0.089 A 
HETATM    9  C12 UNK     1      16.384  12.067  34.613  1.00  0.00     0.038 A 
HETATM   10  C13 UNK     1      14.048  11.171  35.869  1.00  0.00     0.040 A 
HETATM   11  C14 UNK     1      15.751  12.861  35.574  1.00  0.00     0.035 A 
HETATM   12  C15 UNK     1      14.586  12.413  36.201  1.00  0.00     0.026 A 
ENDROOT
BRANCH   4  13
HETATM   13  C6  UNK     1      16.630   7.966  31.966  1.00  0.00     0.259 C 
HETATM   14  O1  UNK     1      16.317   8.145  30.787  1.00  0.00    -0.267 OA
HETATM   15  N1  UNK     1      17.593   7.059  32.402  1.00  0.00    -0.348 N 
HETATM   16  C4  UNK     1      18.302   6.243  31.412  1.00  0.00     0.126 C 
HETATM   17  C5  UNK     1      17.960   6.786  33.800  1.00  0.00     0.126 C 
HETATM   18  C2  UNK     1      19.813   6.357  31.575  1.00  0.00     0.020 C 
HETATM   19  C1  UNK     1      20.235   6.025  33.005  1.00  0.00     0.003 C 
HETATM   20  C3  UNK     1      19.471   6.887  34.005  1.00  0.00     0.020 C 
ENDBRANCH   4  13
TORSDOF 1
ENDMDL
MODEL 9
REMARK VINA RESULT:      -7.3      3.727      7.140
REMARK  1 active torsions:
REMARK  status: ('A' for Active; 'I' for Inactive)
REMARK       I    between atoms: C6_11  and  N1_5 
REMARK    1  A    between atoms: C6_11  and  C7_12 
ROOT
HETATM    1 Cl1  UNK     1      17.219  13.217   6.832  1.00  0.00    -0.084 Cl
HETATM    2  O2  UNK     1      16.251   8.430  10.139  1.00  0.00    -0.274 OA
HETATM    3  O3  UNK     1      14.822   6.869  11.000  1.00  0.00    -0.259 OA
HETATM    4  C7  UNK     1      13.867   8.528   9.604  1.00  0.00     0.108 A 
HETATM    5  C8  UNK     1      14.054   9.616   8.847  1.00  0.00     0.037 A 
HETATM    6  C9  UNK     1      15.385  10.182   8.693  1.00  0.00     0.001 A 
HETATM    7  C10 UNK     1      14.989   7.865  10.306  1.00  0.00     0.304 A 
HETATM    8  C11 UNK     1      16.455   9.574   9.343  1.00  0.00     0.089 A 
HETATM    9  C12 UNK     1      15.627  11.314   7.912  1.00  0.00     0.038 A 
HETATM   10  C13 UNK     1      17.754  10.065   9.236  1.00  0.00     0.040 A 
HETATM   11  C14 UNK     1      16.925  11.820   7.795  1.00  0.00     0.035 A 
HETATM   12  C15 UNK     1      17.986  11.196   8.455  1.00  0.00     0.026 A 
ENDROOT
BRANCH   4  13
HETATM   13  C6  UNK     1      12.480   8.029   9.699  1.00  0.00     0.259 C 
HETATM   14  O1  UNK     1      11.770   8.491  10.594  1.00  0.00    -0.267 OA
HETATM   15  N1  UNK     1      12.070   7.070   8.775  1.00  0.00    -0.348 N 
HETATM   16  C4  UNK     1      10.700   6.553   8.849  1.00  0.00     0.126 C 
HETATM   17  C5  UNK     1      12.901   6.464   7.724  1.00  0.00     0.126 C 
HETATM   18  C2  UNK     1       9.989   6.666   7.505  1.00  0.00     0.020 C 
HETATM   19  C1  UNK     1      10.800   5.997   6.398  1.00  0.00     0.003 C 
HETATM   20  C3  UNK     1      12.220   6.555   6.359  1.00  0.00     0.020 C 
ENDBRANCH   4  13
TORSDOF 1
ENDMDL
MODEL 10
REMARK VINA RESULT:      -7.3      4.020      7.210
REMARK  1 active torsions:
REMARK  status: ('A' for Active; 'I' for Inactive)
REMARK       I    between atoms: C6_11  and  N1_5 
REMARK    1  A    between atoms: C6_11  and  C7_12 
ROOT
HETATM    1 Cl1  UNK     1      19.654  12.129   9.472  1.00  0.00    -0.084 Cl
HETATM    2  O2  UNK     1      14.415  10.126  11.295  1.00  0.00    -0.274 OA
HETATM    3  O3  UNK     1      12.872   8.446  11.435  1.00  0.00    -0.259 OA
HETATM    4  C7  UNK     1      14.878   7.951  10.276  1.00  0.00     0.108 A 
HETATM    5  C8  UNK     1      16.073   8.377   9.847  1.00  0.00     0.037 A 
HETATM    6  C9  UNK     1      16.512   9.735  10.129  1.00  0.00     0.001 A 
HETATM    7  C10 UNK     1      13.967   8.832  11.041  1.00  0.00     0.304 A 
HETATM    8  C11 UNK     1      15.671  10.579  10.848  1.00  0.00     0.089 A 
HETATM    9  C12 UNK     1      17.751  10.221   9.703  1.00  0.00     0.038 A 
HETATM   10  C13 UNK     1      16.032  11.890  11.152  1.00  0.00     0.040 A 
HETATM   11  C14 UNK     1      18.127  11.534  10.000  1.00  0.00     0.035 A 
HETATM   12  C15 UNK     1      17.270  12.366  10.723  1.00  0.00     0.026 A 
ENDROOT
BRANCH   4  13
HETATM   13  C6  UNK     1      14.523   6.558   9.940  1.00  0.00     0.259 C 
HETATM   14  O1  UNK     1      14.884   5.676  10.721  1.00  0.00    -0.267 OA
HETATM   15  N1  UNK     1      13.808   6.335   8.766  1.00  0.00    -0.348 N 
HETATM   16  C4  UNK     1      13.446   4.961   8.404  1.00  0.00     0.126 C 
HETATM   17  C5  UNK     1      13.400   7.356   7.789  1.00  0.00     0.126 C 
HETATM   18  C2  UNK     1      11.952   4.834   8.125  1.00  0.00     0.020 C 
HETATM   19  C1  UNK     1      11.505   5.845   7.072  1.00  0.00     0.003 C 
HETATM   20  C3  UNK     1      11.906   7.259   7.479  1.00  0.00     0.020 C 
ENDBRANCH   4  13
TORSDOF 1
ENDMDL
