MODEL 1
REMARK VINA RESULT:      -8.8      0.000      0.000
REMARK  5 active torsions:
REMARK  status: ('A' for Active; 'I' for Inactive)
REMARK    1  A    between atoms: C6_12  and  O2_2 
REMARK    2  A    between atoms: C12_18  and  O4_4 
REMARK    3  A    between atoms: C13_19  and  O5_5 
REMARK    4  A    between atoms: C15_21  and  O6_6 
REMARK    5  A    between atoms: C2_8  and  C5_11 
ROOT
HETATM    1  O1  UNK     1      18.744  -1.198  18.205  1.00  0.00    -0.321 OA
HETATM    2  O3  UNK     1      19.362   1.395  15.117  1.00  0.00    -0.286 OA
HETATM    3  C1  UNK     1      19.014   1.084  17.423  1.00  0.00     0.082 A 
HETATM    4  C2  UNK     1      19.155  -0.865  15.835  1.00  0.00     0.048 A 
HETATM    5  C3  UNK     1      18.795   0.153  18.438  1.00  0.00     0.094 A 
HETATM    6  C4  UNK     1      19.197   0.610  16.040  1.00  0.00     0.200 A 
HETATM    7  C6  UNK     1      19.055   2.449  17.720  1.00  0.00     0.085 A 
HETATM    8  C7  UNK     1      18.937  -1.629  16.916  1.00  0.00     0.159 A 
HETATM    9  C8  UNK     1      18.615   0.582  19.754  1.00  0.00     0.074 A 
HETATM   10  C11 UNK     1      18.875   2.875  19.036  1.00  0.00     0.074 A 
HETATM   11  C12 UNK     1      18.655   1.943  20.051  1.00  0.00     0.071 A 
ENDROOT
BRANCH   4  12
HETATM   12  C5  UNK     1      19.362  -1.474  14.511  1.00  0.00    -0.017 A 
HETATM   13  C10 UNK     1      20.097  -2.655  14.390  1.00  0.00     0.015 A 
HETATM   14  C14 UNK     1      20.292  -3.233  13.135  1.00  0.00     0.040 A 
HETATM   15  C15 UNK     1      19.752  -2.631  11.999  1.00  0.00     0.098 A 
HETATM   16  C13 UNK     1      19.016  -1.452  12.117  1.00  0.00     0.099 A 
HETATM   17  C9  UNK     1      18.821  -0.874  13.372  1.00  0.00     0.052 A 
BRANCH  15  18
HETATM   18  O6  UNK     1      19.950  -3.204  10.779  1.00  0.00    -0.358 OA
HETATM   19  H10 UNK     1      20.894  -3.146  10.552  1.00  0.00     0.217 HD
ENDBRANCH  15  18
BRANCH  16  20
HETATM   20  O5  UNK     1      18.482  -0.856  11.014  1.00  0.00    -0.358 OA
HETATM   21  H9  UNK     1      19.188  -0.365  10.560  1.00  0.00     0.217 HD
ENDBRANCH  16  20
ENDBRANCH   4  12
BRANCH   7  22
HETATM   22  O2  UNK     1      19.268   3.401  16.768  1.00  0.00    -0.360 OA
HETATM   23  H7  UNK     1      19.712   4.173  17.151  1.00  0.00     0.217 HD
ENDBRANCH   7  22
BRANCH  11  24
HETATM   24  O4  UNK     1      18.480   2.365  21.334  1.00  0.00    -0.361 OA
HETATM   25  H8  UNK     1      19.111   1.897  21.909  1.00  0.00     0.217 HD
ENDBRANCH  11  24
TORSDOF 5
ENDMDL
MODEL 2
REMARK VINA RESULT:      -8.5     11.702     13.817
REMARK  5 active torsions:
REMARK  status: ('A' for Active; 'I' for Inactive)
REMARK    1  A    between atoms: C6_12  and  O2_2 
REMARK    2  A    between atoms: C12_18  and  O4_4 
REMARK    3  A    between atoms: C13_19  and  O5_5 
REMARK    4  A    between atoms: C15_21  and  O6_6 
REMARK    5  A    between atoms: C2_8  and  C5_11 
ROOT
HETATM    1  O1  UNK     1      11.066   8.030   9.760  1.00  0.00    -0.321 OA
HETATM    2  O3  UNK     1      13.733   7.258   6.770  1.00  0.00    -0.286 OA
HETATM    3  C1  UNK     1      11.529   7.077   7.577  1.00  0.00     0.082 A 
HETATM    4  C2  UNK     1      13.323   8.255   8.893  1.00  0.00     0.048 A 
HETATM    5  C3  UNK     1      10.664   7.358   8.634  1.00  0.00     0.094 A 
HETATM    6  C4  UNK     1      12.935   7.511   7.663  1.00  0.00     0.200 A 
HETATM    7  C6  UNK     1      11.064   6.387   6.453  1.00  0.00     0.085 A 
HETATM    8  C7  UNK     1      12.373   8.448   9.820  1.00  0.00     0.159 A 
HETATM    9  C8  UNK     1       9.331   6.951   8.574  1.00  0.00     0.074 A 
HETATM   10  C11 UNK     1       9.730   5.982   6.396  1.00  0.00     0.074 A 
HETATM   11  C12 UNK     1       8.865   6.263   7.454  1.00  0.00     0.071 A 
ENDROOT
BRANCH   4  12
HETATM   12  C5  UNK     1      14.685   8.779   9.090  1.00  0.00    -0.017 A 
HETATM   13  C10 UNK     1      14.989  10.093   8.731  1.00  0.00     0.015 A 
HETATM   14  C14 UNK     1      16.278  10.591   8.918  1.00  0.00     0.040 A 
HETATM   15  C15 UNK     1      17.267   9.774   9.466  1.00  0.00     0.098 A 
HETATM   16  C13 UNK     1      16.966   8.460   9.827  1.00  0.00     0.099 A 
HETATM   17  C9  UNK     1      15.676   7.964   9.639  1.00  0.00     0.052 A 
BRANCH  15  18
HETATM   18  O6  UNK     1      18.523  10.269   9.643  1.00  0.00    -0.358 OA
HETATM   19  H10 UNK     1      18.482  11.027  10.251  1.00  0.00     0.217 HD
ENDBRANCH  15  18
BRANCH  16  20
HETATM   20  O5  UNK     1      17.924   7.654  10.364  1.00  0.00    -0.358 OA
HETATM   21  H9  UNK     1      18.767   7.840   9.916  1.00  0.00     0.217 HD
ENDBRANCH  16  20
ENDBRANCH   4  12
BRANCH   7  22
HETATM   22  O2  UNK     1      11.864   6.088   5.392  1.00  0.00    -0.360 OA
HETATM   23  H7  UNK     1      11.485   5.364   4.871  1.00  0.00     0.217 HD
ENDBRANCH   7  22
BRANCH  11  24
HETATM   24  O4  UNK     1       7.564   5.866   7.392  1.00  0.00    -0.361 OA
HETATM   25  H8  UNK     1       7.310   5.485   8.251  1.00  0.00     0.217 HD
ENDBRANCH  11  24
TORSDOF 5
ENDMDL
MODEL 3
REMARK VINA RESULT:      -8.4     15.325     18.747
REMARK  5 active torsions:
REMARK  status: ('A' for Active; 'I' for Inactive)
REMARK    1  A    between atoms: C6_12  and  O2_2 
REMARK    2  A    between atoms: C12_18  and  O4_4 
REMARK    3  A    between atoms: C13_19  and  O5_5 
REMARK    4  A    between atoms: C15_21  and  O6_6 
REMARK    5  A    between atoms: C2_8  and  C5_11 
ROOT
HETATM    1  O1  UNK     1      18.056   9.266  33.875  1.00  0.00    -0.321 OA
HETATM    2  O3  UNK     1      15.219   7.067  31.935  1.00  0.00    -0.286 OA
HETATM    3  C1  UNK     1      15.747   8.994  33.180  1.00  0.00     0.082 A 
HETATM    4  C2  UNK     1      17.507   7.309  32.546  1.00  0.00     0.048 A 
HETATM    5  C3  UNK     1      16.755   9.698  33.838  1.00  0.00     0.094 A 
HETATM    6  C4  UNK     1      16.080   7.730  32.498  1.00  0.00     0.200 A 
HETATM    7  C6  UNK     1      14.437   9.482  33.176  1.00  0.00     0.085 A 
HETATM    8  C7  UNK     1      18.358   8.099  33.218  1.00  0.00     0.159 A 
HETATM    9  C8  UNK     1      16.459  10.894  34.494  1.00  0.00     0.074 A 
HETATM   10  C11 UNK     1      14.144  10.678  33.833  1.00  0.00     0.074 A 
HETATM   11  C12 UNK     1      15.154  11.382  34.490  1.00  0.00     0.071 A 
ENDROOT
BRANCH   4  12
HETATM   12  C5  UNK     1      17.983   6.089  31.873  1.00  0.00    -0.017 A 
HETATM   13  C10 UNK     1      18.721   6.182  30.691  1.00  0.00     0.015 A 
HETATM   14  C14 UNK     1      19.172   5.027  30.054  1.00  0.00     0.040 A 
HETATM   15  C15 UNK     1      18.887   3.774  30.598  1.00  0.00     0.098 A 
HETATM   16  C13 UNK     1      18.151   3.678  31.779  1.00  0.00     0.099 A 
HETATM   17  C9  UNK     1      17.700   4.834  32.416  1.00  0.00     0.052 A 
BRANCH  15  18
HETATM   18  O6  UNK     1      19.332   2.653  29.966  1.00  0.00    -0.358 OA
HETATM   19  H10 UNK     1      19.906   2.913  29.227  1.00  0.00     0.217 HD
ENDBRANCH  15  18
BRANCH  16  20
HETATM   20  O5  UNK     1      17.868   2.460  32.320  1.00  0.00    -0.358 OA
HETATM   21  H9  UNK     1      18.629   2.180  32.858  1.00  0.00     0.217 HD
ENDBRANCH  16  20
ENDBRANCH   4  12
BRANCH   7  22
HETATM   22  O2  UNK     1      13.415   8.836  32.549  1.00  0.00    -0.360 OA
HETATM   23  H7  UNK     1      13.363   9.100  31.618  1.00  0.00     0.217 HD
ENDBRANCH   7  22
BRANCH  11  24
HETATM   24  O4  UNK     1      14.862  12.549  35.129  1.00  0.00    -0.361 OA
HETATM   25  H8  UNK     1      15.573  13.190  34.954  1.00  0.00     0.217 HD
ENDBRANCH  11  24
TORSDOF 5
ENDMDL
MODEL 4
REMARK VINA RESULT:      -8.4      1.442      7.320
REMARK  5 active torsions:
REMARK  status: ('A' for Active; 'I' for Inactive)
REMARK    1  A    between atoms: C6_12  and  O2_2 
REMARK    2  A    between atoms: C12_18  and  O4_4 
REMARK    3  A    between atoms: C13_19  and  O5_5 
REMARK    4  A    between atoms: C15_21  and  O6_6 
REMARK    5  A    between atoms: C2_8  and  C5_11 
ROOT
HETATM    1  O1  UNK     1      19.557   0.436  14.451  1.00  0.00    -0.321 OA
HETATM    2  O3  UNK     1      18.299  -2.042  17.438  1.00  0.00    -0.286 OA
HETATM    3  C1  UNK     1      18.787  -1.756  15.154  1.00  0.00     0.082 A 
HETATM    4  C2  UNK     1      19.098   0.111  16.814  1.00  0.00     0.048 A 
HETATM    5  C3  UNK     1      19.212  -0.862  14.172  1.00  0.00     0.094 A 
HETATM    6  C4  UNK     1      18.696  -1.298  16.552  1.00  0.00     0.200 A 
HETATM    7  C6  UNK     1      18.447  -3.068  14.810  1.00  0.00     0.085 A 
HETATM    8  C7  UNK     1      19.488   0.845  15.760  1.00  0.00     0.159 A 
HETATM    9  C8  UNK     1      19.301  -1.274  12.842  1.00  0.00     0.074 A 
HETATM   10  C11 UNK     1      18.537  -3.477  13.479  1.00  0.00     0.074 A 
HETATM   11  C12 UNK     1      18.963  -2.582  12.497  1.00  0.00     0.071 A 
ENDROOT
BRANCH   4  12
HETATM   12  C5  UNK     1      19.092   0.684  18.170  1.00  0.00    -0.017 A 
HETATM   13  C10 UNK     1      18.723   2.017  18.366  1.00  0.00     0.015 A 
HETATM   14  C14 UNK     1      18.716   2.560  19.650  1.00  0.00     0.040 A 
HETATM   15  C15 UNK     1      19.079   1.772  20.743  1.00  0.00     0.098 A 
HETATM   16  C13 UNK     1      19.448   0.440  20.550  1.00  0.00     0.099 A 
HETATM   17  C9  UNK     1      19.454  -0.103  19.265  1.00  0.00     0.052 A 
BRANCH  15  18
HETATM   18  O6  UNK     1      19.071   2.313  21.992  1.00  0.00    -0.358 OA
HETATM   19  H10 UNK     1      19.969   2.612  22.214  1.00  0.00     0.217 HD
ENDBRANCH  15  18
BRANCH  16  20
HETATM   20  O5  UNK     1      19.802  -0.340  21.609  1.00  0.00    -0.358 OA
HETATM   21  H9  UNK     1      20.706  -0.100  21.877  1.00  0.00     0.217 HD
ENDBRANCH  16  20
ENDBRANCH   4  12
BRANCH   7  22
HETATM   22  O2  UNK     1      18.027  -3.982  15.728  1.00  0.00    -0.360 OA
HETATM   23  H7  UNK     1      17.436  -3.569  16.376  1.00  0.00     0.217 HD
ENDBRANCH   7  22
BRANCH  11  24
HETATM   24  O4  UNK     1      19.049  -2.988  11.200  1.00  0.00    -0.361 OA
HETATM   25  H8  UNK     1      19.817  -3.578  11.104  1.00  0.00     0.217 HD
ENDBRANCH  11  24
TORSDOF 5
ENDMDL
MODEL 5
REMARK VINA RESULT:      -8.2     13.994     17.510
REMARK  5 active torsions:
REMARK  status: ('A' for Active; 'I' for Inactive)
REMARK    1  A    between atoms: C6_12  and  O2_2 
REMARK    2  A    between atoms: C12_18  and  O4_4 
REMARK    3  A    between atoms: C13_19  and  O5_5 
REMARK    4  A    between atoms: C15_21  and  O6_6 
REMARK    5  A    between atoms: C2_8  and  C5_11 
ROOT
HETATM    1  O1  UNK     1      19.056   3.338  29.318  1.00  0.00    -0.321 OA
HETATM    2  O3  UNK     1      18.048   3.434  33.270  1.00  0.00    -0.286 OA
HETATM    3  C1  UNK     1      18.743   2.161  31.417  1.00  0.00     0.082 A 
HETATM    4  C2  UNK     1      18.388   4.648  31.251  1.00  0.00     0.048 A 
HETATM    5  C3  UNK     1      19.067   2.185  30.061  1.00  0.00     0.094 A 
HETATM    6  C4  UNK     1      18.368   3.417  32.089  1.00  0.00     0.200 A 
HETATM    7  C6  UNK     1      18.772   0.956  32.125  1.00  0.00     0.085 A 
HETATM    8  C7  UNK     1      18.724   4.506  29.960  1.00  0.00     0.159 A 
HETATM    9  C8  UNK     1      19.421   1.005  29.405  1.00  0.00     0.074 A 
HETATM   10  C11 UNK     1      19.126  -0.223  31.466  1.00  0.00     0.074 A 
HETATM   11  C12 UNK     1      19.450  -0.198  30.109  1.00  0.00     0.071 A 
ENDROOT
BRANCH   4  12
HETATM   12  C5  UNK     1      18.072   5.974  31.805  1.00  0.00    -0.017 A 
HETATM   13  C10 UNK     1      18.831   6.495  32.855  1.00  0.00     0.015 A 
HETATM   14  C14 UNK     1      18.533   7.752  33.379  1.00  0.00     0.040 A 
HETATM   15  C15 UNK     1      17.473   8.492  32.855  1.00  0.00     0.098 A 
HETATM   16  C13 UNK     1      16.713   7.976  31.805  1.00  0.00     0.099 A 
HETATM   17  C9  UNK     1      17.013   6.718  31.281  1.00  0.00     0.052 A 
BRANCH  15  18
HETATM   18  O6  UNK     1      17.190   9.718  33.376  1.00  0.00    -0.358 OA
HETATM   19  H10 UNK     1      18.007  10.244  33.411  1.00  0.00     0.217 HD
ENDBRANCH  15  18
BRANCH  16  20
HETATM   20  O5  UNK     1      15.678   8.691  31.284  1.00  0.00    -0.358 OA
HETATM   21  H9  UNK     1      14.922   8.624  31.894  1.00  0.00     0.217 HD
ENDBRANCH  16  20
ENDBRANCH   4  12
BRANCH   7  22
HETATM   22  O2  UNK     1      18.467   0.875  33.449  1.00  0.00    -0.360 OA
HETATM   23  H7  UNK     1      19.269   0.750  33.978  1.00  0.00     0.217 HD
ENDBRANCH   7  22
BRANCH  11  24
HETATM   24  O4  UNK     1      19.795  -1.351  29.472  1.00  0.00    -0.361 OA
HETATM   25  H8  UNK     1      19.739  -1.209  28.511  1.00  0.00     0.217 HD
ENDBRANCH  11  24
TORSDOF 5
ENDMDL
MODEL 6
REMARK VINA RESULT:      -8.0     13.338     14.500
REMARK  5 active torsions:
REMARK  status: ('A' for Active; 'I' for Inactive)
REMARK    1  A    between atoms: C6_12  and  O2_2 
REMARK    2  A    between atoms: C12_18  and  O4_4 
REMARK    3  A    between atoms: C13_19  and  O5_5 
REMARK    4  A    between atoms: C15_21  and  O6_6 
REMARK    5  A    between atoms: C2_8  and  C5_11 
ROOT
HETATM    1  O1  UNK     1       6.748   7.269  10.942  1.00  0.00    -0.321 OA
HETATM    2  O3  UNK     1       7.975   3.637   9.545  1.00  0.00    -0.286 OA
HETATM    3  C1  UNK     1       6.561   4.849  10.984  1.00  0.00     0.082 A 
HETATM    4  C2  UNK     1       8.165   6.007   9.425  1.00  0.00     0.048 A 
HETATM    5  C3  UNK     1       6.189   6.116  11.432  1.00  0.00     0.094 A 
HETATM    6  C4  UNK     1       7.599   4.731   9.944  1.00  0.00     0.200 A 
HETATM    7  C6  UNK     1       5.958   3.709  11.521  1.00  0.00     0.085 A 
HETATM    8  C7  UNK     1       7.699   7.146   9.958  1.00  0.00     0.159 A 
HETATM    9  C8  UNK     1       5.212   6.250  12.419  1.00  0.00     0.074 A 
HETATM   10  C11 UNK     1       4.980   3.846  12.508  1.00  0.00     0.074 A 
HETATM   11  C12 UNK     1       4.608   5.113  12.956  1.00  0.00     0.071 A 
ENDROOT
BRANCH   4  12
HETATM   12  C5  UNK     1       9.180   6.033   8.359  1.00  0.00    -0.017 A 
HETATM   13  C10 UNK     1       8.814   6.361   7.052  1.00  0.00     0.015 A 
HETATM   14  C14 UNK     1       9.776   6.388   6.042  1.00  0.00     0.040 A 
HETATM   15  C15 UNK     1      11.105   6.086   6.337  1.00  0.00     0.098 A 
HETATM   16  C13 UNK     1      11.473   5.759   7.642  1.00  0.00     0.099 A 
HETATM   17  C9  UNK     1      10.511   5.733   8.652  1.00  0.00     0.052 A 
BRANCH  15  18
HETATM   18  O6  UNK     1      12.035   6.114   5.342  1.00  0.00    -0.358 OA
HETATM   19  H10 UNK     1      11.580   6.150   4.484  1.00  0.00     0.217 HD
ENDBRANCH  15  18
BRANCH  16  20
HETATM   20  O5  UNK     1      12.769   5.465   7.943  1.00  0.00    -0.358 OA
HETATM   21  H9  UNK     1      12.832   4.511   8.125  1.00  0.00     0.217 HD
ENDBRANCH  16  20
ENDBRANCH   4  12
BRANCH   7  22
HETATM   22  O2  UNK     1       6.282   2.448  11.119  1.00  0.00    -0.360 OA
HETATM   23  H7  UNK     1       7.031   2.467  10.505  1.00  0.00     0.217 HD
ENDBRANCH   7  22
BRANCH  11  24
HETATM   24  O4  UNK     1       3.654   5.240  13.919  1.00  0.00    -0.361 OA
HETATM   25  H8  UNK     1       4.060   5.080  14.788  1.00  0.00     0.217 HD
ENDBRANCH  11  24
TORSDOF 5
ENDMDL
MODEL 7
REMARK VINA RESULT:      -8.0      2.634      6.967
REMARK  5 active torsions:
REMARK  status: ('A' for Active; 'I' for Inactive)
REMARK    1  A    between atoms: C6_12  and  O2_2 
REMARK    2  A    between atoms: C12_18  and  O4_4 
REMARK    3  A    between atoms: C13_19  and  O5_5 
REMARK    4  A    between atoms: C15_21  and  O6_6 
REMARK    5  A    between atoms: C2_8  and  C5_11 
ROOT
HETATM    1  O1  UNK     1      17.951  -3.375  14.524  1.00  0.00    -0.321 OA
HETATM    2  O3  UNK     1      21.067  -2.580  17.035  1.00  0.00    -0.286 OA
HETATM    3  C1  UNK     1      20.036  -4.082  15.544  1.00  0.00     0.082 A 
HETATM    4  C2  UNK     1      19.052  -1.815  16.025  1.00  0.00     0.048 A 
HETATM    5  C3  UNK     1      18.943  -4.304  14.708  1.00  0.00     0.094 A 
HETATM    6  C4  UNK     1      20.139  -2.802  16.269  1.00  0.00     0.200 A 
HETATM    7  C6  UNK     1      21.018  -5.066  15.694  1.00  0.00     0.085 A 
HETATM    8  C7  UNK     1      18.068  -2.178  15.188  1.00  0.00     0.159 A 
HETATM    9  C8  UNK     1      18.824  -5.510  14.017  1.00  0.00     0.074 A 
HETATM   10  C11 UNK     1      20.897  -6.271  15.001  1.00  0.00     0.074 A 
HETATM   11  C12 UNK     1      19.802  -6.493  14.164  1.00  0.00     0.071 A 
ENDROOT
BRANCH   4  12
HETATM   12  C5  UNK     1      19.052  -0.484  16.654  1.00  0.00    -0.017 A 
HETATM   13  C10 UNK     1      18.967  -0.364  18.043  1.00  0.00     0.015 A 
HETATM   14  C14 UNK     1      18.967   0.896  18.639  1.00  0.00     0.040 A 
HETATM   15  C15 UNK     1      19.053   2.042  17.847  1.00  0.00     0.098 A 
HETATM   16  C13 UNK     1      19.139   1.926  16.459  1.00  0.00     0.099 A 
HETATM   17  C9  UNK     1      19.139   0.664  15.864  1.00  0.00     0.052 A 
BRANCH  15  18
HETATM   18  O6  UNK     1      19.051   3.268  18.440  1.00  0.00    -0.358 OA
HETATM   19  H10 UNK     1      19.970   3.540  18.606  1.00  0.00     0.217 HD
ENDBRANCH  15  18
BRANCH  16  20
HETATM   20  O5  UNK     1      19.226   3.037  15.677  1.00  0.00    -0.358 OA
HETATM   21  H9  UNK     1      19.537   3.776  16.227  1.00  0.00     0.217 HD
ENDBRANCH  16  20
ENDBRANCH   4  12
BRANCH   7  22
HETATM   22  O2  UNK     1      22.106  -4.901  16.496  1.00  0.00    -0.360 OA
HETATM   23  H7  UNK     1      22.845  -5.446  16.185  1.00  0.00     0.217 HD
ENDBRANCH   7  22
BRANCH  11  24
HETATM   24  O4  UNK     1      19.690  -7.671  13.491  1.00  0.00    -0.361 OA
HETATM   25  H8  UNK     1      19.189  -8.301  14.039  1.00  0.00     0.217 HD
ENDBRANCH  11  24
TORSDOF 5
ENDMDL
MODEL 8
REMARK VINA RESULT:      -8.0     14.445     18.790
REMARK  5 active torsions:
REMARK  status: ('A' for Active; 'I' for Inactive)
REMARK    1  A    between atoms: C6_12  and  O2_2 
REMARK    2  A    between atoms: C12_18  and  O4_4 
REMARK    3  A    between atoms: C13_19  and  O5_5 
REMARK    4  A    between atoms: C15_21  and  O6_6 
REMARK    5  A    between atoms: C2_8  and  C5_11 
ROOT
HETATM    1  O1  UNK     1      18.407   4.023  33.581  1.00  0.00    -0.321 OA
HETATM    2  O3  UNK     1      19.081   6.796  30.665  1.00  0.00    -0.286 OA
HETATM    3  C1  UNK     1      18.708   4.541  31.229  1.00  0.00     0.082 A 
HETATM    4  C2  UNK     1      18.741   6.352  32.979  1.00  0.00     0.048 A 
HETATM    5  C3  UNK     1      18.491   3.636  32.268  1.00  0.00     0.094 A 
HETATM    6  C4  UNK     1      18.859   5.973  31.543  1.00  0.00     0.200 A 
HETATM    7  C6  UNK     1      18.786   4.090  29.909  1.00  0.00     0.085 A 
HETATM    8  C7  UNK     1      18.528   5.362  33.859  1.00  0.00     0.159 A 
HETATM    9  C8  UNK     1      18.350   2.276  31.992  1.00  0.00     0.074 A 
HETATM   10  C11 UNK     1      18.644   2.729  29.636  1.00  0.00     0.074 A 
HETATM   11  C12 UNK     1      18.427   1.824  30.675  1.00  0.00     0.071 A 
ENDROOT
BRANCH   4  12
HETATM   12  C5  UNK     1      18.833   7.751  33.427  1.00  0.00    -0.017 A 
HETATM   13  C10 UNK     1      20.029   8.240  33.958  1.00  0.00     0.015 A 
HETATM   14  C14 UNK     1      20.116   9.566  34.382  1.00  0.00     0.040 A 
HETATM   15  C15 UNK     1      19.008  10.406  34.275  1.00  0.00     0.098 A 
HETATM   16  C13 UNK     1      17.813   9.921  33.744  1.00  0.00     0.099 A 
HETATM   17  C9  UNK     1      17.726   8.595  33.320  1.00  0.00     0.052 A 
BRANCH  15  18
HETATM   18  O6  UNK     1      19.105  11.699  34.693  1.00  0.00    -0.358 OA
HETATM   19  H10 UNK     1      19.425  12.247  33.957  1.00  0.00     0.217 HD
ENDBRANCH  15  18
BRANCH  16  20
HETATM   20  O5  UNK     1      16.725  10.733  33.633  1.00  0.00    -0.358 OA
HETATM   21  H9  UNK     1      16.266  10.518  32.803  1.00  0.00     0.217 HD
ENDBRANCH  16  20
ENDBRANCH   4  12
BRANCH   7  22
HETATM   22  O2  UNK     1      18.995   4.930  28.857  1.00  0.00    -0.360 OA
HETATM   23  H7  UNK     1      19.469   5.725  29.143  1.00  0.00     0.217 HD
ENDBRANCH   7  22
BRANCH  11  24
HETATM   24  O4  UNK     1      18.289   0.497  30.402  1.00  0.00    -0.361 OA
HETATM   25  H8  UNK     1      17.356   0.313  30.195  1.00  0.00     0.217 HD
ENDBRANCH  11  24
TORSDOF 5
ENDMDL
MODEL 9
REMARK VINA RESULT:      -7.9     14.746     18.053
REMARK  5 active torsions:
REMARK  status: ('A' for Active; 'I' for Inactive)
REMARK    1  A    between atoms: C6_12  and  O2_2 
REMARK    2  A    between atoms: C12_18  and  O4_4 
REMARK    3  A    between atoms: C13_19  and  O5_5 
REMARK    4  A    between atoms: C15_21  and  O6_6 
REMARK    5  A    between atoms: C2_8  and  C5_11 
ROOT
HETATM    1  O1  UNK     1      18.203   2.409  34.012  1.00  0.00    -0.321 OA
HETATM    2  O3  UNK     1      18.638   4.522  30.549  1.00  0.00    -0.286 OA
HETATM    3  C1  UNK     1      18.672   2.432  31.631  1.00  0.00     0.082 A 
HETATM    4  C2  UNK     1      18.121   4.553  32.873  1.00  0.00     0.048 A 
HETATM    5  C3  UNK     1      18.522   1.763  32.845  1.00  0.00     0.094 A 
HETATM    6  C4  UNK     1      18.487   3.894  31.588  1.00  0.00     0.200 A 
HETATM    7  C6  UNK     1      18.998   1.721  30.473  1.00  0.00     0.085 A 
HETATM    8  C7  UNK     1      18.012   3.768  33.956  1.00  0.00     0.159 A 
HETATM    9  C8  UNK     1      18.698   0.380  32.908  1.00  0.00     0.074 A 
HETATM   10  C11 UNK     1      19.173   0.339  30.538  1.00  0.00     0.074 A 
HETATM   11  C12 UNK     1      19.023  -0.331  31.753  1.00  0.00     0.071 A 
ENDROOT
BRANCH   4  12
HETATM   12  C5  UNK     1      17.869   6.000  32.963  1.00  0.00    -0.017 A 
HETATM   13  C10 UNK     1      18.512   6.764  33.940  1.00  0.00     0.015 A 
HETATM   14  C14 UNK     1      18.274   8.135  34.025  1.00  0.00     0.040 A 
HETATM   15  C15 UNK     1      17.392   8.747  33.134  1.00  0.00     0.098 A 
HETATM   16  C13 UNK     1      16.750   7.986  32.156  1.00  0.00     0.099 A 
HETATM   17  C9  UNK     1      16.988   6.614  32.071  1.00  0.00     0.052 A 
BRANCH  15  18
HETATM   18  O6  UNK     1      17.166  10.087  33.227  1.00  0.00    -0.358 OA
HETATM   19  H10 UNK     1      16.410  10.239  33.819  1.00  0.00     0.217 HD
ENDBRANCH  15  18
BRANCH  16  20
HETATM   20  O5  UNK     1      15.888   8.573  31.279  1.00  0.00    -0.358 OA
HETATM   21  H9  UNK     1      16.068   9.529  31.267  1.00  0.00     0.217 HD
ENDBRANCH  16  20
ENDBRANCH   4  12
BRANCH   7  22
HETATM   22  O2  UNK     1      19.155   2.324  29.261  1.00  0.00    -0.360 OA
HETATM   23  H7  UNK     1      19.129   1.669  28.547  1.00  0.00     0.217 HD
ENDBRANCH   7  22
BRANCH  11  24
HETATM   24  O4  UNK     1      19.195  -1.680  31.811  1.00  0.00    -0.361 OA
HETATM   25  H8  UNK     1      19.713  -1.965  31.038  1.00  0.00     0.217 HD
ENDBRANCH  11  24
TORSDOF 5
ENDMDL
MODEL 10
REMARK VINA RESULT:      -7.9     14.772     18.724
REMARK  5 active torsions:
REMARK  status: ('A' for Active; 'I' for Inactive)
REMARK    1  A    between atoms: C6_12  and  O2_2 
REMARK    2  A    between atoms: C12_18  and  O4_4 
REMARK    3  A    between atoms: C13_19  and  O5_5 
REMARK    4  A    between atoms: C15_21  and  O6_6 
REMARK    5  A    between atoms: C2_8  and  C5_11 
ROOT
HETATM    1  O1  UNK     1      18.349   4.534  33.766  1.00  0.00    -0.321 OA
HETATM    2  O3  UNK     1      18.363   0.720  32.319  1.00  0.00    -0.286 OA
HETATM    3  C1  UNK     1      18.524   3.025  31.874  1.00  0.00     0.082 A 
HETATM    4  C2  UNK     1      18.236   2.150  34.217  1.00  0.00     0.048 A 
HETATM    5  C3  UNK     1      18.500   4.307  32.422  1.00  0.00     0.094 A 
HETATM    6  C4  UNK     1      18.377   1.859  32.764  1.00  0.00     0.200 A 
HETATM    7  C6  UNK     1      18.681   2.853  30.495  1.00  0.00     0.085 A 
HETATM    8  C7  UNK     1      18.234   3.440  34.588  1.00  0.00     0.159 A 
HETATM    9  C8  UNK     1      18.633   5.424  31.596  1.00  0.00     0.074 A 
HETATM   10  C11 UNK     1      18.813   3.972  29.672  1.00  0.00     0.074 A 
HETATM   11  C12 UNK     1      18.790   5.255  30.221  1.00  0.00     0.071 A 
ENDROOT
BRANCH   4  12
HETATM   12  C5  UNK     1      18.120   1.078  35.219  1.00  0.00    -0.017 A 
HETATM   13  C10 UNK     1      17.516   1.334  36.452  1.00  0.00     0.015 A 
HETATM   14  C14 UNK     1      17.405   0.318  37.402  1.00  0.00     0.040 A 
HETATM   15  C15 UNK     1      17.899  -0.956  37.121  1.00  0.00     0.098 A 
HETATM   16  C13 UNK     1      18.503  -1.214  35.889  1.00  0.00     0.099 A 
HETATM   17  C9  UNK     1      18.613  -0.198  34.940  1.00  0.00     0.052 A 
BRANCH  15  18
HETATM   18  O6  UNK     1      17.787  -1.939  38.056  1.00  0.00    -0.358 OA
HETATM   19  H10 UNK     1      18.529  -2.559  37.954  1.00  0.00     0.217 HD
ENDBRANCH  15  18
BRANCH  16  20
HETATM   20  O5  UNK     1      18.987  -2.455  35.603  1.00  0.00    -0.358 OA
HETATM   21  H9  UNK     1      19.794  -2.352  35.071  1.00  0.00     0.217 HD
ENDBRANCH  16  20
ENDBRANCH   4  12
BRANCH   7  22
HETATM   22  O2  UNK     1      18.712   1.625  29.907  1.00  0.00    -0.360 OA
HETATM   23  H7  UNK     1      18.336   1.664  29.015  1.00  0.00     0.217 HD
ENDBRANCH   7  22
BRANCH  11  24
HETATM   24  O4  UNK     1      18.920   6.342  29.412  1.00  0.00    -0.361 OA
HETATM   25  H8  UNK     1      18.992   7.140  29.966  1.00  0.00     0.217 HD
ENDBRANCH  11  24
TORSDOF 5
ENDMDL
