MODEL 1
REMARK VINA RESULT:      -7.5      0.000      0.000
REMARK  2 active torsions:
REMARK  status: ('A' for Active; 'I' for Inactive)
REMARK       I    between atoms: C10_15  and  N1_4 
REMARK    1  A    between atoms: N1_4  and  N2_5 
REMARK    2  A    between atoms: C10_15  and  C4_9 
ROOT
HETATM    1  O1  UNK     1      18.895   0.479  32.222  1.00  0.00    -0.274 OA
HETATM    2  O2  UNK     1      17.980   2.570  32.286  1.00  0.00    -0.259 OA
HETATM    3  C1  UNK     1      19.891  -0.335  30.158  1.00  0.00    -0.001 A 
HETATM    4  C2  UNK     1      19.556  -0.531  31.494  1.00  0.00     0.089 A 
HETATM    5  C3  UNK     1      19.548   0.929  29.526  1.00  0.00     0.037 A 
HETATM    6  C4  UNK     1      18.920   1.885  30.222  1.00  0.00     0.109 A 
HETATM    7  C5  UNK     1      20.545  -1.359  29.469  1.00  0.00     0.014 A 
HETATM    8  C6  UNK     1      19.855  -1.718  32.159  1.00  0.00     0.038 A 
HETATM    9  C7  UNK     1      18.554   1.698  31.644  1.00  0.00     0.304 A 
HETATM   10  C8  UNK     1      20.852  -2.556  30.123  1.00  0.00     0.001 A 
HETATM   11  C9  UNK     1      20.508  -2.734  31.465  1.00  0.00     0.003 A 
ENDROOT
BRANCH   6  12
HETATM   12  C10 UNK     1      18.617   3.123  29.496  1.00  0.00     0.271 C 
HETATM   13  O3  UNK     1      17.934   3.104  28.472  1.00  0.00    -0.266 OA
HETATM   14  N1  UNK     1      19.173   4.238  30.091  1.00  0.00    -0.289 N 
HETATM   15  H6  UNK     1      19.752   4.199  30.923  1.00  0.00     0.183 HD
BRANCH  14  16
HETATM   16  N2  UNK     1      18.970   5.478  29.517  1.00  0.00    -0.247 NA
HETATM   17  H7  UNK     1      18.460   6.039  30.199  1.00  0.00     0.143 HD
HETATM   18  H8  UNK     1      18.332   5.340  28.734  1.00  0.00     0.143 HD
ENDBRANCH  14  16
ENDBRANCH   6  12
TORSDOF 2
ENDMDL
MODEL 2
REMARK VINA RESULT:      -7.4      2.917      5.391
REMARK  2 active torsions:
REMARK  status: ('A' for Active; 'I' for Inactive)
REMARK       I    between atoms: C10_15  and  N1_4 
REMARK    1  A    between atoms: N1_4  and  N2_5 
REMARK    2  A    between atoms: C10_15  and  C4_9 
ROOT
HETATM    1  O1  UNK     1      18.202   2.859  32.739  1.00  0.00    -0.274 OA
HETATM    2  O2  UNK     1      18.428   0.681  32.089  1.00  0.00    -0.259 OA
HETATM    3  C1  UNK     1      18.545   4.638  31.117  1.00  0.00    -0.001 A 
HETATM    4  C2  UNK     1      18.240   4.229  32.412  1.00  0.00     0.089 A 
HETATM    5  C3  UNK     1      18.822   3.628  30.107  1.00  0.00     0.037 A 
HETATM    6  C4  UNK     1      18.785   2.328  30.424  1.00  0.00     0.109 A 
HETATM    7  C5  UNK     1      18.573   6.005  30.830  1.00  0.00     0.014 A 
HETATM    8  C6  UNK     1      17.966   5.144  33.425  1.00  0.00     0.038 A 
HETATM    9  C7  UNK     1      18.463   1.870  31.794  1.00  0.00     0.304 A 
HETATM   10  C8  UNK     1      18.300   6.935  31.837  1.00  0.00     0.001 A 
HETATM   11  C9  UNK     1      17.997   6.506  33.131  1.00  0.00     0.003 A 
ENDROOT
BRANCH   6  12
HETATM   12  C10 UNK     1      19.079   1.387  29.338  1.00  0.00     0.271 C 
HETATM   13  O3  UNK     1      18.397   1.371  28.314  1.00  0.00    -0.266 OA
HETATM   14  N1  UNK     1      20.161   0.575  29.616  1.00  0.00    -0.289 N 
HETATM   15  H6  UNK     1      20.677   0.609  30.489  1.00  0.00     0.183 HD
BRANCH  14  16
HETATM   16  N2  UNK     1      20.555  -0.362  28.681  1.00  0.00    -0.247 NA
HETATM   17  H7  UNK     1      20.076  -1.231  28.916  1.00  0.00     0.143 HD
HETATM   18  H8  UNK     1      21.546  -0.536  28.838  1.00  0.00     0.143 HD
ENDBRANCH  14  16
ENDBRANCH   6  12
TORSDOF 2
ENDMDL
MODEL 3
REMARK VINA RESULT:      -7.3      3.067      4.274
REMARK  2 active torsions:
REMARK  status: ('A' for Active; 'I' for Inactive)
REMARK       I    between atoms: C10_15  and  N1_4 
REMARK    1  A    between atoms: N1_4  and  N2_5 
REMARK    2  A    between atoms: C10_15  and  C4_9 
ROOT
HETATM    1  O1  UNK     1      18.909   1.452  31.279  1.00  0.00    -0.274 OA
HETATM    2  O2  UNK     1      17.746   2.564  32.900  1.00  0.00    -0.259 OA
HETATM    3  C1  UNK     1      19.437  -0.903  31.580  1.00  0.00    -0.001 A 
HETATM    4  C2  UNK     1      19.496   0.258  30.815  1.00  0.00     0.089 A 
HETATM    5  C3  UNK     1      18.758  -0.863  32.866  1.00  0.00     0.037 A 
HETATM    6  C4  UNK     1      18.202   0.274  33.302  1.00  0.00     0.109 A 
HETATM    7  C5  UNK     1      20.031  -2.067  31.087  1.00  0.00     0.014 A 
HETATM    8  C6  UNK     1      20.132   0.289  29.576  1.00  0.00     0.038 A 
HETATM    9  C7  UNK     1      18.254   1.520  32.505  1.00  0.00     0.304 A 
HETATM   10  C8  UNK     1      20.672  -2.051  29.844  1.00  0.00     0.001 A 
HETATM   11  C9  UNK     1      20.722  -0.876  29.091  1.00  0.00     0.003 A 
ENDROOT
BRANCH   6  12
HETATM   12  C10 UNK     1      17.541   0.213  34.610  1.00  0.00     0.271 C 
HETATM   13  O3  UNK     1      18.182  -0.039  35.630  1.00  0.00    -0.266 OA
HETATM   14  N1  UNK     1      16.186   0.461  34.534  1.00  0.00    -0.289 N 
HETATM   15  H6  UNK     1      15.697   0.639  33.662  1.00  0.00     0.183 HD
BRANCH  14  16
HETATM   16  N2  UNK     1      15.432   0.438  35.691  1.00  0.00    -0.247 NA
HETATM   17  H7  UNK     1      15.003   1.359  35.781  1.00  0.00     0.143 HD
HETATM   18  H8  UNK     1      16.086   0.355  36.467  1.00  0.00     0.143 HD
ENDBRANCH  14  16
ENDBRANCH   6  12
TORSDOF 2
ENDMDL
MODEL 4
REMARK VINA RESULT:      -7.2      6.398      7.180
REMARK  2 active torsions:
REMARK  status: ('A' for Active; 'I' for Inactive)
REMARK       I    between atoms: C10_15  and  N1_4 
REMARK    1  A    between atoms: N1_4  and  N2_5 
REMARK    2  A    between atoms: C10_15  and  C4_9 
ROOT
HETATM    1  O1  UNK     1      18.193   6.939  33.720  1.00  0.00    -0.274 OA
HETATM    2  O2  UNK     1      16.276   7.599  34.773  1.00  0.00    -0.259 OA
HETATM    3  C1  UNK     1      18.173   6.556  31.319  1.00  0.00    -0.001 A 
HETATM    4  C2  UNK     1      18.856   6.578  32.531  1.00  0.00     0.089 A 
HETATM    5  C3  UNK     1      16.764   6.914  31.299  1.00  0.00     0.037 A 
HETATM    6  C4  UNK     1      16.138   7.256  32.432  1.00  0.00     0.109 A 
HETATM    7  C5  UNK     1      18.865   6.192  30.161  1.00  0.00     0.014 A 
HETATM    8  C6  UNK     1      20.206   6.245  32.618  1.00  0.00     0.038 A 
HETATM    9  C7  UNK     1      16.844   7.286  33.733  1.00  0.00     0.304 A 
HETATM   10  C8  UNK     1      20.220   5.857  30.233  1.00  0.00     0.001 A 
HETATM   11  C9  UNK     1      20.889   5.884  31.459  1.00  0.00     0.003 A 
ENDROOT
BRANCH   6  12
HETATM   12  C10 UNK     1      14.717   7.600  32.310  1.00  0.00     0.271 C 
HETATM   13  O3  UNK     1      13.903   6.779  31.887  1.00  0.00    -0.266 OA
HETATM   14  N1  UNK     1      14.445   8.892  32.713  1.00  0.00    -0.289 N 
HETATM   15  H6  UNK     1      15.158   9.540  33.032  1.00  0.00     0.183 HD
BRANCH  14  16
HETATM   16  N2  UNK     1      13.145   9.355  32.654  1.00  0.00    -0.247 NA
HETATM   17  H7  UNK     1      12.975   9.864  33.521  1.00  0.00     0.143 HD
HETATM   18  H8  UNK     1      12.539   8.537  32.686  1.00  0.00     0.143 HD
ENDBRANCH  14  16
ENDBRANCH   6  12
TORSDOF 2
ENDMDL
MODEL 5
REMARK VINA RESULT:      -7.1     21.840     23.566
REMARK  2 active torsions:
REMARK  status: ('A' for Active; 'I' for Inactive)
REMARK       I    between atoms: C10_15  and  N1_4 
REMARK    1  A    between atoms: N1_4  and  N2_5 
REMARK    2  A    between atoms: C10_15  and  C4_9 
ROOT
HETATM    1  O1  UNK     1      12.245   7.522   9.889  1.00  0.00    -0.274 OA
HETATM    2  O2  UNK     1      14.079   7.716  11.239  1.00  0.00    -0.259 OA
HETATM    3  C1  UNK     1      12.393   6.217   7.843  1.00  0.00    -0.001 A 
HETATM    4  C2  UNK     1      11.655   7.008   8.718  1.00  0.00     0.089 A 
HETATM    5  C3  UNK     1      13.784   5.930   8.157  1.00  0.00     0.037 A 
HETATM    6  C4  UNK     1      14.340   6.421   9.271  1.00  0.00     0.109 A 
HETATM    7  C5  UNK     1      11.773   5.726   6.691  1.00  0.00     0.014 A 
HETATM    8  C6  UNK     1      10.320   7.321   8.475  1.00  0.00     0.038 A 
HETATM    9  C7  UNK     1      13.574   7.264  10.217  1.00  0.00     0.304 A 
HETATM   10  C8  UNK     1      10.434   6.032   6.434  1.00  0.00     0.001 A 
HETATM   11  C9  UNK     1       9.709   6.827   7.325  1.00  0.00     0.003 A 
ENDROOT
BRANCH   6  12
HETATM   12  C10 UNK     1      15.747   6.076   9.501  1.00  0.00     0.271 C 
HETATM   13  O3  UNK     1      16.141   4.917   9.378  1.00  0.00    -0.266 OA
HETATM   14  N1  UNK     1      16.513   7.170   9.852  1.00  0.00    -0.289 N 
HETATM   15  H6  UNK     1      16.134   8.105   9.966  1.00  0.00     0.183 HD
BRANCH  14  16
HETATM   16  N2  UNK     1      17.861   6.995  10.098  1.00  0.00    -0.247 NA
HETATM   17  H7  UNK     1      18.300   7.910   9.992  1.00  0.00     0.143 HD
HETATM   18  H8  UNK     1      18.226   6.418   9.343  1.00  0.00     0.143 HD
ENDBRANCH  14  16
ENDBRANCH   6  12
TORSDOF 2
ENDMDL
MODEL 6
REMARK VINA RESULT:      -7.1      1.252      2.362
REMARK  2 active torsions:
REMARK  status: ('A' for Active; 'I' for Inactive)
REMARK       I    between atoms: C10_15  and  N1_4 
REMARK    1  A    between atoms: N1_4  and  N2_5 
REMARK    2  A    between atoms: C10_15  and  C4_9 
ROOT
HETATM    1  O1  UNK     1      18.958   0.758  28.531  1.00  0.00    -0.274 OA
HETATM    2  O2  UNK     1      18.032   2.819  28.192  1.00  0.00    -0.259 OA
HETATM    3  C1  UNK     1      19.700   0.126  30.759  1.00  0.00    -0.001 A 
HETATM    4  C2  UNK     1      19.535  -0.179  29.412  1.00  0.00     0.089 A 
HETATM    5  C3  UNK     1      19.265   1.427  31.244  1.00  0.00     0.037 A 
HETATM    6  C4  UNK     1      18.718   2.313  30.404  1.00  0.00     0.109 A 
HETATM    7  C5  UNK     1      20.276  -0.828  31.601  1.00  0.00     0.014 A 
HETATM    8  C6  UNK     1      19.930  -1.405  28.883  1.00  0.00     0.038 A 
HETATM    9  C7  UNK     1      18.533   2.010  28.966  1.00  0.00     0.304 A 
HETATM   10  C8  UNK     1      20.677  -2.064  31.085  1.00  0.00     0.001 A 
HETATM   11  C9  UNK     1      20.504  -2.352  29.730  1.00  0.00     0.003 A 
ENDROOT
BRANCH   6  12
HETATM   12  C10 UNK     1      18.313   3.597  30.987  1.00  0.00     0.271 C 
HETATM   13  O3  UNK     1      17.485   3.644  31.897  1.00  0.00    -0.266 OA
HETATM   14  N1  UNK     1      18.953   4.672  30.404  1.00  0.00    -0.289 N 
HETATM   15  H6  UNK     1      19.610   4.583  29.636  1.00  0.00     0.183 HD
BRANCH  14  16
HETATM   16  N2  UNK     1      18.669   5.947  30.853  1.00  0.00    -0.247 NA
HETATM   17  H7  UNK     1      19.560   6.375  31.104  1.00  0.00     0.143 HD
HETATM   18  H8  UNK     1      18.152   5.844  31.725  1.00  0.00     0.143 HD
ENDBRANCH  14  16
ENDBRANCH   6  12
TORSDOF 2
ENDMDL
MODEL 7
REMARK VINA RESULT:      -7.0      8.547     10.620
REMARK  2 active torsions:
REMARK  status: ('A' for Active; 'I' for Inactive)
REMARK       I    between atoms: C10_15  and  N1_4 
REMARK    1  A    between atoms: N1_4  and  N2_5 
REMARK    2  A    between atoms: C10_15  and  C4_9 
ROOT
HETATM    1  O1  UNK     1      20.453  -8.334  35.393  1.00  0.00    -0.274 OA
HETATM    2  O2  UNK     1      20.635  -6.367  34.246  1.00  0.00    -0.259 OA
HETATM    3  C1  UNK     1      19.663  -8.315  37.693  1.00  0.00    -0.001 A 
HETATM    4  C2  UNK     1      20.119  -9.016  36.581  1.00  0.00     0.089 A 
HETATM    5  C3  UNK     1      19.535  -6.869  37.610  1.00  0.00     0.037 A 
HETATM    6  C4  UNK     1      19.854  -6.227  36.479  1.00  0.00     0.109 A 
HETATM    7  C5  UNK     1      19.342  -9.026  38.852  1.00  0.00     0.014 A 
HETATM    8  C6  UNK     1      20.266 -10.401  36.595  1.00  0.00     0.038 A 
HETATM    9  C7  UNK     1      20.342  -6.951  35.284  1.00  0.00     0.304 A 
HETATM   10  C8  UNK     1      19.483 -10.416  38.881  1.00  0.00     0.001 A 
HETATM   11  C9  UNK     1      19.943 -11.102  37.755  1.00  0.00     0.003 A 
ENDROOT
BRANCH   6  12
HETATM   12  C10 UNK     1      19.692  -4.769  36.494  1.00  0.00     0.271 C 
HETATM   13  O3  UNK     1      20.667  -4.024  36.404  1.00  0.00    -0.266 OA
HETATM   14  N1  UNK     1      18.372  -4.381  36.615  1.00  0.00    -0.289 N 
HETATM   15  H6  UNK     1      17.603  -5.036  36.712  1.00  0.00     0.183 HD
BRANCH  14  16
HETATM   16  N2  UNK     1      18.067  -3.034  36.642  1.00  0.00    -0.247 NA
HETATM   17  H7  UNK     1      18.779  -2.583  37.217  1.00  0.00     0.143 HD
HETATM   18  H8  UNK     1      17.192  -2.940  37.155  1.00  0.00     0.143 HD
ENDBRANCH  14  16
ENDBRANCH   6  12
TORSDOF 2
ENDMDL
MODEL 8
REMARK VINA RESULT:      -7.0      3.840      5.402
REMARK  2 active torsions:
REMARK  status: ('A' for Active; 'I' for Inactive)
REMARK       I    between atoms: C10_15  and  N1_4 
REMARK    1  A    between atoms: N1_4  and  N2_5 
REMARK    2  A    between atoms: C10_15  and  C4_9 
ROOT
HETATM    1  O1  UNK     1      18.722   0.649  32.528  1.00  0.00    -0.274 OA
HETATM    2  O2  UNK     1      18.262   0.461  34.758  1.00  0.00    -0.259 OA
HETATM    3  C1  UNK     1      19.877  -1.159  31.383  1.00  0.00    -0.001 A 
HETATM    4  C2  UNK     1      19.277   0.097  31.357  1.00  0.00     0.089 A 
HETATM    5  C3  UNK     1      19.919  -1.892  32.638  1.00  0.00     0.037 A 
HETATM    6  C4  UNK     1      19.390  -1.362  33.748  1.00  0.00     0.109 A 
HETATM    7  C5  UNK     1      20.416  -1.673  30.201  1.00  0.00     0.014 A 
HETATM    8  C6  UNK     1      19.204   0.851  30.188  1.00  0.00     0.038 A 
HETATM    9  C7  UNK     1      18.748  -0.028  33.744  1.00  0.00     0.304 A 
HETATM   10  C8  UNK     1      20.350  -0.928  29.021  1.00  0.00     0.001 A 
HETATM   11  C9  UNK     1      19.745   0.331  29.014  1.00  0.00     0.003 A 
ENDROOT
BRANCH   6  12
HETATM   12  C10 UNK     1      19.483  -2.178  34.964  1.00  0.00     0.271 C 
HETATM   13  O3  UNK     1      20.525  -2.766  35.252  1.00  0.00    -0.266 OA
HETATM   14  N1  UNK     1      18.309  -2.187  35.690  1.00  0.00    -0.289 N 
HETATM   15  H6  UNK     1      17.465  -1.704  35.396  1.00  0.00     0.183 HD
BRANCH  14  16
HETATM   16  N2  UNK     1      18.249  -2.914  36.862  1.00  0.00    -0.247 NA
HETATM   17  H7  UNK     1      18.266  -2.241  37.628  1.00  0.00     0.143 HD
HETATM   18  H8  UNK     1      19.120  -3.438  36.929  1.00  0.00     0.143 HD
ENDBRANCH  14  16
ENDBRANCH   6  12
TORSDOF 2
ENDMDL
MODEL 9
REMARK VINA RESULT:      -7.0     12.815     14.166
REMARK  2 active torsions:
REMARK  status: ('A' for Active; 'I' for Inactive)
REMARK       I    between atoms: C10_15  and  N1_4 
REMARK    1  A    between atoms: N1_4  and  N2_5 
REMARK    2  A    between atoms: C10_15  and  C4_9 
ROOT
HETATM    1  O1  UNK     1      19.255   0.709  15.725  1.00  0.00    -0.274 OA
HETATM    2  O2  UNK     1      19.299   2.136  17.509  1.00  0.00    -0.259 OA
HETATM    3  C1  UNK     1      18.817  -1.655  16.089  1.00  0.00    -0.001 A 
HETATM    4  C2  UNK     1      19.089  -0.598  15.226  1.00  0.00     0.089 A 
HETATM    5  C3  UNK     1      18.704  -1.388  17.514  1.00  0.00     0.037 A 
HETATM    6  C4  UNK     1      18.863  -0.144  17.983  1.00  0.00     0.109 A 
HETATM    7  C5  UNK     1      18.659  -2.937  15.557  1.00  0.00     0.014 A 
HETATM    8  C6  UNK     1      19.211  -0.786  13.851  1.00  0.00     0.038 A 
HETATM    9  C7  UNK     1      19.154   0.995  17.084  1.00  0.00     0.304 A 
HETATM   10  C8  UNK     1      18.777  -3.140  14.179  1.00  0.00     0.001 A 
HETATM   11  C9  UNK     1      19.052  -2.067  13.328  1.00  0.00     0.003 A 
ENDROOT
BRANCH   6  12
HETATM   12  C10 UNK     1      18.731   0.024  19.435  1.00  0.00     0.271 C 
HETATM   13  O3  UNK     1      17.661   0.365  19.937  1.00  0.00    -0.266 OA
HETATM   14  N1  UNK     1      19.907  -0.238  20.109  1.00  0.00    -0.289 N 
HETATM   15  H6  UNK     1      20.774  -0.492  19.646  1.00  0.00     0.183 HD
BRANCH  14  16
HETATM   16  N2  UNK     1      19.933  -0.121  21.485  1.00  0.00    -0.247 NA
HETATM   17  H7  UNK     1      19.898   0.876  21.696  1.00  0.00     0.143 HD
HETATM   18  H8  UNK     1      20.850  -0.441  21.791  1.00  0.00     0.143 HD
ENDBRANCH  14  16
ENDBRANCH   6  12
TORSDOF 2
ENDMDL
MODEL 10
REMARK VINA RESULT:      -6.9      9.877     11.144
REMARK  2 active torsions:
REMARK  status: ('A' for Active; 'I' for Inactive)
REMARK       I    between atoms: C10_15  and  N1_4 
REMARK    1  A    between atoms: N1_4  and  N2_5 
REMARK    2  A    between atoms: C10_15  and  C4_9 
ROOT
HETATM    1  O1  UNK     1      21.307  -7.587  35.879  1.00  0.00    -0.274 OA
HETATM    2  O2  UNK     1      19.786  -7.141  34.233  1.00  0.00    -0.259 OA
HETATM    3  C1  UNK     1      20.584  -7.636  38.200  1.00  0.00    -0.001 A 
HETATM    4  C2  UNK     1      21.591  -7.760  37.248  1.00  0.00     0.089 A 
HETATM    5  C3  UNK     1      19.233  -7.327  37.759  1.00  0.00     0.037 A 
HETATM    6  C4  UNK     1      18.968  -7.163  36.457  1.00  0.00     0.109 A 
HETATM    7  C5  UNK     1      20.905  -7.814  39.548  1.00  0.00     0.014 A 
HETATM    8  C6  UNK     1      22.905  -8.054  37.604  1.00  0.00     0.038 A 
HETATM    9  C7  UNK     1      20.024  -7.290  35.427  1.00  0.00     0.304 A 
HETATM   10  C8  UNK     1      22.219  -8.110  39.920  1.00  0.00     0.001 A 
HETATM   11  C9  UNK     1      23.217  -8.230  38.950  1.00  0.00     0.003 A 
ENDROOT
BRANCH   6  12
HETATM   12  C10 UNK     1      17.577  -6.853  36.112  1.00  0.00     0.271 C 
HETATM   13  O3  UNK     1      16.964  -5.962  36.700  1.00  0.00    -0.266 OA
HETATM   14  N1  UNK     1      17.088  -7.654  35.099  1.00  0.00    -0.289 N 
HETATM   15  H6  UNK     1      17.627  -8.395  34.662  1.00  0.00     0.183 HD
BRANCH  14  16
HETATM   16  N2  UNK     1      15.789  -7.474  34.667  1.00  0.00    -0.247 NA
HETATM   17  H7  UNK     1      15.183  -7.685  35.461  1.00  0.00     0.143 HD
HETATM   18  H8  UNK     1      15.605  -8.198  33.974  1.00  0.00     0.143 HD
ENDBRANCH  14  16
ENDBRANCH   6  12
TORSDOF 2
ENDMDL
