MODEL 1
REMARK VINA RESULT:      -8.5      0.000      0.000
REMARK  7 active torsions:
REMARK  status: ('A' for Active; 'I' for Inactive)
REMARK    1  A    between atoms: C19_25  and  O2_2 
REMARK    2  A    between atoms: C22_28  and  O2_2 
REMARK    3  A    between atoms: C20_26  and  O4_4 
REMARK    4  A    between atoms: C5_11  and  N1_5 
REMARK    5  A    between atoms: C6_12  and  N2_6 
REMARK    6  A    between atoms: C5_11  and  C7_13 
REMARK    7  A    between atoms: C6_12  and  C8_14 
ROOT
HETATM    1  N1  UNK     1      18.861   3.713  31.522  1.00  0.00     0.096 N 
HETATM    2  N2  UNK     1      19.199   6.310  32.747  1.00  0.00     0.096 N 
HETATM    3  C1  UNK     1      18.023   4.138  32.650  1.00  0.00     0.303 C 
HETATM    4  C2  UNK     1      19.292   4.875  30.736  1.00  0.00     0.303 C 
HETATM    5  C3  UNK     1      18.768   5.146  33.532  1.00  0.00     0.303 C 
HETATM    6  C4  UNK     1      20.036   5.885  31.618  1.00  0.00     0.303 C 
ENDROOT
BRANCH   1   7
HETATM    7  C5  UNK     1      18.150   2.752  30.681  1.00  0.00     0.312 C 
BRANCH   7   8
HETATM    8  C7  UNK     1      18.861   1.445  30.595  1.00  0.00    -0.011 A 
HETATM    9  C10 UNK     1      19.485   1.068  29.470  1.00  0.00     0.092 A 
HETATM   10  C15 UNK     1      20.199  -0.213  29.338  1.00  0.00     0.288 A 
HETATM   11  O1  UNK     1      20.205  -1.039  30.451  1.00  0.00    -0.275 OA
HETATM   12  O3  UNK     1      20.759  -0.523  28.292  1.00  0.00    -0.260 OA
HETATM   13  C11 UNK     1      19.558  -0.671  31.647  1.00  0.00     0.090 A 
HETATM   14  C9  UNK     1      18.885   0.546  31.757  1.00  0.00     0.009 A 
HETATM   15  C16 UNK     1      19.629  -1.582  32.702  1.00  0.00     0.041 A 
HETATM   16  C14 UNK     1      18.266   0.838  32.980  1.00  0.00     0.051 A 
HETATM   17  C19 UNK     1      18.328  -0.066  34.047  1.00  0.00     0.069 A 
HETATM   18  C21 UNK     1      19.009  -1.274  33.908  1.00  0.00     0.039 A 
BRANCH  17  19
HETATM   19  O2  UNK     1      17.720   0.237  35.227  1.00  0.00    -0.351 OA
BRANCH  19  20
HETATM   20  C22 UNK     1      18.300   1.280  36.008  1.00  0.00     0.171 C 
HETATM   21  C24 UNK     1      17.519   1.423  37.297  1.00  0.00     0.034 C 
ENDBRANCH  19  20
ENDBRANCH  17  19
ENDBRANCH   7   8
ENDBRANCH   1   7
BRANCH   2  22
HETATM   22  C6  UNK     1      19.912   7.268  33.589  1.00  0.00     0.311 C 
BRANCH  22  23
HETATM   23  C8  UNK     1      19.126   8.538  33.781  1.00  0.00    -0.030 A 
HETATM   24  C12 UNK     1      19.782   9.721  34.121  1.00  0.00     0.011 A 
HETATM   25  C17 UNK     1      19.053  10.897  34.299  1.00  0.00     0.037 A 
HETATM   26  C20 UNK     1      17.668  10.889  34.138  1.00  0.00     0.068 A 
HETATM   27  C18 UNK     1      17.011   9.707  33.798  1.00  0.00     0.037 A 
HETATM   28  C13 UNK     1      17.740   8.531  33.619  1.00  0.00     0.011 A 
BRANCH  26  29
HETATM   29  O4  UNK     1      16.956  12.037  34.311  1.00  0.00    -0.356 OA
HETATM   30  C23 UNK     1      17.668  13.177  34.790  1.00  0.00     0.210 C 
ENDBRANCH  26  29
ENDBRANCH  22  23
ENDBRANCH   2  22
TORSDOF 7
ENDMDL
MODEL 2
REMARK VINA RESULT:      -8.5     13.557     17.037
REMARK  7 active torsions:
REMARK  status: ('A' for Active; 'I' for Inactive)
REMARK    1  A    between atoms: C19_25  and  O2_2 
REMARK    2  A    between atoms: C22_28  and  O2_2 
REMARK    3  A    between atoms: C20_26  and  O4_4 
REMARK    4  A    between atoms: C5_11  and  N1_5 
REMARK    5  A    between atoms: C6_12  and  N2_6 
REMARK    6  A    between atoms: C5_11  and  C7_13 
REMARK    7  A    between atoms: C6_12  and  C8_14 
ROOT
HETATM    1  N1  UNK     1      26.815  -9.371  37.557  1.00  0.00     0.096 N 
HETATM    2  N2  UNK     1      29.643  -9.017  38.039  1.00  0.00     0.096 N 
HETATM    3  C1  UNK     1      27.358  -9.344  38.920  1.00  0.00     0.303 C 
HETATM    4  C2  UNK     1      27.644  -8.559  36.658  1.00  0.00     0.303 C 
HETATM    5  C3  UNK     1      28.812  -9.829  38.937  1.00  0.00     0.303 C 
HETATM    6  C4  UNK     1      29.099  -9.041  36.675  1.00  0.00     0.303 C 
ENDROOT
BRANCH   1   7
HETATM    7  C5  UNK     1      25.428  -8.909  37.542  1.00  0.00     0.312 C 
BRANCH   7   8
HETATM    8  C7  UNK     1      24.535  -9.835  36.789  1.00  0.00    -0.011 A 
HETATM    9  C10 UNK     1      24.992 -10.999  36.307  1.00  0.00     0.092 A 
HETATM   10  C15 UNK     1      24.149 -11.944  35.556  1.00  0.00     0.288 A 
HETATM   11  O1  UNK     1      22.826 -11.578  35.361  1.00  0.00    -0.275 OA
HETATM   12  O3  UNK     1      24.602 -13.001  35.130  1.00  0.00    -0.260 OA
HETATM   13  C11 UNK     1      22.317 -10.362  35.857  1.00  0.00     0.090 A 
HETATM   14  C9  UNK     1      23.129  -9.476  36.565  1.00  0.00     0.009 A 
HETATM   15  C16 UNK     1      20.970 -10.098  35.600  1.00  0.00     0.041 A 
HETATM   16  C14 UNK     1      22.546  -8.285  37.023  1.00  0.00     0.051 A 
HETATM   17  C19 UNK     1      21.197  -8.007  36.773  1.00  0.00     0.069 A 
HETATM   18  C21 UNK     1      20.411  -8.911  36.063  1.00  0.00     0.039 A 
BRANCH  17  19
HETATM   19  O2  UNK     1      20.652  -6.844  37.227  1.00  0.00    -0.351 OA
BRANCH  19  20
HETATM   20  C22 UNK     1      19.522  -6.951  38.091  1.00  0.00     0.171 C 
HETATM   21  C24 UNK     1      20.001  -7.270  39.491  1.00  0.00     0.034 C 
ENDBRANCH  19  20
ENDBRANCH  17  19
ENDBRANCH   7   8
ENDBRANCH   1   7
BRANCH   2  22
HETATM   22  C6  UNK     1      31.029  -9.481  38.053  1.00  0.00     0.311 C 
BRANCH  22  23
HETATM   23  C8  UNK     1      31.988  -8.393  37.650  1.00  0.00    -0.030 A 
HETATM   24  C12 UNK     1      32.842  -8.582  36.564  1.00  0.00     0.011 A 
HETATM   25  C17 UNK     1      33.731  -7.574  36.191  1.00  0.00     0.037 A 
HETATM   26  C20 UNK     1      33.766  -6.377  36.906  1.00  0.00     0.068 A 
HETATM   27  C18 UNK     1      32.912  -6.186  37.991  1.00  0.00     0.037 A 
HETATM   28  C13 UNK     1      32.023  -7.195  38.364  1.00  0.00     0.011 A 
BRANCH  26  29
HETATM   29  O4  UNK     1      34.633  -5.392  36.542  1.00  0.00    -0.356 OA
HETATM   30  C23 UNK     1      34.451  -4.810  35.252  1.00  0.00     0.210 C 
ENDBRANCH  26  29
ENDBRANCH  22  23
ENDBRANCH   2  22
TORSDOF 7
ENDMDL
MODEL 3
REMARK VINA RESULT:      -8.3      7.062     13.687
REMARK  7 active torsions:
REMARK  status: ('A' for Active; 'I' for Inactive)
REMARK    1  A    between atoms: C19_25  and  O2_2 
REMARK    2  A    between atoms: C22_28  and  O2_2 
REMARK    3  A    between atoms: C20_26  and  O4_4 
REMARK    4  A    between atoms: C5_11  and  N1_5 
REMARK    5  A    between atoms: C6_12  and  N2_6 
REMARK    6  A    between atoms: C5_11  and  C7_13 
REMARK    7  A    between atoms: C6_12  and  C8_14 
ROOT
HETATM    1  N1  UNK     1      20.326  -4.141  37.044  1.00  0.00     0.096 N 
HETATM    2  N2  UNK     1      20.677  -7.008  36.927  1.00  0.00     0.096 N 
HETATM    3  C1  UNK     1      21.384  -4.811  37.810  1.00  0.00     0.303 C 
HETATM    4  C2  UNK     1      20.020  -4.896  35.823  1.00  0.00     0.303 C 
HETATM    5  C3  UNK     1      20.983  -6.252  38.148  1.00  0.00     0.303 C 
HETATM    6  C4  UNK     1      19.620  -6.338  36.160  1.00  0.00     0.303 C 
ENDROOT
BRANCH   1   7
HETATM    7  C5  UNK     1      20.709  -2.767  36.723  1.00  0.00     0.312 C 
BRANCH   7   8
HETATM    8  C7  UNK     1      19.547  -1.950  36.275  1.00  0.00    -0.011 A 
HETATM    9  C10 UNK     1      18.657  -1.470  37.156  1.00  0.00     0.092 A 
HETATM   10  C15 UNK     1      17.493  -0.660  36.761  1.00  0.00     0.288 A 
HETATM   11  O1  UNK     1      17.346  -0.400  35.407  1.00  0.00    -0.275 OA
HETATM   12  O3  UNK     1      16.699  -0.238  37.595  1.00  0.00    -0.260 OA
HETATM   13  C11 UNK     1      18.265  -0.890  34.458  1.00  0.00     0.090 A 
HETATM   14  C9  UNK     1      19.363  -1.658  34.848  1.00  0.00     0.009 A 
HETATM   15  C16 UNK     1      18.015  -0.566  33.123  1.00  0.00     0.041 A 
HETATM   16  C14 UNK     1      20.229  -2.109  33.842  1.00  0.00     0.051 A 
HETATM   17  C19 UNK     1      19.993  -1.793  32.499  1.00  0.00     0.069 A 
HETATM   18  C21 UNK     1      18.888  -1.023  32.140  1.00  0.00     0.039 A 
BRANCH  17  19
HETATM   19  O2  UNK     1      20.847  -2.241  31.538  1.00  0.00    -0.351 OA
BRANCH  19  20
HETATM   20  C22 UNK     1      20.323  -2.387  30.220  1.00  0.00     0.171 C 
HETATM   21  C24 UNK     1      20.834  -1.253  29.357  1.00  0.00     0.034 C 
ENDBRANCH  19  20
ENDBRANCH  17  19
ENDBRANCH   7   8
ENDBRANCH   1   7
BRANCH   2  22
HETATM   22  C6  UNK     1      20.292  -8.380  37.251  1.00  0.00     0.311 C 
BRANCH  22  23
HETATM   23  C8  UNK     1      21.268  -9.382  36.693  1.00  0.00    -0.030 A 
HETATM   24  C12 UNK     1      22.638  -9.206  36.888  1.00  0.00     0.011 A 
HETATM   25  C17 UNK     1      23.541 -10.135  36.371  1.00  0.00     0.037 A 
HETATM   26  C20 UNK     1      23.074 -11.238  35.657  1.00  0.00     0.068 A 
HETATM   27  C18 UNK     1      21.705 -11.415  35.462  1.00  0.00     0.037 A 
HETATM   28  C13 UNK     1      20.801 -10.486  35.980  1.00  0.00     0.011 A 
BRANCH  26  29
HETATM   29  O4  UNK     1      23.956 -12.145  35.153  1.00  0.00    -0.356 OA
HETATM   30  C23 UNK     1      24.791 -12.828  36.087  1.00  0.00     0.210 C 
ENDBRANCH  26  29
ENDBRANCH  22  23
ENDBRANCH   2  22
TORSDOF 7
ENDMDL
MODEL 4
REMARK VINA RESULT:      -8.1      1.969      4.367
REMARK  7 active torsions:
REMARK  status: ('A' for Active; 'I' for Inactive)
REMARK    1  A    between atoms: C19_25  and  O2_2 
REMARK    2  A    between atoms: C22_28  and  O2_2 
REMARK    3  A    between atoms: C20_26  and  O4_4 
REMARK    4  A    between atoms: C5_11  and  N1_5 
REMARK    5  A    between atoms: C6_12  and  N2_6 
REMARK    6  A    between atoms: C5_11  and  C7_13 
REMARK    7  A    between atoms: C6_12  and  C8_14 
ROOT
HETATM    1  N1  UNK     1      18.388   1.524  33.980  1.00  0.00     0.096 N 
HETATM    2  N2  UNK     1      18.421   4.407  33.771  1.00  0.00     0.096 N 
HETATM    3  C1  UNK     1      18.297   2.375  35.172  1.00  0.00     0.303 C 
HETATM    4  C2  UNK     1      17.815   2.209  32.815  1.00  0.00     0.303 C 
HETATM    5  C3  UNK     1      18.994   3.720  34.935  1.00  0.00     0.303 C 
HETATM    6  C4  UNK     1      18.510   3.555  32.578  1.00  0.00     0.303 C 
ENDROOT
BRANCH   1   7
HETATM    7  C5  UNK     1      17.723   0.242  34.206  1.00  0.00     0.312 C 
BRANCH   7   8
HETATM    8  C7  UNK     1      18.695  -0.879  34.340  1.00  0.00    -0.011 A 
HETATM    9  C10 UNK     1      18.949  -1.438  35.533  1.00  0.00     0.092 A 
HETATM   10  C15 UNK     1      19.902  -2.546  35.714  1.00  0.00     0.288 A 
HETATM   11  O1  UNK     1      20.544  -3.007  34.575  1.00  0.00    -0.275 OA
HETATM   12  O3  UNK     1      20.109  -3.031  36.821  1.00  0.00    -0.260 OA
HETATM   13  C11 UNK     1      20.298  -2.441  33.309  1.00  0.00     0.090 A 
HETATM   14  C9  UNK     1      19.393  -1.390  33.153  1.00  0.00     0.009 A 
HETATM   15  C16 UNK     1      21.002  -2.985  32.234  1.00  0.00     0.041 A 
HETATM   16  C14 UNK     1      19.205  -0.881  31.860  1.00  0.00     0.051 A 
HETATM   17  C19 UNK     1      19.905  -1.416  30.772  1.00  0.00     0.069 A 
HETATM   18  C21 UNK     1      20.802  -2.466  30.958  1.00  0.00     0.039 A 
BRANCH  17  19
HETATM   19  O2  UNK     1      19.707  -0.907  29.525  1.00  0.00    -0.351 OA
BRANCH  19  20
HETATM   20  C22 UNK     1      19.749   0.512  29.389  1.00  0.00     0.171 C 
HETATM   21  C24 UNK     1      18.511   0.973  28.648  1.00  0.00     0.034 C 
ENDBRANCH  19  20
ENDBRANCH  17  19
ENDBRANCH   7   8
ENDBRANCH   1   7
BRANCH   2  22
HETATM   22  C6  UNK     1      19.088   5.688  33.544  1.00  0.00     0.311 C 
BRANCH  22  23
HETATM   23  C8  UNK     1      18.122   6.840  33.601  1.00  0.00    -0.030 A 
HETATM   24  C12 UNK     1      16.767   6.629  33.346  1.00  0.00     0.011 A 
HETATM   25  C17 UNK     1      15.871   7.697  33.399  1.00  0.00     0.037 A 
HETATM   26  C20 UNK     1      16.332   8.978  33.705  1.00  0.00     0.068 A 
HETATM   27  C18 UNK     1      17.686   9.190  33.960  1.00  0.00     0.037 A 
HETATM   28  C13 UNK     1      18.581   8.121  33.908  1.00  0.00     0.011 A 
BRANCH  26  29
HETATM   29  O4  UNK     1      15.458  10.021  33.757  1.00  0.00    -0.356 OA
HETATM   30  C23 UNK     1      14.507  10.019  34.821  1.00  0.00     0.210 C 
ENDBRANCH  26  29
ENDBRANCH  22  23
ENDBRANCH   2  22
TORSDOF 7
ENDMDL
MODEL 5
REMARK VINA RESULT:      -8.0     23.163     25.459
REMARK  7 active torsions:
REMARK  status: ('A' for Active; 'I' for Inactive)
REMARK    1  A    between atoms: C19_25  and  O2_2 
REMARK    2  A    between atoms: C22_28  and  O2_2 
REMARK    3  A    between atoms: C20_26  and  O4_4 
REMARK    4  A    between atoms: C5_11  and  N1_5 
REMARK    5  A    between atoms: C6_12  and  N2_6 
REMARK    6  A    between atoms: C5_11  and  C7_13 
REMARK    7  A    between atoms: C6_12  and  C8_14 
ROOT
HETATM    1  N1  UNK     1      11.870   6.261   7.403  1.00  0.00     0.096 N 
HETATM    2  N2  UNK     1       9.099   6.222   8.228  1.00  0.00     0.096 N 
HETATM    3  C1  UNK     1      10.817   6.844   6.564  1.00  0.00     0.303 C 
HETATM    4  C2  UNK     1      11.497   6.337   8.821  1.00  0.00     0.303 C 
HETATM    5  C3  UNK     1       9.474   6.146   6.810  1.00  0.00     0.303 C 
HETATM    6  C4  UNK     1      10.154   5.641   9.069  1.00  0.00     0.303 C 
ENDROOT
BRANCH   1   7
HETATM    7  C5  UNK     1      13.150   6.927   7.167  1.00  0.00     0.312 C 
BRANCH   7   8
HETATM    8  C7  UNK     1      14.132   6.659   8.255  1.00  0.00    -0.011 A 
HETATM    9  C10 UNK     1      14.545   5.413   8.524  1.00  0.00     0.092 A 
HETATM   10  C15 UNK     1      15.513   5.100   9.590  1.00  0.00     0.288 A 
HETATM   11  O1  UNK     1      15.997   6.171  10.325  1.00  0.00    -0.275 OA
HETATM   12  O3  UNK     1      15.868   3.946   9.807  1.00  0.00    -0.260 OA
HETATM   13  C11 UNK     1      15.581   7.492  10.065  1.00  0.00     0.090 A 
HETATM   14  C9  UNK     1      14.663   7.772   9.052  1.00  0.00     0.009 A 
HETATM   15  C16 UNK     1      16.134   8.490  10.869  1.00  0.00     0.041 A 
HETATM   16  C14 UNK     1      14.300   9.112   8.858  1.00  0.00     0.051 A 
HETATM   17  C19 UNK     1      14.846  10.125   9.657  1.00  0.00     0.069 A 
HETATM   18  C21 UNK     1      15.761   9.814  10.660  1.00  0.00     0.039 A 
BRANCH  17  19
HETATM   19  O2  UNK     1      14.479  11.420   9.451  1.00  0.00    -0.351 OA
BRANCH  19  20
HETATM   20  C22 UNK     1      15.492  12.318   9.000  1.00  0.00     0.171 C 
HETATM   21  C24 UNK     1      15.627  12.193   7.498  1.00  0.00     0.034 C 
ENDBRANCH  19  20
ENDBRANCH  17  19
ENDBRANCH   7   8
ENDBRANCH   1   7
BRANCH   2  22
HETATM   22  C6  UNK     1       7.821   5.554   8.463  1.00  0.00     0.311 C 
BRANCH  22  23
HETATM   23  C8  UNK     1       7.242   5.911   9.806  1.00  0.00    -0.030 A 
HETATM   24  C12 UNK     1       6.938   4.905  10.724  1.00  0.00     0.011 A 
HETATM   25  C17 UNK     1       6.401   5.236  11.968  1.00  0.00     0.037 A 
HETATM   26  C20 UNK     1       6.166   6.572  12.294  1.00  0.00     0.068 A 
HETATM   27  C18 UNK     1       6.471   7.577  11.376  1.00  0.00     0.037 A 
HETATM   28  C13 UNK     1       7.008   7.247  10.132  1.00  0.00     0.011 A 
BRANCH  26  29
HETATM   29  O4  UNK     1       5.643   6.895  13.508  1.00  0.00    -0.356 OA
HETATM   30  C23 UNK     1       5.519   5.842  14.463  1.00  0.00     0.210 C 
ENDBRANCH  26  29
ENDBRANCH  22  23
ENDBRANCH   2  22
TORSDOF 7
ENDMDL
MODEL 6
REMARK VINA RESULT:      -8.0      4.894     11.054
REMARK  7 active torsions:
REMARK  status: ('A' for Active; 'I' for Inactive)
REMARK    1  A    between atoms: C19_25  and  O2_2 
REMARK    2  A    between atoms: C22_28  and  O2_2 
REMARK    3  A    between atoms: C20_26  and  O4_4 
REMARK    4  A    between atoms: C5_11  and  N1_5 
REMARK    5  A    between atoms: C6_12  and  N2_6 
REMARK    6  A    between atoms: C5_11  and  C7_13 
REMARK    7  A    between atoms: C6_12  and  C8_14 
ROOT
HETATM    1  N1  UNK     1      18.939  -1.065  35.272  1.00  0.00     0.096 N 
HETATM    2  N2  UNK     1      19.812  -3.454  36.645  1.00  0.00     0.096 N 
HETATM    3  C1  UNK     1      19.693  -2.112  34.574  1.00  0.00     0.303 C 
HETATM    4  C2  UNK     1      18.152  -1.643  36.368  1.00  0.00     0.303 C 
HETATM    5  C3  UNK     1      20.598  -2.875  35.549  1.00  0.00     0.303 C 
HETATM    6  C4  UNK     1      19.055  -2.407  37.343  1.00  0.00     0.303 C 
ENDROOT
BRANCH   1   7
HETATM    7  C5  UNK     1      18.077  -0.338  34.341  1.00  0.00     0.312 C 
BRANCH   7   8
HETATM    8  C7  UNK     1      18.649  -0.287  32.967  1.00  0.00    -0.011 A 
HETATM    9  C10 UNK     1      19.172  -1.381  32.393  1.00  0.00     0.092 A 
HETATM   10  C15 UNK     1      19.750  -1.378  31.038  1.00  0.00     0.288 A 
HETATM   11  O1  UNK     1      19.733  -0.172  30.357  1.00  0.00    -0.275 OA
HETATM   12  O3  UNK     1      20.219  -2.399  30.546  1.00  0.00    -0.260 OA
HETATM   13  C11 UNK     1      19.191   0.994  30.933  1.00  0.00     0.090 A 
HETATM   14  C9  UNK     1      18.647   0.976  32.218  1.00  0.00     0.009 A 
HETATM   15  C16 UNK     1      19.229   2.151  30.154  1.00  0.00     0.041 A 
HETATM   16  C14 UNK     1      18.129   2.178  32.721  1.00  0.00     0.051 A 
HETATM   17  C19 UNK     1      18.160   3.348  31.952  1.00  0.00     0.069 A 
HETATM   18  C21 UNK     1      18.709   3.334  30.671  1.00  0.00     0.039 A 
BRANCH  17  19
HETATM   19  O2  UNK     1      17.652   4.504  32.459  1.00  0.00    -0.351 OA
BRANCH  19  20
HETATM   20  C22 UNK     1      18.256   5.014  33.646  1.00  0.00     0.171 C 
HETATM   21  C24 UNK     1      19.372   5.963  33.263  1.00  0.00     0.034 C 
ENDBRANCH  19  20
ENDBRANCH  17  19
ENDBRANCH   7   8
ENDBRANCH   1   7
BRANCH   2  22
HETATM   22  C6  UNK     1      20.675  -4.178  37.576  1.00  0.00     0.311 C 
BRANCH  22  23
HETATM   23  C8  UNK     1      20.189  -5.582  37.814  1.00  0.00    -0.030 A 
HETATM   24  C12 UNK     1      19.340  -6.194  36.891  1.00  0.00     0.011 A 
HETATM   25  C17 UNK     1      18.890  -7.496  37.113  1.00  0.00     0.037 A 
HETATM   26  C20 UNK     1      19.287  -8.185  38.259  1.00  0.00     0.068 A 
HETATM   27  C18 UNK     1      20.136  -7.574  39.182  1.00  0.00     0.037 A 
HETATM   28  C13 UNK     1      20.586  -6.272  38.960  1.00  0.00     0.011 A 
BRANCH  26  29
HETATM   29  O4  UNK     1      18.848  -9.455  38.475  1.00  0.00    -0.356 OA
HETATM   30  C23 UNK     1      19.408 -10.484  37.660  1.00  0.00     0.210 C 
ENDBRANCH  26  29
ENDBRANCH  22  23
ENDBRANCH   2  22
TORSDOF 7
ENDMDL
MODEL 7
REMARK VINA RESULT:      -8.0     12.833     16.072
REMARK  7 active torsions:
REMARK  status: ('A' for Active; 'I' for Inactive)
REMARK    1  A    between atoms: C19_25  and  O2_2 
REMARK    2  A    between atoms: C22_28  and  O2_2 
REMARK    3  A    between atoms: C20_26  and  O4_4 
REMARK    4  A    between atoms: C5_11  and  N1_5 
REMARK    5  A    between atoms: C6_12  and  N2_6 
REMARK    6  A    between atoms: C5_11  and  C7_13 
REMARK    7  A    between atoms: C6_12  and  C8_14 
ROOT
HETATM    1  N1  UNK     1      25.456  -8.405  38.461  1.00  0.00     0.096 N 
HETATM    2  N2  UNK     1      28.334  -8.358  38.189  1.00  0.00     0.096 N 
HETATM    3  C1  UNK     1      26.301  -9.395  39.138  1.00  0.00     0.303 C 
HETATM    4  C2  UNK     1      26.184  -7.142  38.288  1.00  0.00     0.303 C 
HETATM    5  C3  UNK     1      27.605  -9.620  38.363  1.00  0.00     0.303 C 
HETATM    6  C4  UNK     1      27.488  -7.366  37.513  1.00  0.00     0.303 C 
ENDROOT
BRANCH   1   7
HETATM    7  C5  UNK     1      24.214  -8.190  39.201  1.00  0.00     0.312 C 
BRANCH   7   8
HETATM    8  C7  UNK     1      23.109  -7.719  38.320  1.00  0.00    -0.011 A 
HETATM    9  C10 UNK     1      22.489  -6.552  38.549  1.00  0.00     0.092 A 
HETATM   10  C15 UNK     1      21.392  -6.046  37.707  1.00  0.00     0.288 A 
HETATM   11  O1  UNK     1      21.012  -6.841  36.636  1.00  0.00    -0.275 OA
HETATM   12  O3  UNK     1      20.849  -4.973  37.947  1.00  0.00    -0.260 OA
HETATM   13  C11 UNK     1      21.644  -8.072  36.371  1.00  0.00     0.090 A 
HETATM   14  C9  UNK     1      22.682  -8.538  37.178  1.00  0.00     0.009 A 
HETATM   15  C16 UNK     1      21.177  -8.788  35.267  1.00  0.00     0.041 A 
HETATM   16  C14 UNK     1      23.257  -9.773  36.847  1.00  0.00     0.051 A 
HETATM   17  C19 UNK     1      22.799 -10.503  35.744  1.00  0.00     0.069 A 
HETATM   18  C21 UNK     1      21.762 -10.011  34.955  1.00  0.00     0.039 A 
BRANCH  17  19
HETATM   19  O2  UNK     1      23.372 -11.700  35.440  1.00  0.00    -0.351 OA
BRANCH  19  20
HETATM   20  C22 UNK     1      24.693 -11.931  35.928  1.00  0.00     0.171 C 
HETATM   21  C24 UNK     1      24.792 -13.357  36.427  1.00  0.00     0.034 C 
ENDBRANCH  19  20
ENDBRANCH  17  19
ENDBRANCH   7   8
ENDBRANCH   1   7
BRANCH   2  22
HETATM   22  C6  UNK     1      29.574  -8.573  37.448  1.00  0.00     0.311 C 
BRANCH  22  23
HETATM   23  C8  UNK     1      30.345  -7.294  37.262  1.00  0.00    -0.030 A 
HETATM   24  C12 UNK     1      30.736  -6.546  38.373  1.00  0.00     0.011 A 
HETATM   25  C17 UNK     1      31.450  -5.360  38.200  1.00  0.00     0.037 A 
HETATM   26  C20 UNK     1      31.773  -4.922  36.916  1.00  0.00     0.068 A 
HETATM   27  C18 UNK     1      31.384  -5.669  35.805  1.00  0.00     0.037 A 
HETATM   28  C13 UNK     1      30.669  -6.855  35.978  1.00  0.00     0.011 A 
BRANCH  26  29
HETATM   29  O4  UNK     1      32.471  -3.766  36.747  1.00  0.00    -0.356 OA
HETATM   30  C23 UNK     1      33.326  -3.683  35.608  1.00  0.00     0.210 C 
ENDBRANCH  26  29
ENDBRANCH  22  23
ENDBRANCH   2  22
TORSDOF 7
ENDMDL
MODEL 8
REMARK VINA RESULT:      -8.0     15.838     19.241
REMARK  7 active torsions:
REMARK  status: ('A' for Active; 'I' for Inactive)
REMARK    1  A    between atoms: C19_25  and  O2_2 
REMARK    2  A    between atoms: C22_28  and  O2_2 
REMARK    3  A    between atoms: C20_26  and  O4_4 
REMARK    4  A    between atoms: C5_11  and  N1_5 
REMARK    5  A    between atoms: C6_12  and  N2_6 
REMARK    6  A    between atoms: C5_11  and  C7_13 
REMARK    7  A    between atoms: C6_12  and  C8_14 
ROOT
HETATM    1  N1  UNK     1      31.344  -6.118  35.511  1.00  0.00     0.096 N 
HETATM    2  N2  UNK     1      33.785  -6.409  33.990  1.00  0.00     0.096 N 
HETATM    3  C1  UNK     1      31.906  -4.996  34.752  1.00  0.00     0.303 C 
HETATM    4  C2  UNK     1      31.699  -7.394  34.879  1.00  0.00     0.303 C 
HETATM    5  C3  UNK     1      33.428  -5.133  34.622  1.00  0.00     0.303 C 
HETATM    6  C4  UNK     1      33.221  -7.533  34.748  1.00  0.00     0.303 C 
ENDROOT
BRANCH   1   7
HETATM    7  C5  UNK     1      29.893  -5.986  35.634  1.00  0.00     0.312 C 
BRANCH   7   8
HETATM    8  C7  UNK     1      29.457  -5.871  37.053  1.00  0.00    -0.011 A 
HETATM    9  C10 UNK     1      29.779  -4.800  37.793  1.00  0.00     0.092 A 
HETATM   10  C15 UNK     1      29.372  -4.643  39.199  1.00  0.00     0.288 A 
HETATM   11  O1  UNK     1      28.621  -5.670  39.748  1.00  0.00    -0.275 OA
HETATM   12  O3  UNK     1      29.686  -3.648  39.844  1.00  0.00    -0.260 OA
HETATM   13  C11 UNK     1      28.266  -6.807  38.996  1.00  0.00     0.090 A 
HETATM   14  C9  UNK     1      28.660  -6.943  37.665  1.00  0.00     0.009 A 
HETATM   15  C16 UNK     1      27.509  -7.778  39.653  1.00  0.00     0.041 A 
HETATM   16  C14 UNK     1      28.268  -8.105  36.987  1.00  0.00     0.051 A 
HETATM   17  C19 UNK     1      27.508  -9.088  37.632  1.00  0.00     0.069 A 
HETATM   18  C21 UNK     1      27.129  -8.925  38.962  1.00  0.00     0.039 A 
BRANCH  17  19
HETATM   19  O2  UNK     1      27.138 -10.210  36.955  1.00  0.00    -0.351 OA
BRANCH  19  20
HETATM   20  C22 UNK     1      25.785 -10.282  36.507  1.00  0.00     0.171 C 
HETATM   21  C24 UNK     1      25.403 -11.735  36.325  1.00  0.00     0.034 C 
ENDBRANCH  19  20
ENDBRANCH  17  19
ENDBRANCH   7   8
ENDBRANCH   1   7
BRANCH   2  22
HETATM   22  C6  UNK     1      35.235  -6.541  33.870  1.00  0.00     0.311 C 
BRANCH  22  23
HETATM   23  C8  UNK     1      35.621  -7.568  32.840  1.00  0.00    -0.030 A 
HETATM   24  C12 UNK     1      34.977  -7.594  31.603  1.00  0.00     0.011 A 
HETATM   25  C17 UNK     1      35.335  -8.547  30.649  1.00  0.00     0.037 A 
HETATM   26  C20 UNK     1      36.337  -9.475  30.933  1.00  0.00     0.068 A 
HETATM   27  C18 UNK     1      36.982  -9.449  32.168  1.00  0.00     0.037 A 
HETATM   28  C13 UNK     1      36.624  -8.496  33.123  1.00  0.00     0.011 A 
BRANCH  26  29
HETATM   29  O4  UNK     1      36.687 -10.404  30.002  1.00  0.00    -0.356 OA
HETATM   30  C23 UNK     1      38.079 -10.674  29.845  1.00  0.00     0.210 C 
ENDBRANCH  26  29
ENDBRANCH  22  23
ENDBRANCH   2  22
TORSDOF 7
ENDMDL
MODEL 9
REMARK VINA RESULT:      -8.0     13.263     16.632
REMARK  7 active torsions:
REMARK  status: ('A' for Active; 'I' for Inactive)
REMARK    1  A    between atoms: C19_25  and  O2_2 
REMARK    2  A    between atoms: C22_28  and  O2_2 
REMARK    3  A    between atoms: C20_26  and  O4_4 
REMARK    4  A    between atoms: C5_11  and  N1_5 
REMARK    5  A    between atoms: C6_12  and  N2_6 
REMARK    6  A    between atoms: C5_11  and  C7_13 
REMARK    7  A    between atoms: C6_12  and  C8_14 
ROOT
HETATM    1  N1  UNK     1      26.905  -8.814  36.672  1.00  0.00     0.096 N 
HETATM    2  N2  UNK     1      29.174  -7.257  35.786  1.00  0.00     0.096 N 
HETATM    3  C1  UNK     1      27.940  -9.398  35.812  1.00  0.00     0.303 C 
HETATM    4  C2  UNK     1      27.474  -7.753  37.512  1.00  0.00     0.303 C 
HETATM    5  C3  UNK     1      28.603  -8.319  34.948  1.00  0.00     0.303 C 
HETATM    6  C4  UNK     1      28.139  -6.673  36.649  1.00  0.00     0.303 C 
ENDROOT
BRANCH   1   7
HETATM    7  C5  UNK     1      26.273  -9.844  37.496  1.00  0.00     0.312 C 
BRANCH   7   8
HETATM    8  C7  UNK     1      25.179 -10.550  36.772  1.00  0.00    -0.011 A 
HETATM    9  C10 UNK     1      25.375 -11.761  36.231  1.00  0.00     0.092 A 
HETATM   10  C15 UNK     1      24.325 -12.496  35.505  1.00  0.00     0.288 A 
HETATM   11  O1  UNK     1      23.090 -11.875  35.399  1.00  0.00    -0.275 OA
HETATM   12  O3  UNK     1      24.541 -13.603  35.024  1.00  0.00    -0.260 OA
HETATM   13  C11 UNK     1      22.854 -10.603  35.957  1.00  0.00     0.090 A 
HETATM   14  C9  UNK     1      23.859  -9.918  36.641  1.00  0.00     0.009 A 
HETATM   15  C16 UNK     1      21.574 -10.075  35.787  1.00  0.00     0.041 A 
HETATM   16  C14 UNK     1      23.545  -8.656  37.165  1.00  0.00     0.051 A 
HETATM   17  C19 UNK     1      22.265  -8.113  37.003  1.00  0.00     0.069 A 
HETATM   18  C21 UNK     1      21.281  -8.821  36.316  1.00  0.00     0.039 A 
BRANCH  17  19
HETATM   19  O2  UNK     1      21.980  -6.886  37.520  1.00  0.00    -0.351 OA
BRANCH  19  20
HETATM   20  C22 UNK     1      20.604  -6.570  37.723  1.00  0.00     0.171 C 
HETATM   21  C24 UNK     1      20.298  -6.629  39.204  1.00  0.00     0.034 C 
ENDBRANCH  19  20
ENDBRANCH  17  19
ENDBRANCH   7   8
ENDBRANCH   1   7
BRANCH   2  22
HETATM   22  C6  UNK     1      29.803  -6.228  34.962  1.00  0.00     0.311 C 
BRANCH  22  23
HETATM   23  C8  UNK     1      31.289  -6.156  35.192  1.00  0.00    -0.030 A 
HETATM   24  C12 UNK     1      31.915  -7.099  36.008  1.00  0.00     0.011 A 
HETATM   25  C17 UNK     1      33.293  -7.033  36.220  1.00  0.00     0.037 A 
HETATM   26  C20 UNK     1      34.043  -6.023  35.619  1.00  0.00     0.068 A 
HETATM   27  C18 UNK     1      33.417  -5.081  34.803  1.00  0.00     0.037 A 
HETATM   28  C13 UNK     1      32.040  -5.147  34.590  1.00  0.00     0.011 A 
BRANCH  26  29
HETATM   29  O4  UNK     1      35.387  -5.958  35.825  1.00  0.00    -0.356 OA
HETATM   30  C23 UNK     1      36.208  -6.814  35.033  1.00  0.00     0.210 C 
ENDBRANCH  26  29
ENDBRANCH  22  23
ENDBRANCH   2  22
TORSDOF 7
ENDMDL
MODEL 10
REMARK VINA RESULT:      -7.9     14.962     17.765
REMARK  7 active torsions:
REMARK  status: ('A' for Active; 'I' for Inactive)
REMARK    1  A    between atoms: C19_25  and  O2_2 
REMARK    2  A    between atoms: C22_28  and  O2_2 
REMARK    3  A    between atoms: C20_26  and  O4_4 
REMARK    4  A    between atoms: C5_11  and  N1_5 
REMARK    5  A    between atoms: C6_12  and  N2_6 
REMARK    6  A    between atoms: C5_11  and  C7_13 
REMARK    7  A    between atoms: C6_12  and  C8_14 
ROOT
HETATM    1  N1  UNK     1      33.366  -7.735  34.006  1.00  0.00     0.096 N 
HETATM    2  N2  UNK     1      32.797  -6.997  36.743  1.00  0.00     0.096 N 
HETATM    3  C1  UNK     1      34.309  -8.038  35.089  1.00  0.00     0.303 C 
HETATM    4  C2  UNK     1      31.990  -7.709  34.517  1.00  0.00     0.303 C 
HETATM    5  C3  UNK     1      34.173  -7.024  36.230  1.00  0.00     0.303 C 
HETATM    6  C4  UNK     1      31.852  -6.696  35.660  1.00  0.00     0.303 C 
ENDROOT
BRANCH   1   7
HETATM    7  C5  UNK     1      33.497  -8.703  32.918  1.00  0.00     0.312 C 
BRANCH   7   8
HETATM    8  C7  UNK     1      33.533  -8.045  31.582  1.00  0.00    -0.011 A 
HETATM    9  C10 UNK     1      34.637  -7.421  31.146  1.00  0.00     0.092 A 
HETATM   10  C15 UNK     1      34.719  -6.756  29.835  1.00  0.00     0.288 A 
HETATM   11  O1  UNK     1      33.583  -6.800  29.042  1.00  0.00    -0.275 OA
HETATM   12  O3  UNK     1      35.747  -6.196  29.470  1.00  0.00    -0.260 OA
HETATM   13  C11 UNK     1      32.408  -7.448  29.473  1.00  0.00     0.090 A 
HETATM   14  C9  UNK     1      32.345  -8.072  30.719  1.00  0.00     0.009 A 
HETATM   15  C16 UNK     1      31.326  -7.427  28.592  1.00  0.00     0.041 A 
HETATM   16  C14 UNK     1      31.139  -8.693  31.074  1.00  0.00     0.051 A 
HETATM   17  C19 UNK     1      30.044  -8.681  30.201  1.00  0.00     0.069 A 
HETATM   18  C21 UNK     1      30.137  -8.049  28.963  1.00  0.00     0.039 A 
BRANCH  17  19
HETATM   19  O2  UNK     1      28.882  -9.290  30.565  1.00  0.00    -0.351 OA
BRANCH  19  20
HETATM   20  C22 UNK     1      27.685  -8.523  30.455  1.00  0.00     0.171 C 
HETATM   21  C24 UNK     1      27.669  -7.474  31.546  1.00  0.00     0.034 C 
ENDBRANCH  19  20
ENDBRANCH  17  19
ENDBRANCH   7   8
ENDBRANCH   1   7
BRANCH   2  22
HETATM   22  C6  UNK     1      32.667  -6.028  37.829  1.00  0.00     0.311 C 
BRANCH  22  23
HETATM   23  C8  UNK     1      31.226  -5.761  38.171  1.00  0.00    -0.030 A 
HETATM   24  C12 UNK     1      30.372  -6.821  38.477  1.00  0.00     0.011 A 
HETATM   25  C17 UNK     1      29.037  -6.572  38.794  1.00  0.00     0.037 A 
HETATM   26  C20 UNK     1      28.555  -5.263  38.805  1.00  0.00     0.068 A 
HETATM   27  C18 UNK     1      29.408  -4.203  38.500  1.00  0.00     0.037 A 
HETATM   28  C13 UNK     1      30.744  -4.452  38.183  1.00  0.00     0.011 A 
BRANCH  26  29
HETATM   29  O4  UNK     1      27.252  -5.020  39.115  1.00  0.00    -0.356 OA
HETATM   30  C23 UNK     1      26.300  -6.020  38.756  1.00  0.00     0.210 C 
ENDBRANCH  26  29
ENDBRANCH  22  23
ENDBRANCH   2  22
TORSDOF 7
ENDMDL
