MODEL 1
REMARK VINA RESULT:      -9.6      0.000      0.000
REMARK  4 active torsions:
REMARK  status: ('A' for Active; 'I' for Inactive)
REMARK    1  A    between atoms: C1_7  and  O1_1 
REMARK    2  A    between atoms: C1_7  and  C3_9 
REMARK    3  A    between atoms: C3_9  and  C7_13 
REMARK    4  A    between atoms: C7_13  and  C9_15 
ROOT
HETATM    1  C3  UNK     1      19.784  -5.519  35.944  1.00  0.00     0.137 C 
ENDROOT
BRANCH   1   2
HETATM    2  C1  UNK     1      19.487  -6.527  37.045  1.00  0.00     0.174 A 
HETATM    3  C2  UNK     1      20.349  -7.756  36.977  1.00  0.00     0.013 A 
HETATM    4  C5  UNK     1      19.540  -8.880  36.817  1.00  0.00     0.044 A 
HETATM    5  C6  UNK     1      21.724  -7.889  37.053  1.00  0.00     0.013 A 
HETATM    6  N1  UNK     1      18.204  -8.498  36.772  1.00  0.00    -0.324 N 
HETATM    7  C8  UNK     1      20.052 -10.159  36.724  1.00  0.00     0.030 A 
HETATM    8  C4  UNK     1      18.066  -7.111  36.902  1.00  0.00     0.262 A 
HETATM    9  H3  UNK     1      17.437  -9.151  36.664  1.00  0.00     0.169 HD
HETATM   10  O2  UNK     1      17.025  -6.472  36.919  1.00  0.00    -0.269 OA
HETATM   11  C11 UNK     1      21.439 -10.299  36.798  1.00  0.00     0.002 A 
HETATM   12  C10 UNK     1      22.268  -9.174  36.960  1.00  0.00     0.001 A 
BRANCH   2  13
HETATM   13  O1  UNK     1      19.598  -5.929  38.321  1.00  0.00    -0.375 OA
HETATM   14  H6  UNK     1      18.781  -6.096  38.819  1.00  0.00     0.211 HD
ENDBRANCH   2  13
ENDBRANCH   1   2
BRANCH   1  15
HETATM   15  C7  UNK     1      20.501  -4.293  36.469  1.00  0.00     0.169 C 
HETATM   16  O3  UNK     1      21.519  -4.336  37.154  1.00  0.00    -0.292 OA
BRANCH  15  17
HETATM   17  C9  UNK     1      19.908  -2.988  36.115  1.00  0.00     0.086 A 
HETATM   18  C12 UNK     1      19.161  -2.402  37.058  1.00  0.00     0.035 A 
HETATM   19  C13 UNK     1      18.535  -1.115  36.803  1.00  0.00    -0.001 A 
HETATM   20  C15 UNK     1      18.726  -0.506  35.567  1.00  0.00     0.089 A 
HETATM   21  C16 UNK     1      17.747  -0.467  37.759  1.00  0.00     0.014 A 
HETATM   22  O4  UNK     1      19.513  -1.127  34.578  1.00  0.00    -0.274 OA
HETATM   23  C17 UNK     1      18.152   0.726  35.260  1.00  0.00     0.038 A 
HETATM   24  C14 UNK     1      20.124  -2.359  34.792  1.00  0.00     0.302 A 
HETATM   25  O5  UNK     1      20.808  -2.893  33.925  1.00  0.00    -0.259 OA
HETATM   26  C19 UNK     1      17.369   1.365  36.218  1.00  0.00     0.003 A 
HETATM   27  C18 UNK     1      17.166   0.769  37.465  1.00  0.00     0.001 A 
ENDBRANCH  15  17
ENDBRANCH   1  15
TORSDOF 4
ENDMDL
MODEL 2
REMARK VINA RESULT:      -9.1      9.212     14.062
REMARK  4 active torsions:
REMARK  status: ('A' for Active; 'I' for Inactive)
REMARK    1  A    between atoms: C1_7  and  O1_1 
REMARK    2  A    between atoms: C1_7  and  C3_9 
REMARK    3  A    between atoms: C3_9  and  C7_13 
REMARK    4  A    between atoms: C7_13  and  C9_15 
ROOT
HETATM    1  C3  UNK     1      16.446   6.943  33.167  1.00  0.00     0.137 C 
ENDROOT
BRANCH   1   2
HETATM    2  C1  UNK     1      15.707   8.045  32.423  1.00  0.00     0.174 A 
HETATM    3  C2  UNK     1      15.574   9.315  33.215  1.00  0.00     0.013 A 
HETATM    4  C5  UNK     1      14.223   9.612  33.389  1.00  0.00     0.044 A 
HETATM    5  C6  UNK     1      16.546  10.148  33.740  1.00  0.00     0.013 A 
HETATM    6  N1  UNK     1      13.442   8.639  32.774  1.00  0.00    -0.324 N 
HETATM    7  C8  UNK     1      13.788  10.726  34.079  1.00  0.00     0.030 A 
HETATM    8  C4  UNK     1      14.235   7.659  32.166  1.00  0.00     0.262 A 
HETATM    9  H3  UNK     1      12.429   8.653  32.770  1.00  0.00     0.169 HD
HETATM   10  O2  UNK     1      13.851   6.687  31.533  1.00  0.00    -0.269 OA
HETATM   11  C11 UNK     1      14.764  11.569  34.613  1.00  0.00     0.002 A 
HETATM   12  C10 UNK     1      16.131  11.282  34.445  1.00  0.00     0.001 A 
BRANCH   2  13
HETATM   13  O1  UNK     1      16.322   8.314  31.178  1.00  0.00    -0.375 OA
HETATM   14  H6  UNK     1      15.814   7.877  30.475  1.00  0.00     0.211 HD
ENDBRANCH   2  13
ENDBRANCH   1   2
BRANCH   1  15
HETATM   15  C7  UNK     1      17.876   6.790  32.691  1.00  0.00     0.169 C 
HETATM   16  O3  UNK     1      18.748   7.637  32.858  1.00  0.00    -0.292 OA
BRANCH  15  17
HETATM   17  C9  UNK     1      18.199   5.532  31.988  1.00  0.00     0.086 A 
HETATM   18  C12 UNK     1      18.134   4.412  32.718  1.00  0.00     0.035 A 
HETATM   19  C13 UNK     1      18.436   3.124  32.114  1.00  0.00    -0.001 A 
HETATM   20  C15 UNK     1      18.789   3.078  30.769  1.00  0.00     0.089 A 
HETATM   21  C16 UNK     1      18.382   1.930  32.838  1.00  0.00     0.014 A 
HETATM   22  O4  UNK     1      18.855   4.259  30.005  1.00  0.00    -0.274 OA
HETATM   23  C17 UNK     1      19.090   1.876  30.131  1.00  0.00     0.038 A 
HETATM   24  C14 UNK     1      18.573   5.506  30.556  1.00  0.00     0.302 A 
HETATM   25  O5  UNK     1      18.633   6.530  29.883  1.00  0.00    -0.259 OA
HETATM   26  C19 UNK     1      19.034   0.691  30.860  1.00  0.00     0.003 A 
HETATM   27  C18 UNK     1      18.681   0.718  32.211  1.00  0.00     0.001 A 
ENDBRANCH  15  17
ENDBRANCH   1  15
TORSDOF 4
ENDMDL
MODEL 3
REMARK VINA RESULT:      -9.1      4.394      7.065
REMARK  4 active torsions:
REMARK  status: ('A' for Active; 'I' for Inactive)
REMARK    1  A    between atoms: C1_7  and  O1_1 
REMARK    2  A    between atoms: C1_7  and  C3_9 
REMARK    3  A    between atoms: C3_9  and  C7_13 
REMARK    4  A    between atoms: C7_13  and  C9_15 
ROOT
HETATM    1  C3  UNK     1      17.561   0.791  34.944  1.00  0.00     0.137 C 
ENDROOT
BRANCH   1   2
HETATM    2  C1  UNK     1      18.520   0.436  36.072  1.00  0.00     0.174 A 
HETATM    3  C2  UNK     1      19.042  -0.970  35.990  1.00  0.00     0.013 A 
HETATM    4  C5  UNK     1      18.678  -1.666  37.143  1.00  0.00     0.044 A 
HETATM    5  C6  UNK     1      19.776  -1.596  34.999  1.00  0.00     0.013 A 
HETATM    6  N1  UNK     1      17.953  -0.833  37.988  1.00  0.00    -0.324 N 
HETATM    7  C8  UNK     1      19.019  -2.986  37.354  1.00  0.00     0.030 A 
HETATM    8  C4  UNK     1      17.806   0.446  37.440  1.00  0.00     0.262 A 
HETATM    9  H3  UNK     1      17.588  -1.126  38.887  1.00  0.00     0.169 HD
HETATM   10  O2  UNK     1      17.239   1.404  37.943  1.00  0.00    -0.269 OA
HETATM   11  C11 UNK     1      19.759  -3.624  36.357  1.00  0.00     0.002 A 
HETATM   12  C10 UNK     1      20.134  -2.935  35.189  1.00  0.00     0.001 A 
BRANCH   2  13
HETATM   13  O1  UNK     1      19.598   1.350  36.124  1.00  0.00    -0.375 OA
HETATM   14  H6  UNK     1      20.135   1.157  36.910  1.00  0.00     0.211 HD
ENDBRANCH   2  13
ENDBRANCH   1   2
BRANCH   1  15
HETATM   15  C7  UNK     1      18.085   1.919  34.080  1.00  0.00     0.169 C 
HETATM   16  O3  UNK     1      18.207   3.078  34.466  1.00  0.00    -0.292 OA
BRANCH  15  17
HETATM   17  C9  UNK     1      18.460   1.562  32.697  1.00  0.00     0.086 A 
HETATM   18  C12 UNK     1      19.015   0.357  32.527  1.00  0.00     0.035 A 
HETATM   19  C13 UNK     1      19.419  -0.084  31.201  1.00  0.00    -0.001 A 
HETATM   20  C15 UNK     1      19.217   0.765  30.118  1.00  0.00     0.089 A 
HETATM   21  C16 UNK     1      20.002  -1.335  30.977  1.00  0.00     0.014 A 
HETATM   22  O4  UNK     1      18.631   2.033  30.303  1.00  0.00    -0.274 OA
HETATM   23  C17 UNK     1      19.582   0.402  28.823  1.00  0.00     0.038 A 
HETATM   24  C14 UNK     1      18.236   2.483  31.559  1.00  0.00     0.302 A 
HETATM   25  O5  UNK     1      17.728   3.589  31.712  1.00  0.00    -0.259 OA
HETATM   26  C19 UNK     1      20.162  -0.844  28.609  1.00  0.00     0.003 A 
HETATM   27  C18 UNK     1      20.373  -1.712  29.683  1.00  0.00     0.001 A 
ENDBRANCH  15  17
ENDBRANCH   1  15
TORSDOF 4
ENDMDL
MODEL 4
REMARK VINA RESULT:      -8.8      8.319     12.351
REMARK  4 active torsions:
REMARK  status: ('A' for Active; 'I' for Inactive)
REMARK    1  A    between atoms: C1_7  and  O1_1 
REMARK    2  A    between atoms: C1_7  and  C3_9 
REMARK    3  A    between atoms: C3_9  and  C7_13 
REMARK    4  A    between atoms: C7_13  and  C9_15 
ROOT
HETATM    1  C3  UNK     1      19.136   4.398  32.377  1.00  0.00     0.137 C 
ENDROOT
BRANCH   1   2
HETATM    2  C1  UNK     1      19.133   5.901  32.139  1.00  0.00     0.174 A 
HETATM    3  C2  UNK     1      17.888   6.581  32.632  1.00  0.00     0.013 A 
HETATM    4  C5  UNK     1      17.249   7.207  31.562  1.00  0.00     0.044 A 
HETATM    5  C6  UNK     1      17.352   6.655  33.905  1.00  0.00     0.013 A 
HETATM    6  N1  UNK     1      17.972   6.998  30.392  1.00  0.00    -0.324 N 
HETATM    7  C8  UNK     1      16.074   7.917  31.708  1.00  0.00     0.030 A 
HETATM    8  C4  UNK     1      19.117   6.231  30.632  1.00  0.00     0.262 A 
HETATM    9  H3  UNK     1      17.696   7.365  29.489  1.00  0.00     0.169 HD
HETATM   10  O2  UNK     1      19.963   5.893  29.817  1.00  0.00    -0.269 OA
HETATM   11  C11 UNK     1      15.528   7.993  32.990  1.00  0.00     0.002 A 
HETATM   12  C10 UNK     1      16.161   7.367  34.079  1.00  0.00     0.001 A 
BRANCH   2  13
HETATM   13  O1  UNK     1      20.274   6.506  32.717  1.00  0.00    -0.375 OA
HETATM   14  H6  UNK     1      20.636   7.155  32.092  1.00  0.00     0.211 HD
ENDBRANCH   2  13
ENDBRANCH   1   2
BRANCH   1  15
HETATM   15  C7  UNK     1      18.118   3.680  31.518  1.00  0.00     0.169 C 
HETATM   16  O3  UNK     1      16.941   4.016  31.424  1.00  0.00    -0.292 OA
BRANCH  15  17
HETATM   17  C9  UNK     1      18.610   2.508  30.764  1.00  0.00     0.086 A 
HETATM   18  C12 UNK     1      19.032   1.470  31.495  1.00  0.00     0.035 A 
HETATM   19  C13 UNK     1      19.535   0.271  30.844  1.00  0.00    -0.001 A 
HETATM   20  C15 UNK     1      19.567   0.223  29.453  1.00  0.00     0.089 A 
HETATM   21  C16 UNK     1      19.987  -0.836  31.567  1.00  0.00     0.014 A 
HETATM   22  O4  UNK     1      19.121   1.319  28.689  1.00  0.00    -0.274 OA
HETATM   23  C17 UNK     1      20.038  -0.896  28.769  1.00  0.00     0.038 A 
HETATM   24  C14 UNK     1      18.635   2.480  29.284  1.00  0.00     0.302 A 
HETATM   25  O5  UNK     1      18.249   3.430  28.611  1.00  0.00    -0.259 OA
HETATM   26  C19 UNK     1      20.486  -1.994  29.497  1.00  0.00     0.003 A 
HETATM   27  C18 UNK     1      20.461  -1.965  30.893  1.00  0.00     0.001 A 
ENDBRANCH  15  17
ENDBRANCH   1  15
TORSDOF 4
ENDMDL
MODEL 5
REMARK VINA RESULT:      -8.7      2.169      7.612
REMARK  4 active torsions:
REMARK  status: ('A' for Active; 'I' for Inactive)
REMARK    1  A    between atoms: C1_7  and  O1_1 
REMARK    2  A    between atoms: C1_7  and  C3_9 
REMARK    3  A    between atoms: C3_9  and  C7_13 
REMARK    4  A    between atoms: C7_13  and  C9_15 
ROOT
HETATM    1  C3  UNK     1      19.362  -3.877  36.515  1.00  0.00     0.137 C 
ENDROOT
BRANCH   1   2
HETATM    2  C1  UNK     1      19.760  -2.480  36.060  1.00  0.00     0.174 A 
HETATM    3  C2  UNK     1      18.677  -1.458  36.257  1.00  0.00     0.013 A 
HETATM    4  C5  UNK     1      18.335  -0.904  35.024  1.00  0.00     0.044 A 
HETATM    5  C6  UNK     1      18.040  -1.039  37.412  1.00  0.00     0.013 A 
HETATM    6  N1  UNK     1      19.106  -1.477  34.018  1.00  0.00    -0.324 N 
HETATM    7  C8  UNK     1      17.365   0.069  34.887  1.00  0.00     0.030 A 
HETATM    8  C4  UNK     1      19.991  -2.430  34.536  1.00  0.00     0.262 A 
HETATM    9  H3  UNK     1      19.030  -1.224  33.040  1.00  0.00     0.169 HD
HETATM   10  O2  UNK     1      20.810  -3.091  33.914  1.00  0.00    -0.269 OA
HETATM   11  C11 UNK     1      16.718   0.494  36.049  1.00  0.00     0.002 A 
HETATM   12  C10 UNK     1      17.053  -0.055  37.300  1.00  0.00     0.001 A 
BRANCH   2  13
HETATM   13  O1  UNK     1      20.945  -2.058  36.706  1.00  0.00    -0.375 OA
HETATM   14  H6  UNK     1      21.710  -2.373  36.197  1.00  0.00     0.211 HD
ENDBRANCH   2  13
ENDBRANCH   1   2
BRANCH   1  15
HETATM   15  C7  UNK     1      20.562  -4.722  36.886  1.00  0.00     0.169 C 
HETATM   16  O3  UNK     1      21.650  -4.259  37.218  1.00  0.00    -0.292 OA
BRANCH  15  17
HETATM   17  C9  UNK     1      20.372  -6.186  36.832  1.00  0.00     0.086 A 
HETATM   18  C12 UNK     1      20.164  -6.799  38.003  1.00  0.00     0.035 A 
HETATM   19  C13 UNK     1      19.967  -8.239  38.051  1.00  0.00    -0.001 A 
HETATM   20  C15 UNK     1      19.998  -8.964  36.864  1.00  0.00     0.089 A 
HETATM   21  C16 UNK     1      19.746  -8.921  39.251  1.00  0.00     0.014 A 
HETATM   22  O4  UNK     1      20.217  -8.313  35.634  1.00  0.00    -0.274 OA
HETATM   23  C17 UNK     1      19.817 -10.345  36.843  1.00  0.00     0.038 A 
HETATM   24  C14 UNK     1      20.410  -6.937  35.556  1.00  0.00     0.302 A 
HETATM   25  O5  UNK     1      20.601  -6.378  34.481  1.00  0.00    -0.259 OA
HETATM   26  C19 UNK     1      19.598 -11.017  38.042  1.00  0.00     0.003 A 
HETATM   27  C18 UNK     1      19.563 -10.306  39.245  1.00  0.00     0.001 A 
ENDBRANCH  15  17
ENDBRANCH   1  15
TORSDOF 4
ENDMDL
MODEL 6
REMARK VINA RESULT:      -8.7      1.846      2.554
REMARK  4 active torsions:
REMARK  status: ('A' for Active; 'I' for Inactive)
REMARK    1  A    between atoms: C1_7  and  O1_1 
REMARK    2  A    between atoms: C1_7  and  C3_9 
REMARK    3  A    between atoms: C3_9  and  C7_13 
REMARK    4  A    between atoms: C7_13  and  C9_15 
ROOT
HETATM    1  C3  UNK     1      20.394  -5.117  37.598  1.00  0.00     0.137 C 
ENDROOT
BRANCH   1   2
HETATM    2  C1  UNK     1      21.249  -6.376  37.590  1.00  0.00     0.174 A 
HETATM    3  C2  UNK     1      20.498  -7.611  37.999  1.00  0.00     0.013 A 
HETATM    4  C5  UNK     1      21.096  -8.163  39.131  1.00  0.00     0.044 A 
HETATM    5  C6  UNK     1      19.386  -8.210  37.433  1.00  0.00     0.013 A 
HETATM    6  N1  UNK     1      22.190  -7.392  39.510  1.00  0.00    -0.324 N 
HETATM    7  C8  UNK     1      20.625  -9.309  39.738  1.00  0.00     0.030 A 
HETATM    8  C4  UNK     1      22.367  -6.301  38.651  1.00  0.00     0.262 A 
HETATM    9  H3  UNK     1      22.778  -7.607  40.306  1.00  0.00     0.169 HD
HETATM   10  O2  UNK     1      23.246  -5.454  38.706  1.00  0.00    -0.269 OA
HETATM   11  C11 UNK     1      19.503  -9.917  39.173  1.00  0.00     0.002 A 
HETATM   12  C10 UNK     1      18.889  -9.372  38.031  1.00  0.00     0.001 A 
BRANCH   2  13
HETATM   13  O1  UNK     1      21.847  -6.571  36.324  1.00  0.00    -0.375 OA
HETATM   14  H6  UNK     1      21.186  -6.945  35.719  1.00  0.00     0.211 HD
ENDBRANCH   2  13
ENDBRANCH   1   2
BRANCH   1  15
HETATM   15  C7  UNK     1      19.995  -4.686  36.203  1.00  0.00     0.169 C 
HETATM   16  O3  UNK     1      19.928  -5.449  35.243  1.00  0.00    -0.292 OA
BRANCH  15  17
HETATM   17  C9  UNK     1      19.678  -3.254  36.027  1.00  0.00     0.086 A 
HETATM   18  C12 UNK     1      18.958  -2.685  37.000  1.00  0.00     0.035 A 
HETATM   19  C13 UNK     1      18.595  -1.279  36.916  1.00  0.00    -0.001 A 
HETATM   20  C15 UNK     1      19.008  -0.541  35.812  1.00  0.00     0.089 A 
HETATM   21  C16 UNK     1      17.845  -0.642  37.909  1.00  0.00     0.014 A 
HETATM   22  O4  UNK     1      19.766  -1.146  34.790  1.00  0.00    -0.274 OA
HETATM   23  C17 UNK     1      18.693   0.809  35.671  1.00  0.00     0.038 A 
HETATM   24  C14 UNK     1      20.128  -2.489  34.842  1.00  0.00     0.302 A 
HETATM   25  O5  UNK     1      20.787  -3.009  33.948  1.00  0.00    -0.259 OA
HETATM   26  C19 UNK     1      17.945   1.435  36.665  1.00  0.00     0.003 A 
HETATM   27  C18 UNK     1      17.521   0.711  37.782  1.00  0.00     0.001 A 
ENDBRANCH  15  17
ENDBRANCH   1  15
TORSDOF 4
ENDMDL
MODEL 7
REMARK VINA RESULT:      -8.7      7.315     12.192
REMARK  4 active torsions:
REMARK  status: ('A' for Active; 'I' for Inactive)
REMARK    1  A    between atoms: C1_7  and  O1_1 
REMARK    2  A    between atoms: C1_7  and  C3_9 
REMARK    3  A    between atoms: C3_9  and  C7_13 
REMARK    4  A    between atoms: C7_13  and  C9_15 
ROOT
HETATM    1  C3  UNK     1      17.558   4.243  31.833  1.00  0.00     0.137 C 
ENDROOT
BRANCH   1   2
HETATM    2  C1  UNK     1      18.060   5.678  31.913  1.00  0.00     0.174 A 
HETATM    3  C2  UNK     1      17.075   6.620  32.546  1.00  0.00     0.013 A 
HETATM    4  C5  UNK     1      16.743   7.622  31.635  1.00  0.00     0.044 A 
HETATM    5  C6  UNK     1      16.515   6.611  33.812  1.00  0.00     0.013 A 
HETATM    6  N1  UNK     1      17.429   7.422  30.442  1.00  0.00    -0.324 N 
HETATM    7  C8  UNK     1      15.856   8.636  31.935  1.00  0.00     0.030 A 
HETATM    8  C4  UNK     1      18.245   6.287  30.507  1.00  0.00     0.262 A 
HETATM    9  H3  UNK     1      17.343   8.032  29.638  1.00  0.00     0.169 HD
HETATM   10  O2  UNK     1      18.983   5.858  29.633  1.00  0.00    -0.269 OA
HETATM   11  C11 UNK     1      15.286   8.632  33.209  1.00  0.00     0.002 A 
HETATM   12  C10 UNK     1      15.613   7.628  34.139  1.00  0.00     0.001 A 
BRANCH   2  13
HETATM   13  O1  UNK     1      19.297   5.742  32.595  1.00  0.00    -0.375 OA
HETATM   14  H6  UNK     1      19.288   6.510  33.189  1.00  0.00     0.211 HD
ENDBRANCH   2  13
ENDBRANCH   1   2
BRANCH   1  15
HETATM   15  C7  UNK     1      18.163   3.364  32.907  1.00  0.00     0.169 C 
HETATM   16  O3  UNK     1      18.305   3.710  34.076  1.00  0.00    -0.292 OA
BRANCH  15  17
HETATM   17  C9  UNK     1      18.598   2.018  32.481  1.00  0.00     0.086 A 
HETATM   18  C12 UNK     1      19.042   1.910  31.224  1.00  0.00     0.035 A 
HETATM   19  C13 UNK     1      19.491   0.625  30.713  1.00  0.00    -0.001 A 
HETATM   20  C15 UNK     1      19.451  -0.485  31.551  1.00  0.00     0.089 A 
HETATM   21  C16 UNK     1      19.963   0.466  29.407  1.00  0.00     0.014 A 
HETATM   22  O4  UNK     1      18.982  -0.365  32.874  1.00  0.00    -0.274 OA
HETATM   23  C17 UNK     1      19.866  -1.744  31.122  1.00  0.00     0.038 A 
HETATM   24  C14 UNK     1      18.545   0.851  33.391  1.00  0.00     0.302 A 
HETATM   25  O5  UNK     1      18.138   0.946  34.544  1.00  0.00    -0.259 OA
HETATM   26  C19 UNK     1      20.335  -1.893  29.820  1.00  0.00     0.003 A 
HETATM   27  C18 UNK     1      20.383  -0.791  28.963  1.00  0.00     0.001 A 
ENDBRANCH  15  17
ENDBRANCH   1  15
TORSDOF 4
ENDMDL
MODEL 8
REMARK VINA RESULT:      -8.7      2.057      3.077
REMARK  4 active torsions:
REMARK  status: ('A' for Active; 'I' for Inactive)
REMARK    1  A    between atoms: C1_7  and  O1_1 
REMARK    2  A    between atoms: C1_7  and  C3_9 
REMARK    3  A    between atoms: C3_9  and  C7_13 
REMARK    4  A    between atoms: C7_13  and  C9_15 
ROOT
HETATM    1  C3  UNK     1      19.890  -5.765  35.862  1.00  0.00     0.137 C 
ENDROOT
BRANCH   1   2
HETATM    2  C1  UNK     1      18.788  -6.482  36.629  1.00  0.00     0.174 A 
HETATM    3  C2  UNK     1      19.305  -7.358  37.734  1.00  0.00     0.013 A 
HETATM    4  C5  UNK     1      18.913  -8.676  37.501  1.00  0.00     0.044 A 
HETATM    5  C6  UNK     1      20.052  -7.039  38.855  1.00  0.00     0.013 A 
HETATM    6  N1  UNK     1      18.174  -8.748  36.324  1.00  0.00    -0.324 N 
HETATM    7  C8  UNK     1      19.241  -9.712  38.352  1.00  0.00     0.030 A 
HETATM    8  C4  UNK     1      18.041  -7.488  35.729  1.00  0.00     0.262 A 
HETATM    9  H3  UNK     1      17.783  -9.608  35.960  1.00  0.00     0.169 HD
HETATM   10  O2  UNK     1      17.437  -7.218  34.702  1.00  0.00    -0.269 OA
HETATM   11  C11 UNK     1      19.996  -9.397  39.482  1.00  0.00     0.002 A 
HETATM   12  C10 UNK     1      20.398  -8.072  39.732  1.00  0.00     0.001 A 
BRANCH   2  13
HETATM   13  O1  UNK     1      17.849  -5.559  37.143  1.00  0.00    -0.375 OA
HETATM   14  H6  UNK     1      17.871  -4.753  36.602  1.00  0.00     0.211 HD
ENDBRANCH   2  13
ENDBRANCH   1   2
BRANCH   1  15
HETATM   15  C7  UNK     1      20.111  -4.353  36.362  1.00  0.00     0.169 C 
HETATM   16  O3  UNK     1      20.569  -4.082  37.468  1.00  0.00    -0.292 OA
BRANCH  15  17
HETATM   17  C9  UNK     1      19.737  -3.265  35.435  1.00  0.00     0.086 A 
HETATM   18  C12 UNK     1      20.389  -3.235  34.266  1.00  0.00     0.035 A 
HETATM   19  C13 UNK     1      20.091  -2.202  33.287  1.00  0.00    -0.001 A 
HETATM   20  C15 UNK     1      19.121  -1.250  33.587  1.00  0.00     0.089 A 
HETATM   21  C16 UNK     1      20.746  -2.132  32.055  1.00  0.00     0.014 A 
HETATM   22  O4  UNK     1      18.439  -1.287  34.818  1.00  0.00    -0.274 OA
HETATM   23  C17 UNK     1      18.791  -0.234  32.692  1.00  0.00     0.038 A 
HETATM   24  C14 UNK     1      18.703  -2.263  35.775  1.00  0.00     0.302 A 
HETATM   25  O5  UNK     1      18.104  -2.287  36.845  1.00  0.00    -0.259 OA
HETATM   26  C19 UNK     1      19.448  -0.171  31.467  1.00  0.00     0.003 A 
HETATM   27  C18 UNK     1      20.424  -1.118  31.148  1.00  0.00     0.001 A 
ENDBRANCH  15  17
ENDBRANCH   1  15
TORSDOF 4
ENDMDL
MODEL 9
REMARK VINA RESULT:      -8.6      7.651     12.431
REMARK  4 active torsions:
REMARK  status: ('A' for Active; 'I' for Inactive)
REMARK    1  A    between atoms: C1_7  and  O1_1 
REMARK    2  A    between atoms: C1_7  and  C3_9 
REMARK    3  A    between atoms: C3_9  and  C7_13 
REMARK    4  A    between atoms: C7_13  and  C9_15 
ROOT
HETATM    1  C3  UNK     1      17.388   4.950  31.655  1.00  0.00     0.137 C 
ENDROOT
BRANCH   1   2
HETATM    2  C1  UNK     1      17.443   6.468  31.561  1.00  0.00     0.174 A 
HETATM    3  C2  UNK     1      18.391   7.093  32.545  1.00  0.00     0.013 A 
HETATM    4  C5  UNK     1      17.686   7.959  33.380  1.00  0.00     0.044 A 
HETATM    5  C6  UNK     1      19.756   6.927  32.702  1.00  0.00     0.013 A 
HETATM    6  N1  UNK     1      16.340   7.961  33.030  1.00  0.00    -0.324 N 
HETATM    7  C8  UNK     1      18.293   8.681  34.388  1.00  0.00     0.030 A 
HETATM    8  C4  UNK     1      16.092   7.104  31.952  1.00  0.00     0.262 A 
HETATM    9  H3  UNK     1      15.639   8.521  33.501  1.00  0.00     0.169 HD
HETATM   10  O2  UNK     1      15.020   6.901  31.402  1.00  0.00    -0.269 OA
HETATM   11  C11 UNK     1      19.669   8.517  34.552  1.00  0.00     0.002 A 
HETATM   12  C10 UNK     1      20.394   7.647  33.717  1.00  0.00     0.001 A 
BRANCH   2  13
HETATM   13  O1  UNK     1      17.768   6.881  30.248  1.00  0.00    -0.375 OA
HETATM   14  H6  UNK     1      18.020   7.819  30.267  1.00  0.00     0.211 HD
ENDBRANCH   2  13
ENDBRANCH   1   2
BRANCH   1  15
HETATM   15  C7  UNK     1      18.443   4.285  30.796  1.00  0.00     0.169 C 
HETATM   16  O3  UNK     1      19.064   4.859  29.907  1.00  0.00    -0.292 OA
BRANCH  15  17
HETATM   17  C9  UNK     1      18.710   2.859  31.076  1.00  0.00     0.086 A 
HETATM   18  C12 UNK     1      19.222   2.144  30.068  1.00  0.00     0.035 A 
HETATM   19  C13 UNK     1      19.518   0.732  30.247  1.00  0.00    -0.001 A 
HETATM   20  C15 UNK     1      19.261   0.141  31.480  1.00  0.00     0.089 A 
HETATM   21  C16 UNK     1      20.053  -0.053  29.222  1.00  0.00     0.014 A 
HETATM   22  O4  UNK     1      18.722   0.899  32.538  1.00  0.00    -0.274 OA
HETATM   23  C17 UNK     1      19.521  -1.208  31.715  1.00  0.00     0.038 A 
HETATM   24  C14 UNK     1      18.428   2.252  32.396  1.00  0.00     0.302 A 
HETATM   25  O5  UNK     1      17.958   2.904  33.323  1.00  0.00    -0.259 OA
HETATM   26  C19 UNK     1      20.054  -1.983  30.689  1.00  0.00     0.003 A 
HETATM   27  C18 UNK     1      20.319  -1.407  29.444  1.00  0.00     0.001 A 
ENDBRANCH  15  17
ENDBRANCH   1  15
TORSDOF 4
ENDMDL
MODEL 10
REMARK VINA RESULT:      -8.5      7.679     12.344
REMARK  4 active torsions:
REMARK  status: ('A' for Active; 'I' for Inactive)
REMARK    1  A    between atoms: C1_7  and  O1_1 
REMARK    2  A    between atoms: C1_7  and  C3_9 
REMARK    3  A    between atoms: C3_9  and  C7_13 
REMARK    4  A    between atoms: C7_13  and  C9_15 
ROOT
HETATM    1  C3  UNK     1      19.007   5.242  31.674  1.00  0.00     0.137 C 
ENDROOT
BRANCH   1   2
HETATM    2  C1  UNK     1      19.142   5.868  33.055  1.00  0.00     0.174 A 
HETATM    3  C2  UNK     1      18.184   7.001  33.292  1.00  0.00     0.013 A 
HETATM    4  C5  UNK     1      18.903   8.165  33.561  1.00  0.00     0.044 A 
HETATM    5  C6  UNK     1      16.801   7.022  33.279  1.00  0.00     0.013 A 
HETATM    6  N1  UNK     1      20.268   7.897  33.522  1.00  0.00    -0.324 N 
HETATM    7  C8  UNK     1      18.292   9.375  33.822  1.00  0.00     0.030 A 
HETATM    8  C4  UNK     1      20.514   6.551  33.229  1.00  0.00     0.262 A 
HETATM    9  H3  UNK     1      20.981   8.596  33.691  1.00  0.00     0.169 HD
HETATM   10  O2  UNK     1      21.602   6.002  33.143  1.00  0.00    -0.269 OA
HETATM   11  C11 UNK     1      16.897   9.402  33.808  1.00  0.00     0.002 A 
HETATM   12  C10 UNK     1      16.158   8.236  33.539  1.00  0.00     0.001 A 
BRANCH   2  13
HETATM   13  O1  UNK     1      18.996   4.892  34.068  1.00  0.00    -0.375 OA
HETATM   14  H6  UNK     1      19.191   4.018  33.692  1.00  0.00     0.211 HD
ENDBRANCH   2  13
ENDBRANCH   1   2
BRANCH   1  15
HETATM   15  C7  UNK     1      17.931   4.177  31.631  1.00  0.00     0.169 C 
HETATM   16  O3  UNK     1      16.728   4.420  31.621  1.00  0.00    -0.292 OA
BRANCH  15  17
HETATM   17  C9  UNK     1      18.399   2.777  31.601  1.00  0.00     0.086 A 
HETATM   18  C12 UNK     1      18.884   2.340  30.432  1.00  0.00     0.035 A 
HETATM   19  C13 UNK     1      19.368   0.975  30.304  1.00  0.00    -0.001 A 
HETATM   20  C15 UNK     1      19.319   0.136  31.412  1.00  0.00     0.089 A 
HETATM   21  C16 UNK     1      19.882   0.477  29.103  1.00  0.00     0.014 A 
HETATM   22  O4  UNK     1      18.809   0.601  32.639  1.00  0.00    -0.274 OA
HETATM   23  C17 UNK     1      19.767  -1.183  31.354  1.00  0.00     0.038 A 
HETATM   24  C14 UNK     1      18.337   1.901  32.793  1.00  0.00     0.302 A 
HETATM   25  O5  UNK     1      17.893   2.298  33.865  1.00  0.00    -0.259 OA
HETATM   26  C19 UNK     1      20.278  -1.671  30.155  1.00  0.00     0.003 A 
HETATM   27  C18 UNK     1      20.335  -0.844  29.031  1.00  0.00     0.001 A 
ENDBRANCH  15  17
ENDBRANCH   1  15
TORSDOF 4
ENDMDL
