MODEL 1
REMARK VINA RESULT:      -8.9      0.000      0.000
REMARK  4 active torsions:
REMARK  status: ('A' for Active; 'I' for Inactive)
REMARK    1  A    between atoms: C9_15  and  O2_2 
REMARK    2  A    between atoms: C1_7  and  N1_5 
REMARK       I    between atoms: C6_12  and  N1_5 
REMARK    3  A    between atoms: C1_7  and  C2_8 
REMARK    4  A    between atoms: C4_10  and  C6_12 
ROOT
HETATM    1  O1  UNK     1      18.847   0.305  32.489  1.00  0.00    -0.271 OA
HETATM    2  O4  UNK     1      17.948   2.396  32.682  1.00  0.00    -0.259 OA
HETATM    3  C4  UNK     1      18.921   1.848  30.592  1.00  0.00     0.108 A 
HETATM    4  C5  UNK     1      19.873  -0.371  30.390  1.00  0.00     0.002 A 
HETATM    5  C7  UNK     1      19.512  -0.657  31.703  1.00  0.00     0.123 A 
HETATM    6  C8  UNK     1      19.552   0.938  29.842  1.00  0.00     0.037 A 
HETATM    7  C9  UNK     1      19.789  -1.891  32.289  1.00  0.00     0.102 A 
HETATM    8  C12 UNK     1      18.528   1.565  31.992  1.00  0.00     0.304 A 
HETATM    9  C13 UNK     1      20.531  -1.352  29.643  1.00  0.00     0.014 A 
HETATM   10  C14 UNK     1      20.445  -2.863  31.536  1.00  0.00     0.040 A 
HETATM   11  C15 UNK     1      20.816  -2.594  30.216  1.00  0.00     0.004 A 
ENDROOT
BRANCH   3  12
HETATM   12  C6  UNK     1      18.641   3.138  29.951  1.00  0.00     0.258 C 
HETATM   13  O3  UNK     1      18.197   3.190  28.806  1.00  0.00    -0.267 OA
HETATM   14  N1  UNK     1      18.933   4.218  30.765  1.00  0.00    -0.348 N 
HETATM   15  H2  UNK     1      19.361   4.055  31.671  1.00  0.00     0.163 HD
BRANCH  14  16
HETATM   16  C1  UNK     1      18.744   5.589  30.351  1.00  0.00     0.114 C 
HETATM   17  C3  UNK     1      19.995   6.139  29.677  1.00  0.00     0.037 C 
BRANCH  16  18
HETATM   18  C2  UNK     1      18.308   6.420  31.540  1.00  0.00    -0.033 A 
HETATM   19  C10 UNK     1      17.233   7.274  31.408  1.00  0.00     0.028 A 
HETATM   20  C16 UNK     1      16.873   8.012  32.525  1.00  0.00     0.116 A 
HETATM   21  N2  UNK     1      17.509   7.941  33.716  1.00  0.00    -0.273 NA
HETATM   22  C17 UNK     1      18.556   7.089  33.788  1.00  0.00     0.116 A 
HETATM   23  C11 UNK     1      18.993   6.308  32.731  1.00  0.00     0.028 A 
ENDBRANCH  16  18
ENDBRANCH  14  16
ENDBRANCH   3  12
BRANCH   7  24
HETATM   24  O2  UNK     1      19.430  -2.157  33.573  1.00  0.00    -0.353 OA
HETATM   25  C18 UNK     1      20.474  -2.514  34.478  1.00  0.00     0.210 C 
ENDBRANCH   7  24
TORSDOF 4
ENDMDL
MODEL 2
REMARK VINA RESULT:      -8.6      5.335     10.822
REMARK  4 active torsions:
REMARK  status: ('A' for Active; 'I' for Inactive)
REMARK    1  A    between atoms: C9_15  and  O2_2 
REMARK    2  A    between atoms: C1_7  and  N1_5 
REMARK       I    between atoms: C6_12  and  N1_5 
REMARK    3  A    between atoms: C1_7  and  C2_8 
REMARK    4  A    between atoms: C4_10  and  C6_12 
ROOT
HETATM    1  O1  UNK     1      19.499  -0.948  34.868  1.00  0.00    -0.271 OA
HETATM    2  O4  UNK     1      20.587  -2.874  34.298  1.00  0.00    -0.259 OA
HETATM    3  C4  UNK     1      19.601  -2.810  36.451  1.00  0.00     0.108 A 
HETATM    4  C5  UNK     1      18.446  -0.766  37.052  1.00  0.00     0.002 A 
HETATM    5  C7  UNK     1      18.757  -0.213  35.814  1.00  0.00     0.123 A 
HETATM    6  C8  UNK     1      18.897  -2.116  37.353  1.00  0.00     0.037 A 
HETATM    7  C9  UNK     1      18.355   1.074  35.462  1.00  0.00     0.102 A 
HETATM    8  C12 UNK     1      19.944  -2.241  35.127  1.00  0.00     0.304 A 
HETATM    9  C13 UNK     1      17.709  -0.006  37.964  1.00  0.00     0.014 A 
HETATM   10  C14 UNK     1      17.620   1.825  36.377  1.00  0.00     0.040 A 
HETATM   11  C15 UNK     1      17.298   1.286  37.626  1.00  0.00     0.004 A 
ENDROOT
BRANCH   3  12
HETATM   12  C6  UNK     1      20.011  -4.162  36.847  1.00  0.00     0.258 C 
HETATM   13  O3  UNK     1      21.178  -4.404  37.149  1.00  0.00    -0.267 OA
HETATM   14  N1  UNK     1      18.966  -5.068  36.830  1.00  0.00    -0.348 N 
HETATM   15  H2  UNK     1      18.054  -4.768  36.498  1.00  0.00     0.163 HD
BRANCH  14  16
HETATM   16  C1  UNK     1      19.126  -6.461  37.179  1.00  0.00     0.114 C 
HETATM   17  C3  UNK     1      19.752  -6.615  38.560  1.00  0.00     0.037 C 
BRANCH  16  18
HETATM   18  C2  UNK     1      19.917  -7.165  36.097  1.00  0.00    -0.033 A 
HETATM   19  C10 UNK     1      20.671  -8.273  36.425  1.00  0.00     0.028 A 
HETATM   20  C16 UNK     1      21.376  -8.882  35.399  1.00  0.00     0.116 A 
HETATM   21  N2  UNK     1      21.364  -8.457  34.116  1.00  0.00    -0.273 NA
HETATM   22  C17 UNK     1      20.609  -7.368  33.851  1.00  0.00     0.116 A 
HETATM   23  C11 UNK     1      19.868  -6.688  34.804  1.00  0.00     0.028 A 
ENDBRANCH  16  18
ENDBRANCH  14  16
ENDBRANCH   3  12
BRANCH   7  24
HETATM   24  O2  UNK     1      18.667   1.602  34.248  1.00  0.00    -0.353 OA
HETATM   25  C18 UNK     1      18.350   2.977  34.037  1.00  0.00     0.210 C 
ENDBRANCH   7  24
TORSDOF 4
ENDMDL
MODEL 3
REMARK VINA RESULT:      -8.5      2.485      3.758
REMARK  4 active torsions:
REMARK  status: ('A' for Active; 'I' for Inactive)
REMARK    1  A    between atoms: C9_15  and  O2_2 
REMARK    2  A    between atoms: C1_7  and  N1_5 
REMARK       I    between atoms: C6_12  and  N1_5 
REMARK    3  A    between atoms: C1_7  and  C2_8 
REMARK    4  A    between atoms: C4_10  and  C6_12 
ROOT
HETATM    1  O1  UNK     1      18.756  -0.220  33.891  1.00  0.00    -0.271 OA
HETATM    2  O4  UNK     1      18.994   0.360  31.694  1.00  0.00    -0.259 OA
HETATM    3  C4  UNK     1      18.192   2.043  33.156  1.00  0.00     0.108 A 
HETATM    4  C5  UNK     1      17.941   1.425  35.485  1.00  0.00     0.002 A 
HETATM    5  C7  UNK     1      18.394   0.140  35.205  1.00  0.00     0.123 A 
HETATM    6  C8  UNK     1      17.847   2.391  34.401  1.00  0.00     0.037 A 
HETATM    7  C9  UNK     1      18.508  -0.832  36.196  1.00  0.00     0.102 A 
HETATM    8  C12 UNK     1      18.677   0.681  32.834  1.00  0.00     0.304 A 
HETATM    9  C13 UNK     1      17.593   1.744  36.800  1.00  0.00     0.014 A 
HETATM   10  C14 UNK     1      18.159  -0.505  37.505  1.00  0.00     0.040 A 
HETATM   11  C15 UNK     1      17.701   0.781  37.806  1.00  0.00     0.004 A 
ENDROOT
BRANCH   3  12
HETATM   12  C6  UNK     1      18.063   3.086  32.131  1.00  0.00     0.258 C 
HETATM   13  O3  UNK     1      17.477   2.862  31.074  1.00  0.00    -0.267 OA
HETATM   14  N1  UNK     1      18.659   4.279  32.499  1.00  0.00    -0.348 N 
HETATM   15  H2  UNK     1      19.175   4.327  33.373  1.00  0.00     0.163 HD
BRANCH  14  16
HETATM   16  C1  UNK     1      18.665   5.450  31.653  1.00  0.00     0.114 C 
HETATM   17  C3  UNK     1      19.834   5.417  30.675  1.00  0.00     0.037 C 
BRANCH  16  18
HETATM   18  C2  UNK     1      18.659   6.696  32.514  1.00  0.00    -0.033 A 
HETATM   19  C10 UNK     1      17.588   7.562  32.439  1.00  0.00     0.028 A 
HETATM   20  C16 UNK     1      17.630   8.687  33.247  1.00  0.00     0.116 A 
HETATM   21  N2  UNK     1      18.646   8.976  34.090  1.00  0.00    -0.273 NA
HETATM   22  C17 UNK     1      19.669   8.093  34.122  1.00  0.00     0.116 A 
HETATM   23  C11 UNK     1      19.722   6.941  33.356  1.00  0.00     0.028 A 
ENDBRANCH  16  18
ENDBRANCH  14  16
ENDBRANCH   3  12
BRANCH   7  24
HETATM   24  O2  UNK     1      18.953  -2.084  35.907  1.00  0.00    -0.353 OA
HETATM   25  C18 UNK     1      20.295  -2.398  36.276  1.00  0.00     0.210 C 
ENDBRANCH   7  24
TORSDOF 4
ENDMDL
MODEL 4
REMARK VINA RESULT:      -8.5      4.368      8.791
REMARK  4 active torsions:
REMARK  status: ('A' for Active; 'I' for Inactive)
REMARK    1  A    between atoms: C9_15  and  O2_2 
REMARK    2  A    between atoms: C1_7  and  N1_5 
REMARK       I    between atoms: C6_12  and  N1_5 
REMARK    3  A    between atoms: C1_7  and  C2_8 
REMARK    4  A    between atoms: C4_10  and  C6_12 
ROOT
HETATM    1  O1  UNK     1      18.686   0.785  32.326  1.00  0.00    -0.271 OA
HETATM    2  O4  UNK     1      17.907   0.997  34.463  1.00  0.00    -0.259 OA
HETATM    3  C4  UNK     1      18.923  -1.070  33.903  1.00  0.00     0.108 A 
HETATM    4  C5  UNK     1      19.749  -1.291  31.636  1.00  0.00     0.002 A 
HETATM    5  C7  UNK     1      19.322   0.001  31.343  1.00  0.00     0.123 A 
HETATM    6  C8  UNK     1      19.527  -1.818  32.974  1.00  0.00     0.037 A 
HETATM    7  C9  UNK     1      19.504   0.566  30.082  1.00  0.00     0.102 A 
HETATM    8  C12 UNK     1      18.461   0.308  33.614  1.00  0.00     0.304 A 
HETATM    9  C13 UNK     1      20.376  -2.037  30.635  1.00  0.00     0.014 A 
HETATM   10  C14 UNK     1      20.131  -0.185  29.090  1.00  0.00     0.040 A 
HETATM   11  C15 UNK     1      20.565  -1.484  29.365  1.00  0.00     0.004 A 
ENDROOT
BRANCH   3  12
HETATM   12  C6  UNK     1      18.745  -1.689  35.222  1.00  0.00     0.258 C 
HETATM   13  O3  UNK     1      18.041  -1.158  36.078  1.00  0.00    -0.267 OA
HETATM   14  N1  UNK     1      19.438  -2.879  35.356  1.00  0.00    -0.348 N 
HETATM   15  H2  UNK     1      20.043  -3.188  34.601  1.00  0.00     0.163 HD
BRANCH  14  16
HETATM   16  C1  UNK     1      19.419  -3.669  36.564  1.00  0.00     0.114 C 
HETATM   17  C3  UNK     1      20.631  -3.367  37.439  1.00  0.00     0.037 C 
BRANCH  16  18
HETATM   18  C2  UNK     1      19.308  -5.136  36.208  1.00  0.00    -0.033 A 
HETATM   19  C10 UNK     1      18.383  -5.922  36.863  1.00  0.00     0.028 A 
HETATM   20  C16 UNK     1      18.319  -7.258  36.499  1.00  0.00     0.116 A 
HETATM   21  N2  UNK     1      19.102  -7.823  35.553  1.00  0.00    -0.273 NA
HETATM   22  C17 UNK     1      19.991  -7.007  34.944  1.00  0.00     0.116 A 
HETATM   23  C11 UNK     1      20.133  -5.660  35.234  1.00  0.00     0.028 A 
ENDBRANCH  16  18
ENDBRANCH  14  16
ENDBRANCH   3  12
BRANCH   7  24
HETATM   24  O2  UNK     1      19.083   1.830  29.810  1.00  0.00    -0.353 OA
HETATM   25  C18 UNK     1      17.940   1.966  28.966  1.00  0.00     0.210 C 
ENDBRANCH   7  24
TORSDOF 4
ENDMDL
MODEL 5
REMARK VINA RESULT:      -8.5      2.916      7.780
REMARK  4 active torsions:
REMARK  status: ('A' for Active; 'I' for Inactive)
REMARK    1  A    between atoms: C9_15  and  O2_2 
REMARK    2  A    between atoms: C1_7  and  N1_5 
REMARK       I    between atoms: C6_12  and  N1_5 
REMARK    3  A    between atoms: C1_7  and  C2_8 
REMARK    4  A    between atoms: C4_10  and  C6_12 
ROOT
HETATM    1  O1  UNK     1      20.090   6.744  32.707  1.00  0.00    -0.271 OA
HETATM    2  O4  UNK     1      21.270   5.739  31.030  1.00  0.00    -0.259 OA
HETATM    3  C4  UNK     1      18.961   5.224  31.159  1.00  0.00     0.108 A 
HETATM    4  C5  UNK     1      17.712   6.293  32.940  1.00  0.00     0.002 A 
HETATM    5  C7  UNK     1      18.864   6.941  33.373  1.00  0.00     0.123 A 
HETATM    6  C8  UNK     1      17.794   5.408  31.787  1.00  0.00     0.037 A 
HETATM    7  C9  UNK     1      18.854   7.802  34.469  1.00  0.00     0.102 A 
HETATM    8  C12 UNK     1      20.200   5.904  31.603  1.00  0.00     0.304 A 
HETATM    9  C13 UNK     1      16.515   6.515  33.625  1.00  0.00     0.014 A 
HETATM   10  C14 UNK     1      17.656   8.017  35.147  1.00  0.00     0.040 A 
HETATM   11  C15 UNK     1      16.489   7.374  34.726  1.00  0.00     0.004 A 
ENDROOT
BRANCH   3  12
HETATM   12  C6  UNK     1      18.943   4.314  30.008  1.00  0.00     0.258 C 
HETATM   13  O3  UNK     1      18.818   4.745  28.864  1.00  0.00    -0.267 OA
HETATM   14  N1  UNK     1      19.076   2.985  30.371  1.00  0.00    -0.348 N 
HETATM   15  H2  UNK     1      19.105   2.740  31.357  1.00  0.00     0.163 HD
BRANCH  14  16
HETATM   16  C1  UNK     1      19.083   1.904  29.413  1.00  0.00     0.114 C 
HETATM   17  C3  UNK     1      17.744   1.799  28.692  1.00  0.00     0.037 C 
BRANCH  16  18
HETATM   18  C2  UNK     1      19.476   0.616  30.106  1.00  0.00    -0.033 A 
HETATM   19  C10 UNK     1      19.091   0.410  31.414  1.00  0.00     0.028 A 
HETATM   20  C16 UNK     1      19.475  -0.785  32.003  1.00  0.00     0.116 A 
HETATM   21  N2  UNK     1      20.194  -1.742  31.374  1.00  0.00    -0.273 NA
HETATM   22  C17 UNK     1      20.544  -1.486  30.094  1.00  0.00     0.116 A 
HETATM   23  C11 UNK     1      20.210  -0.325  29.416  1.00  0.00     0.028 A 
ENDBRANCH  16  18
ENDBRANCH  14  16
ENDBRANCH   3  12
BRANCH   7  24
HETATM   24  O2  UNK     1      19.988   8.429  34.881  1.00  0.00    -0.353 OA
HETATM   25  C18 UNK     1      20.186   9.771  34.438  1.00  0.00     0.210 C 
ENDBRANCH   7  24
TORSDOF 4
ENDMDL
MODEL 6
REMARK VINA RESULT:      -8.4     11.181     14.011
REMARK  4 active torsions:
REMARK  status: ('A' for Active; 'I' for Inactive)
REMARK    1  A    between atoms: C9_15  and  O2_2 
REMARK    2  A    between atoms: C1_7  and  N1_5 
REMARK       I    between atoms: C6_12  and  N1_5 
REMARK    3  A    between atoms: C1_7  and  C2_8 
REMARK    4  A    between atoms: C4_10  and  C6_12 
ROOT
HETATM    1  O1  UNK     1      25.641  -5.573  38.829  1.00  0.00    -0.271 OA
HETATM    2  O4  UNK     1      23.371  -5.327  38.892  1.00  0.00    -0.259 OA
HETATM    3  C4  UNK     1      24.197  -7.546  38.805  1.00  0.00     0.108 A 
HETATM    4  C5  UNK     1      26.606  -7.803  38.738  1.00  0.00     0.002 A 
HETATM    5  C7  UNK     1      26.765  -6.421  38.776  1.00  0.00     0.123 A 
HETATM    6  C8  UNK     1      25.260  -8.357  38.755  1.00  0.00     0.037 A 
HETATM    7  C9  UNK     1      28.025  -5.827  38.764  1.00  0.00     0.102 A 
HETATM    8  C12 UNK     1      24.343  -6.073  38.846  1.00  0.00     0.304 A 
HETATM    9  C13 UNK     1      27.744  -8.612  38.687  1.00  0.00     0.014 A 
HETATM   10  C14 UNK     1      29.155  -6.640  38.713  1.00  0.00     0.040 A 
HETATM   11  C15 UNK     1      29.015  -8.030  38.673  1.00  0.00     0.004 A 
ENDROOT
BRANCH   3  12
HETATM   12  C6  UNK     1      22.883  -8.199  38.818  1.00  0.00     0.258 C 
HETATM   13  O3  UNK     1      22.186  -8.195  39.830  1.00  0.00    -0.267 OA
HETATM   14  N1  UNK     1      22.561  -8.785  37.606  1.00  0.00    -0.348 N 
HETATM   15  H2  UNK     1      23.246  -8.783  36.856  1.00  0.00     0.163 HD
BRANCH  14  16
HETATM   16  C1  UNK     1      21.321  -9.488  37.377  1.00  0.00     0.114 C 
HETATM   17  C3  UNK     1      21.573 -10.871  36.786  1.00  0.00     0.037 C 
BRANCH  16  18
HETATM   18  C2  UNK     1      20.411  -8.642  36.511  1.00  0.00    -0.033 A 
HETATM   19  C10 UNK     1      19.055  -8.632  36.765  1.00  0.00     0.028 A 
HETATM   20  C16 UNK     1      18.266  -7.840  35.946  1.00  0.00     0.116 A 
HETATM   21  N2  UNK     1      18.745  -7.090  34.929  1.00  0.00    -0.273 NA
HETATM   22  C17 UNK     1      20.081  -7.139  34.725  1.00  0.00     0.116 A 
HETATM   23  C11 UNK     1      20.955  -7.896  35.487  1.00  0.00     0.028 A 
ENDBRANCH  16  18
ENDBRANCH  14  16
ENDBRANCH   3  12
BRANCH   7  24
HETATM   24  O2  UNK     1      28.165  -4.475  38.801  1.00  0.00    -0.353 OA
HETATM   25  C18 UNK     1      29.450  -3.964  39.157  1.00  0.00     0.210 C 
ENDBRANCH   7  24
TORSDOF 4
ENDMDL
MODEL 7
REMARK VINA RESULT:      -8.1      5.726     11.046
REMARK  4 active torsions:
REMARK  status: ('A' for Active; 'I' for Inactive)
REMARK    1  A    between atoms: C9_15  and  O2_2 
REMARK    2  A    between atoms: C1_7  and  N1_5 
REMARK       I    between atoms: C6_12  and  N1_5 
REMARK    3  A    between atoms: C1_7  and  C2_8 
REMARK    4  A    between atoms: C4_10  and  C6_12 
ROOT
HETATM    1  O1  UNK     1      19.716  -1.217  34.782  1.00  0.00    -0.271 OA
HETATM    2  O4  UNK     1      20.696  -3.010  33.761  1.00  0.00    -0.259 OA
HETATM    3  C4  UNK     1      19.649  -3.417  35.848  1.00  0.00     0.108 A 
HETATM    4  C5  UNK     1      18.611  -1.513  36.928  1.00  0.00     0.002 A 
HETATM    5  C7  UNK     1      18.995  -0.691  35.873  1.00  0.00     0.123 A 
HETATM    6  C8  UNK     1      18.965  -2.924  36.886  1.00  0.00     0.037 A 
HETATM    7  C9  UNK     1      18.687   0.668  35.851  1.00  0.00     0.102 A 
HETATM    8  C12 UNK     1      20.069  -2.561  34.714  1.00  0.00     0.304 A 
HETATM    9  C13 UNK     1      17.896  -0.955  37.991  1.00  0.00     0.014 A 
HETATM   10  C14 UNK     1      17.975   1.216  36.915  1.00  0.00     0.040 A 
HETATM   11  C15 UNK     1      17.581   0.406  37.984  1.00  0.00     0.004 A 
ENDROOT
BRANCH   3  12
HETATM   12  C6  UNK     1      19.960  -4.851  35.896  1.00  0.00     0.258 C 
HETATM   13  O3  UNK     1      20.336  -5.449  34.891  1.00  0.00    -0.267 OA
HETATM   14  N1  UNK     1      19.778  -5.398  37.154  1.00  0.00    -0.348 N 
HETATM   15  H2  UNK     1      19.397  -4.819  37.897  1.00  0.00     0.163 HD
BRANCH  14  16
HETATM   16  C1  UNK     1      20.016  -6.792  37.448  1.00  0.00     0.114 C 
HETATM   17  C3  UNK     1      19.006  -7.323  38.458  1.00  0.00     0.037 C 
BRANCH  16  18
HETATM   18  C2  UNK     1      21.449  -6.976  37.903  1.00  0.00    -0.033 A 
HETATM   19  C10 UNK     1      22.033  -6.011  38.698  1.00  0.00     0.028 A 
HETATM   20  C16 UNK     1      23.345  -6.227  39.089  1.00  0.00     0.116 A 
HETATM   21  N2  UNK     1      24.071  -7.312  38.739  1.00  0.00    -0.273 NA
HETATM   22  C17 UNK     1      23.449  -8.223  37.959  1.00  0.00     0.116 A 
HETATM   23  C11 UNK     1      22.142  -8.103  37.516  1.00  0.00     0.028 A 
ENDBRANCH  16  18
ENDBRANCH  14  16
ENDBRANCH   3  12
BRANCH   7  24
HETATM   24  O2  UNK     1      19.070   1.459  34.813  1.00  0.00    -0.353 OA
HETATM   25  C18 UNK     1      18.077   1.776  33.838  1.00  0.00     0.210 C 
ENDBRANCH   7  24
TORSDOF 4
ENDMDL
MODEL 8
REMARK VINA RESULT:      -8.1      5.869      9.778
REMARK  4 active torsions:
REMARK  status: ('A' for Active; 'I' for Inactive)
REMARK    1  A    between atoms: C9_15  and  O2_2 
REMARK    2  A    between atoms: C1_7  and  N1_5 
REMARK       I    between atoms: C6_12  and  N1_5 
REMARK    3  A    between atoms: C1_7  and  C2_8 
REMARK    4  A    between atoms: C4_10  and  C6_12 
ROOT
HETATM    1  O1  UNK     1      20.301  -7.743  35.833  1.00  0.00    -0.271 OA
HETATM    2  O4  UNK     1      20.400  -5.800  34.636  1.00  0.00    -0.259 OA
HETATM    3  C4  UNK     1      20.148  -5.589  36.983  1.00  0.00     0.108 A 
HETATM    4  C5  UNK     1      20.044  -7.652  38.250  1.00  0.00     0.002 A 
HETATM    5  C7  UNK     1      20.179  -8.391  37.079  1.00  0.00     0.123 A 
HETATM    6  C8  UNK     1      20.032  -6.199  38.168  1.00  0.00     0.037 A 
HETATM    7  C9  UNK     1      20.199  -9.784  37.088  1.00  0.00     0.102 A 
HETATM    8  C12 UNK     1      20.292  -6.355  35.724  1.00  0.00     0.304 A 
HETATM    9  C13 UNK     1      19.927  -8.331  39.465  1.00  0.00     0.014 A 
HETATM   10  C14 UNK     1      20.081 -10.453  38.304  1.00  0.00     0.040 A 
HETATM   11  C15 UNK     1      19.944  -9.728  39.491  1.00  0.00     0.004 A 
ENDROOT
BRANCH   3  12
HETATM   12  C6  UNK     1      20.124  -4.122  37.002  1.00  0.00     0.258 C 
HETATM   13  O3  UNK     1      20.791  -3.491  37.820  1.00  0.00    -0.267 OA
HETATM   14  N1  UNK     1      19.297  -3.584  36.033  1.00  0.00    -0.348 N 
HETATM   15  H2  UNK     1      18.741  -4.207  35.453  1.00  0.00     0.163 HD
BRANCH  14  16
HETATM   16  C1  UNK     1      19.108  -2.162  35.859  1.00  0.00     0.114 C 
HETATM   17  C3  UNK     1      17.730  -1.726  36.344  1.00  0.00     0.037 C 
BRANCH  16  18
HETATM   18  C2  UNK     1      19.363  -1.791  34.413  1.00  0.00    -0.033 A 
HETATM   19  C10 UNK     1      18.593  -0.810  33.823  1.00  0.00     0.028 A 
HETATM   20  C16 UNK     1      18.867  -0.507  32.498  1.00  0.00     0.116 A 
HETATM   21  N2  UNK     1      19.829  -1.111  31.766  1.00  0.00    -0.273 NA
HETATM   22  C17 UNK     1      20.551  -2.065  32.395  1.00  0.00     0.116 A 
HETATM   23  C11 UNK     1      20.358  -2.441  33.714  1.00  0.00     0.028 A 
ENDBRANCH  16  18
ENDBRANCH  14  16
ENDBRANCH   3  12
BRANCH   7  24
HETATM   24  O2  UNK     1      20.332 -10.493  35.935  1.00  0.00    -0.353 OA
HETATM   25  C18 UNK     1      21.629 -11.006  35.633  1.00  0.00     0.210 C 
ENDBRANCH   7  24
TORSDOF 4
ENDMDL
MODEL 9
REMARK VINA RESULT:      -8.0      4.760      9.722
REMARK  4 active torsions:
REMARK  status: ('A' for Active; 'I' for Inactive)
REMARK    1  A    between atoms: C9_15  and  O2_2 
REMARK    2  A    between atoms: C1_7  and  N1_5 
REMARK       I    between atoms: C6_12  and  N1_5 
REMARK    3  A    between atoms: C1_7  and  C2_8 
REMARK    4  A    between atoms: C4_10  and  C6_12 
ROOT
HETATM    1  O1  UNK     1      18.751  -0.267  33.641  1.00  0.00    -0.271 OA
HETATM    2  O4  UNK     1      18.180  -0.236  35.853  1.00  0.00    -0.259 OA
HETATM    3  C4  UNK     1      19.522  -2.049  35.128  1.00  0.00     0.108 A 
HETATM    4  C5  UNK     1      20.126  -2.078  32.781  1.00  0.00     0.002 A 
HETATM    5  C7  UNK     1      19.421  -0.897  32.574  1.00  0.00     0.123 A 
HETATM    6  C8  UNK     1      20.160  -2.652  34.118  1.00  0.00     0.037 A 
HETATM    7  C9  UNK     1      19.349  -0.295  31.320  1.00  0.00     0.102 A 
HETATM    8  C12 UNK     1      18.766  -0.792  34.930  1.00  0.00     0.304 A 
HETATM    9  C13 UNK     1      20.778  -2.673  31.698  1.00  0.00     0.014 A 
HETATM   10  C14 UNK     1      20.002  -0.894  30.245  1.00  0.00     0.040 A 
HETATM   11  C15 UNK     1      20.715  -2.082  30.433  1.00  0.00     0.004 A 
ENDROOT
BRANCH   3  12
HETATM   12  C6  UNK     1      19.615  -2.704  36.438  1.00  0.00     0.258 C 
HETATM   13  O3  UNK     1      19.372  -2.085  37.471  1.00  0.00    -0.267 OA
HETATM   14  N1  UNK     1      19.993  -4.032  36.350  1.00  0.00    -0.348 N 
HETATM   15  H2  UNK     1      20.234  -4.421  35.443  1.00  0.00     0.163 HD
BRANCH  14  16
HETATM   16  C1  UNK     1      20.154  -4.883  37.507  1.00  0.00     0.114 C 
HETATM   17  C3  UNK     1      21.612  -4.942  37.948  1.00  0.00     0.037 C 
BRANCH  16  18
HETATM   18  C2  UNK     1      19.578  -6.252  37.212  1.00  0.00    -0.033 A 
HETATM   19  C10 UNK     1      19.568  -7.208  38.207  1.00  0.00     0.028 A 
HETATM   20  C16 UNK     1      19.028  -8.444  37.887  1.00  0.00     0.116 A 
HETATM   21  N2  UNK     1      18.521  -8.758  36.674  1.00  0.00    -0.273 NA
HETATM   22  C17 UNK     1      18.557  -7.784  35.738  1.00  0.00     0.116 A 
HETATM   23  C11 UNK     1      19.073  -6.517  35.957  1.00  0.00     0.028 A 
ENDBRANCH  16  18
ENDBRANCH  14  16
ENDBRANCH   3  12
BRANCH   7  24
HETATM   24  O2  UNK     1      18.656   0.860  31.132  1.00  0.00    -0.353 OA
HETATM   25  C18 UNK     1      18.943   1.605  29.948  1.00  0.00     0.210 C 
ENDBRANCH   7  24
TORSDOF 4
ENDMDL
MODEL 10
REMARK VINA RESULT:      -7.9      2.398      3.992
REMARK  4 active torsions:
REMARK  status: ('A' for Active; 'I' for Inactive)
REMARK    1  A    between atoms: C9_15  and  O2_2 
REMARK    2  A    between atoms: C1_7  and  N1_5 
REMARK       I    between atoms: C6_12  and  N1_5 
REMARK    3  A    between atoms: C1_7  and  C2_8 
REMARK    4  A    between atoms: C4_10  and  C6_12 
ROOT
HETATM    1  O1  UNK     1      18.263   1.740  32.068  1.00  0.00    -0.271 OA
HETATM    2  O4  UNK     1      18.278   3.335  30.433  1.00  0.00    -0.259 OA
HETATM    3  C4  UNK     1      18.305   4.110  32.672  1.00  0.00     0.108 A 
HETATM    4  C5  UNK     1      18.290   2.415  34.404  1.00  0.00     0.002 A 
HETATM    5  C7  UNK     1      18.267   1.413  33.439  1.00  0.00     0.123 A 
HETATM    6  C8  UNK     1      18.310   3.805  33.974  1.00  0.00     0.037 A 
HETATM    7  C9  UNK     1      18.249   0.063  33.782  1.00  0.00     0.102 A 
HETATM    8  C12 UNK     1      18.281   3.060  31.627  1.00  0.00     0.304 A 
HETATM    9  C13 UNK     1      18.295   2.051  35.753  1.00  0.00     0.014 A 
HETATM   10  C14 UNK     1      18.253  -0.291  35.129  1.00  0.00     0.040 A 
HETATM   11  C15 UNK     1      18.275   0.702  36.113  1.00  0.00     0.004 A 
ENDROOT
BRANCH   3  12
HETATM   12  C6  UNK     1      18.326   5.539  32.338  1.00  0.00     0.258 C 
HETATM   13  O3  UNK     1      18.394   5.913  31.169  1.00  0.00    -0.267 OA
HETATM   14  N1  UNK     1      18.264   6.353  33.455  1.00  0.00    -0.348 N 
HETATM   15  H2  UNK     1      18.278   5.930  34.379  1.00  0.00     0.163 HD
BRANCH  14  16
HETATM   16  C1  UNK     1      18.274   7.795  33.379  1.00  0.00     0.114 C 
HETATM   17  C3  UNK     1      19.369   8.386  34.259  1.00  0.00     0.037 C 
BRANCH  16  18
HETATM   18  C2  UNK     1      16.899   8.329  33.722  1.00  0.00    -0.033 A 
HETATM   19  C10 UNK     1      16.752   9.664  34.040  1.00  0.00     0.028 A 
HETATM   20  C16 UNK     1      15.474  10.102  34.345  1.00  0.00     0.116 A 
HETATM   21  N2  UNK     1      14.381   9.307  34.348  1.00  0.00    -0.273 NA
HETATM   22  C17 UNK     1      14.583   8.009  34.030  1.00  0.00     0.116 A 
HETATM   23  C11 UNK     1      15.819   7.472  33.710  1.00  0.00     0.028 A 
ENDBRANCH  16  18
ENDBRANCH  14  16
ENDBRANCH   3  12
BRANCH   7  24
HETATM   24  O2  UNK     1      18.227  -0.905  32.828  1.00  0.00    -0.353 OA
HETATM   25  C18 UNK     1      19.453  -1.588  32.566  1.00  0.00     0.210 C 
ENDBRANCH   7  24
TORSDOF 4
ENDMDL
