MODEL 1
REMARK VINA RESULT:      -9.4      0.000      0.000
REMARK  8 active torsions:
REMARK  status: ('A' for Active; 'I' for Inactive)
REMARK    1  A    between atoms: C14_20  and  S2_2 
REMARK    2  A    between atoms: C9_15  and  S2_2 
REMARK    3  A    between atoms: C19_25  and  O1_3 
REMARK    4  A    between atoms: C4_10  and  O1_3 
REMARK       I    between atoms: C15_21  and  N2_6 
REMARK    5  A    between atoms: C5_11  and  N2_6 
REMARK    6  A    between atoms: C16_22  and  C7_13 
REMARK    7  A    between atoms: C14_20  and  C15_21 
REMARK    8  A    between atoms: C17_23  and  C18_24 
ROOT
HETATM    1  O2  UNK     1      20.986  -2.813  36.027  1.00  0.00    -0.272 OA
HETATM    2  N2  UNK     1      18.665  -2.453  35.932  1.00  0.00    -0.327 N 
HETATM    3  C15 UNK     1      19.824  -3.170  36.208  1.00  0.00     0.231 C 
HETATM    4  H10 UNK     1      17.773  -2.900  36.130  1.00  0.00     0.169 HD
ENDROOT
BRANCH   2   5
HETATM    5  C5  UNK     1      18.568  -1.145  35.399  1.00  0.00     0.034 A 
HETATM    6  C10 UNK     1      18.470  -0.979  34.027  1.00  0.00     0.030 A 
HETATM    7  C12 UNK     1      18.371   0.310  33.502  1.00  0.00     0.013 A 
HETATM    8  C7  UNK     1      18.372   1.413  34.356  1.00  0.00    -0.036 A 
HETATM    9  C13 UNK     1      18.472   1.228  35.735  1.00  0.00     0.013 A 
HETATM   10  C11 UNK     1      18.570  -0.060  36.260  1.00  0.00     0.030 A 
BRANCH   8  11
HETATM   11  C16 UNK     1      18.271   2.756  33.808  1.00  0.00     0.012 C 
HETATM   12  C18 UNK     1      18.378   3.074  32.496  1.00  0.00     0.012 C 
BRANCH  12  13
HETATM   13  C17 UNK     1      18.257   4.433  31.938  1.00  0.00    -0.036 A 
HETATM   14  C20 UNK     1      18.904   4.741  30.754  1.00  0.00     0.011 A 
HETATM   15  C23 UNK     1      18.789   6.026  30.226  1.00  0.00     0.001 A 
HETATM   16  C25 UNK     1      18.029   6.988  30.891  1.00  0.00     0.000 A 
HETATM   17  C24 UNK     1      17.382   6.663  32.083  1.00  0.00     0.001 A 
HETATM   18  C21 UNK     1      17.497   5.376  32.612  1.00  0.00     0.011 A 
ENDBRANCH  12  13
ENDBRANCH   8  11
ENDBRANCH   2   5
BRANCH   3  19
HETATM   19  C14 UNK     1      19.522  -4.541  36.774  1.00  0.00     0.184 C 
BRANCH  19  20
HETATM   20  S2  UNK     1      20.811  -4.977  37.971  1.00  0.00    -0.094 SA
BRANCH  20  21
HETATM   21  C9  UNK     1      21.340  -6.518  37.327  1.00  0.00     0.136 A 
HETATM   22  S1  UNK     1      22.454  -7.520  38.151  1.00  0.00    -0.061 SA
HETATM   23  C1  UNK     1      22.349  -8.671  36.872  1.00  0.00     0.039 A 
HETATM   24  C2  UNK     1      21.461  -8.197  35.902  1.00  0.00     0.076 A 
HETATM   25  C3  UNK     1      23.005  -9.905  36.736  1.00  0.00     0.058 A 
HETATM   26  N1  UNK     1      20.891  -6.962  36.176  1.00  0.00    -0.233 NA
HETATM   27  C6  UNK     1      21.223  -8.988  34.757  1.00  0.00     0.036 A 
HETATM   28  C8  UNK     1      21.872 -10.217  34.616  1.00  0.00     0.039 A 
HETATM   29  C4  UNK     1      22.752 -10.668  35.594  1.00  0.00     0.070 A 
BRANCH  29  30
HETATM   30  O1  UNK     1      23.374 -11.870  35.439  1.00  0.00    -0.351 OA
BRANCH  30  31
HETATM   31  C19 UNK     1      24.686 -11.994  35.984  1.00  0.00     0.171 C 
HETATM   32  C22 UNK     1      24.886 -13.414  36.473  1.00  0.00     0.034 C 
ENDBRANCH  30  31
ENDBRANCH  29  30
ENDBRANCH  20  21
ENDBRANCH  19  20
ENDBRANCH   3  19
TORSDOF 8
ENDMDL
MODEL 2
REMARK VINA RESULT:      -9.2      4.675      7.862
REMARK  8 active torsions:
REMARK  status: ('A' for Active; 'I' for Inactive)
REMARK    1  A    between atoms: C14_20  and  S2_2 
REMARK    2  A    between atoms: C9_15  and  S2_2 
REMARK    3  A    between atoms: C19_25  and  O1_3 
REMARK    4  A    between atoms: C4_10  and  O1_3 
REMARK       I    between atoms: C15_21  and  N2_6 
REMARK    5  A    between atoms: C5_11  and  N2_6 
REMARK    6  A    between atoms: C16_22  and  C7_13 
REMARK    7  A    between atoms: C14_20  and  C15_21 
REMARK    8  A    between atoms: C17_23  and  C18_24 
ROOT
HETATM    1  O2  UNK     1      17.925   2.646  28.193  1.00  0.00    -0.272 OA
HETATM    2  N2  UNK     1      18.596   2.403  30.432  1.00  0.00    -0.327 N 
HETATM    3  C15 UNK     1      18.303   1.966  29.145  1.00  0.00     0.231 C 
HETATM    4  H10 UNK     1      18.886   1.705  31.114  1.00  0.00     0.169 HD
ENDROOT
BRANCH   2   5
HETATM    5  C5  UNK     1      18.543   3.729  30.926  1.00  0.00     0.034 A 
HETATM    6  C10 UNK     1      17.968   3.968  32.163  1.00  0.00     0.030 A 
HETATM    7  C12 UNK     1      17.918   5.274  32.650  1.00  0.00     0.013 A 
HETATM    8  C7  UNK     1      18.442   6.322  31.893  1.00  0.00    -0.036 A 
HETATM    9  C13 UNK     1      19.018   6.064  30.649  1.00  0.00     0.013 A 
HETATM   10  C11 UNK     1      19.068   4.758  30.162  1.00  0.00     0.030 A 
BRANCH   8  11
HETATM   11  C16 UNK     1      18.389   7.684  32.401  1.00  0.00     0.012 C 
HETATM   12  C18 UNK     1      17.394   8.192  33.167  1.00  0.00     0.012 C 
BRANCH  12  13
HETATM   13  C17 UNK     1      17.349   9.566  33.697  1.00  0.00    -0.036 A 
HETATM   14  C20 UNK     1      16.131  10.112  34.065  1.00  0.00     0.011 A 
HETATM   15  C23 UNK     1      16.087  11.412  34.566  1.00  0.00     0.001 A 
HETATM   16  C25 UNK     1      17.264  12.150  34.693  1.00  0.00     0.000 A 
HETATM   17  C24 UNK     1      18.484  11.588  34.319  1.00  0.00     0.001 A 
HETATM   18  C21 UNK     1      18.527  10.286  33.816  1.00  0.00     0.011 A 
ENDBRANCH  12  13
ENDBRANCH   8  11
ENDBRANCH   2   5
BRANCH   3  19
HETATM   19  C14 UNK     1      18.477   0.470  29.000  1.00  0.00     0.184 C 
BRANCH  19  20
HETATM   20  S2  UNK     1      20.168   0.029  29.477  1.00  0.00    -0.094 SA
BRANCH  20  21
HETATM   21  C9  UNK     1      19.897  -0.584  31.095  1.00  0.00     0.136 A 
HETATM   22  S1  UNK     1      20.723  -1.952  31.706  1.00  0.00    -0.061 SA
HETATM   23  C1  UNK     1      19.877  -1.782  33.199  1.00  0.00     0.039 A 
HETATM   24  C2  UNK     1      19.018  -0.682  33.116  1.00  0.00     0.076 A 
HETATM   25  C3  UNK     1      19.966  -2.566  34.360  1.00  0.00     0.058 A 
HETATM   26  N1  UNK     1      19.040  -0.006  31.904  1.00  0.00    -0.233 NA
HETATM   27  C6  UNK     1      18.223  -0.357  34.236  1.00  0.00     0.036 A 
HETATM   28  C8  UNK     1      18.307  -1.133  35.395  1.00  0.00     0.039 A 
HETATM   29  C4  UNK     1      19.169  -2.223  35.454  1.00  0.00     0.070 A 
BRANCH  29  30
HETATM   30  O1  UNK     1      19.238  -2.967  36.594  1.00  0.00    -0.351 OA
BRANCH  30  31
HETATM   31  C19 UNK     1      20.538  -3.352  37.037  1.00  0.00     0.171 C 
HETATM   32  C22 UNK     1      20.535  -4.834  37.347  1.00  0.00     0.034 C 
ENDBRANCH  30  31
ENDBRANCH  29  30
ENDBRANCH  20  21
ENDBRANCH  19  20
ENDBRANCH   3  19
TORSDOF 8
ENDMDL
MODEL 3
REMARK VINA RESULT:      -9.2      1.138      1.695
REMARK  8 active torsions:
REMARK  status: ('A' for Active; 'I' for Inactive)
REMARK    1  A    between atoms: C14_20  and  S2_2 
REMARK    2  A    between atoms: C9_15  and  S2_2 
REMARK    3  A    between atoms: C19_25  and  O1_3 
REMARK    4  A    between atoms: C4_10  and  O1_3 
REMARK       I    between atoms: C15_21  and  N2_6 
REMARK    5  A    between atoms: C5_11  and  N2_6 
REMARK    6  A    between atoms: C16_22  and  C7_13 
REMARK    7  A    between atoms: C14_20  and  C15_21 
REMARK    8  A    between atoms: C17_23  and  C18_24 
ROOT
HETATM    1  O2  UNK     1      21.578  -2.114  35.661  1.00  0.00    -0.272 OA
HETATM    2  N2  UNK     1      19.278  -1.855  36.066  1.00  0.00    -0.327 N 
HETATM    3  C15 UNK     1      20.525  -2.456  36.194  1.00  0.00     0.231 C 
HETATM    4  H10 UNK     1      18.497  -2.272  36.567  1.00  0.00     0.169 HD
ENDROOT
BRANCH   2   5
HETATM    5  C5  UNK     1      18.949  -0.706  35.308  1.00  0.00     0.034 A 
HETATM    6  C10 UNK     1      18.861   0.522  35.942  1.00  0.00     0.030 A 
HETATM    7  C12 UNK     1      18.539   1.655  35.194  1.00  0.00     0.013 A 
HETATM    8  C7  UNK     1      18.310   1.543  33.823  1.00  0.00    -0.036 A 
HETATM    9  C13 UNK     1      18.403   0.300  33.199  1.00  0.00     0.013 A 
HETATM   10  C11 UNK     1      18.725  -0.833  33.946  1.00  0.00     0.030 A 
BRANCH   8  11
HETATM   11  C16 UNK     1      17.973   2.725  33.044  1.00  0.00     0.012 C 
HETATM   12  C18 UNK     1      18.273   3.998  33.389  1.00  0.00     0.012 C 
BRANCH  12  13
HETATM   13  C17 UNK     1      17.949   5.194  32.591  1.00  0.00    -0.036 A 
HETATM   14  C20 UNK     1      18.532   5.357  31.346  1.00  0.00     0.011 A 
HETATM   15  C23 UNK     1      18.226   6.488  30.590  1.00  0.00     0.001 A 
HETATM   16  C25 UNK     1      17.340   7.442  31.090  1.00  0.00     0.000 A 
HETATM   17  C24 UNK     1      16.759   7.264  32.346  1.00  0.00     0.001 A 
HETATM   18  C21 UNK     1      17.066   6.132  33.102  1.00  0.00     0.011 A 
ENDBRANCH  12  13
ENDBRANCH   8  11
ENDBRANCH   2   5
BRANCH   3  19
HETATM   19  C14 UNK     1      20.479  -3.672  37.095  1.00  0.00     0.184 C 
BRANCH  19  20
HETATM   20  S2  UNK     1      19.201  -4.803  36.485  1.00  0.00    -0.094 SA
BRANCH  20  21
HETATM   21  C9  UNK     1      20.134  -6.274  36.303  1.00  0.00     0.136 A 
HETATM   22  S1  UNK     1      19.829  -7.403  35.055  1.00  0.00    -0.061 SA
HETATM   23  C1  UNK     1      21.115  -8.388  35.645  1.00  0.00     0.039 A 
HETATM   24  C2  UNK     1      21.685  -7.773  36.764  1.00  0.00     0.076 A 
HETATM   25  C3  UNK     1      21.586  -9.616  35.155  1.00  0.00     0.058 A 
HETATM   26  N1  UNK     1      21.112  -6.563  37.130  1.00  0.00    -0.233 NA
HETATM   27  C6  UNK     1      22.764  -8.412  37.412  1.00  0.00     0.036 A 
HETATM   28  C8  UNK     1      23.238  -9.635  36.929  1.00  0.00     0.039 A 
HETATM   29  C4  UNK     1      22.654 -10.227  35.814  1.00  0.00     0.070 A 
BRANCH  29  30
HETATM   30  O1  UNK     1      23.131 -11.419  35.357  1.00  0.00    -0.351 OA
BRANCH  30  31
HETATM   31  C19 UNK     1      24.389 -11.853  35.871  1.00  0.00     0.171 C 
HETATM   32  C22 UNK     1      24.505 -13.352  35.693  1.00  0.00     0.034 C 
ENDBRANCH  30  31
ENDBRANCH  29  30
ENDBRANCH  20  21
ENDBRANCH  19  20
ENDBRANCH   3  19
TORSDOF 8
ENDMDL
MODEL 4
REMARK VINA RESULT:      -8.8      2.453      2.707
REMARK  8 active torsions:
REMARK  status: ('A' for Active; 'I' for Inactive)
REMARK    1  A    between atoms: C14_20  and  S2_2 
REMARK    2  A    between atoms: C9_15  and  S2_2 
REMARK    3  A    between atoms: C19_25  and  O1_3 
REMARK    4  A    between atoms: C4_10  and  O1_3 
REMARK       I    between atoms: C15_21  and  N2_6 
REMARK    5  A    between atoms: C5_11  and  N2_6 
REMARK    6  A    between atoms: C16_22  and  C7_13 
REMARK    7  A    between atoms: C14_20  and  C15_21 
REMARK    8  A    between atoms: C17_23  and  C18_24 
ROOT
HETATM    1  O2  UNK     1      21.259  -2.362  35.694  1.00  0.00    -0.272 OA
HETATM    2  N2  UNK     1      18.916  -2.192  35.690  1.00  0.00    -0.327 N 
HETATM    3  C15 UNK     1      20.137  -2.841  35.834  1.00  0.00     0.231 C 
HETATM    4  H10 UNK     1      18.069  -2.739  35.828  1.00  0.00     0.169 HD
ENDROOT
BRANCH   2   5
HETATM    5  C5  UNK     1      18.696  -0.831  35.367  1.00  0.00     0.034 A 
HETATM    6  C10 UNK     1      18.494  -0.473  34.045  1.00  0.00     0.030 A 
HETATM    7  C12 UNK     1      18.275   0.868  33.728  1.00  0.00     0.013 A 
HETATM    8  C7  UNK     1      18.261   1.831  34.737  1.00  0.00    -0.036 A 
HETATM    9  C13 UNK     1      18.467   1.453  36.064  1.00  0.00     0.013 A 
HETATM   10  C11 UNK     1      18.685   0.113  36.382  1.00  0.00     0.030 A 
BRANCH   8  11
HETATM   11  C16 UNK     1      18.034   3.229  34.406  1.00  0.00     0.012 C 
HETATM   12  C18 UNK     1      18.268   3.791  33.197  1.00  0.00     0.012 C 
BRANCH  12  13
HETATM   13  C17 UNK     1      18.020   5.204  32.856  1.00  0.00    -0.036 A 
HETATM   14  C20 UNK     1      18.106   5.608  31.535  1.00  0.00     0.011 A 
HETATM   15  C23 UNK     1      17.872   6.944  31.212  1.00  0.00     0.001 A 
HETATM   16  C25 UNK     1      17.555   7.859  32.215  1.00  0.00     0.000 A 
HETATM   17  C24 UNK     1      17.471   7.437  33.542  1.00  0.00     0.001 A 
HETATM   18  C21 UNK     1      17.706   6.100  33.866  1.00  0.00     0.011 A 
ENDBRANCH  12  13
ENDBRANCH   8  11
ENDBRANCH   2   5
BRANCH   3  19
HETATM   19  C14 UNK     1      19.964  -4.303  36.184  1.00  0.00     0.184 C 
BRANCH  19  20
HETATM   20  S2  UNK     1      21.016  -4.692  37.608  1.00  0.00    -0.094 SA
BRANCH  20  21
HETATM   21  C9  UNK     1      20.650  -6.391  37.825  1.00  0.00     0.136 A 
HETATM   22  S1  UNK     1      20.057  -7.018  39.302  1.00  0.00    -0.061 SA
HETATM   23  C1  UNK     1      20.008  -8.593  38.601  1.00  0.00     0.039 A 
HETATM   24  C2  UNK     1      20.453  -8.519  37.278  1.00  0.00     0.076 A 
HETATM   25  C3  UNK     1      19.605  -9.806  39.180  1.00  0.00     0.058 A 
HETATM   26  N1  UNK     1      20.818  -7.251  36.847  1.00  0.00    -0.233 NA
HETATM   27  C6  UNK     1      20.495  -9.703  36.510  1.00  0.00     0.036 A 
HETATM   28  C8  UNK     1      20.094 -10.914  37.080  1.00  0.00     0.039 A 
HETATM   29  C4  UNK     1      19.656 -10.963  38.399  1.00  0.00     0.070 A 
BRANCH  29  30
HETATM   30  O1  UNK     1      19.268 -12.153  38.937  1.00  0.00    -0.351 OA
BRANCH  30  31
HETATM   31  C19 UNK     1      18.944 -12.161  40.325  1.00  0.00     0.171 C 
HETATM   32  C22 UNK     1      18.518 -13.557  40.726  1.00  0.00     0.034 C 
ENDBRANCH  30  31
ENDBRANCH  29  30
ENDBRANCH  20  21
ENDBRANCH  19  20
ENDBRANCH   3  19
TORSDOF 8
ENDMDL
MODEL 5
REMARK VINA RESULT:      -8.7      5.377     12.810
REMARK  8 active torsions:
REMARK  status: ('A' for Active; 'I' for Inactive)
REMARK    1  A    between atoms: C14_20  and  S2_2 
REMARK    2  A    between atoms: C9_15  and  S2_2 
REMARK    3  A    between atoms: C19_25  and  O1_3 
REMARK    4  A    between atoms: C4_10  and  O1_3 
REMARK       I    between atoms: C15_21  and  N2_6 
REMARK    5  A    between atoms: C5_11  and  N2_6 
REMARK    6  A    between atoms: C16_22  and  C7_13 
REMARK    7  A    between atoms: C14_20  and  C15_21 
REMARK    8  A    between atoms: C17_23  and  C18_24 
ROOT
HETATM    1  O2  UNK     1      20.830  -0.951  29.587  1.00  0.00    -0.272 OA
HETATM    2  N2  UNK     1      19.296  -0.044  31.118  1.00  0.00    -0.327 N 
HETATM    3  C15 UNK     1      19.952  -0.149  29.897  1.00  0.00     0.231 C 
HETATM    4  H10 UNK     1      18.597   0.690  31.218  1.00  0.00     0.169 HD
ENDROOT
BRANCH   2   5
HETATM    5  C5  UNK     1      19.479  -0.849  32.268  1.00  0.00     0.034 A 
HETATM    6  C10 UNK     1      20.429  -1.856  32.245  1.00  0.00     0.030 A 
HETATM    7  C12 UNK     1      20.611  -2.648  33.379  1.00  0.00     0.013 A 
HETATM    8  C7  UNK     1      19.841  -2.421  34.519  1.00  0.00    -0.036 A 
HETATM    9  C13 UNK     1      18.888  -1.402  34.526  1.00  0.00     0.013 A 
HETATM   10  C11 UNK     1      18.706  -0.610  33.393  1.00  0.00     0.030 A 
BRANCH   8  11
HETATM   11  C16 UNK     1      20.030  -3.247  35.701  1.00  0.00     0.012 C 
HETATM   12  C18 UNK     1      19.869  -4.591  35.747  1.00  0.00     0.012 C 
BRANCH  12  13
HETATM   13  C17 UNK     1      20.080  -5.431  36.940  1.00  0.00    -0.036 A 
HETATM   14  C20 UNK     1      19.118  -6.363  37.291  1.00  0.00     0.011 A 
HETATM   15  C23 UNK     1      19.317  -7.158  38.420  1.00  0.00     0.001 A 
HETATM   16  C25 UNK     1      20.475  -7.008  39.183  1.00  0.00     0.000 A 
HETATM   17  C24 UNK     1      21.434  -6.065  38.817  1.00  0.00     0.001 A 
HETATM   18  C21 UNK     1      21.236  -5.269  37.687  1.00  0.00     0.011 A 
ENDBRANCH  12  13
ENDBRANCH   8  11
ENDBRANCH   2   5
BRANCH   3  19
HETATM   19  C14 UNK     1      19.482   0.896  28.908  1.00  0.00     0.184 C 
BRANCH  19  20
HETATM   20  S2  UNK     1      17.822   1.446  29.382  1.00  0.00    -0.094 SA
BRANCH  20  21
HETATM   21  C9  UNK     1      18.214   2.821  30.391  1.00  0.00     0.136 A 
HETATM   22  S1  UNK     1      18.949   4.235  29.768  1.00  0.00    -0.061 SA
HETATM   23  C1  UNK     1      18.930   4.929  31.346  1.00  0.00     0.039 A 
HETATM   24  C2  UNK     1      18.357   4.018  32.239  1.00  0.00     0.076 A 
HETATM   25  C3  UNK     1      19.387   6.188  31.764  1.00  0.00     0.058 A 
HETATM   26  N1  UNK     1      17.953   2.815  31.678  1.00  0.00    -0.233 NA
HETATM   27  C6  UNK     1      18.240   4.384  33.598  1.00  0.00     0.036 A 
HETATM   28  C8  UNK     1      18.693   5.637  34.020  1.00  0.00     0.039 A 
HETATM   29  C4  UNK     1      19.260   6.526  33.113  1.00  0.00     0.070 A 
BRANCH  29  30
HETATM   30  O1  UNK     1      19.694   7.743  33.545  1.00  0.00    -0.351 OA
BRANCH  30  31
HETATM   31  C19 UNK     1      18.865   8.432  34.478  1.00  0.00     0.171 C 
HETATM   32  C22 UNK     1      18.158   9.567  33.767  1.00  0.00     0.034 C 
ENDBRANCH  30  31
ENDBRANCH  29  30
ENDBRANCH  20  21
ENDBRANCH  19  20
ENDBRANCH   3  19
TORSDOF 8
ENDMDL
MODEL 6
REMARK VINA RESULT:      -8.5      4.959     14.491
REMARK  8 active torsions:
REMARK  status: ('A' for Active; 'I' for Inactive)
REMARK    1  A    between atoms: C14_20  and  S2_2 
REMARK    2  A    between atoms: C9_15  and  S2_2 
REMARK    3  A    between atoms: C19_25  and  O1_3 
REMARK    4  A    between atoms: C4_10  and  O1_3 
REMARK       I    between atoms: C15_21  and  N2_6 
REMARK    5  A    between atoms: C5_11  and  N2_6 
REMARK    6  A    between atoms: C16_22  and  C7_13 
REMARK    7  A    between atoms: C14_20  and  C15_21 
REMARK    8  A    between atoms: C17_23  and  C18_24 
ROOT
HETATM    1  O2  UNK     1      17.370   0.636  33.974  1.00  0.00    -0.272 OA
HETATM    2  N2  UNK     1      19.045   0.590  35.621  1.00  0.00    -0.327 N 
HETATM    3  C15 UNK     1      18.188   1.189  34.705  1.00  0.00     0.231 C 
HETATM    4  H10 UNK     1      19.677   1.193  36.143  1.00  0.00     0.169 HD
ENDROOT
BRANCH   2   5
HETATM    5  C5  UNK     1      19.152  -0.788  35.928  1.00  0.00     0.034 A 
HETATM    6  C10 UNK     1      20.047  -1.572  35.219  1.00  0.00     0.030 A 
HETATM    7  C12 UNK     1      20.153  -2.929  35.524  1.00  0.00     0.013 A 
HETATM    8  C7  UNK     1      19.364  -3.483  36.531  1.00  0.00    -0.036 A 
HETATM    9  C13 UNK     1      18.467  -2.679  37.235  1.00  0.00     0.013 A 
HETATM   10  C11 UNK     1      18.360  -1.322  36.932  1.00  0.00     0.030 A 
BRANCH   8  11
HETATM   11  C16 UNK     1      19.474  -4.898  36.847  1.00  0.00     0.012 C 
HETATM   12  C18 UNK     1      19.944  -5.403  38.012  1.00  0.00     0.012 C 
BRANCH  12  13
HETATM   13  C17 UNK     1      20.039  -6.837  38.340  1.00  0.00    -0.036 A 
HETATM   14  C20 UNK     1      19.024  -7.692  37.944  1.00  0.00     0.011 A 
HETATM   15  C23 UNK     1      19.112  -9.048  38.254  1.00  0.00     0.001 A 
HETATM   16  C25 UNK     1      20.216  -9.532  38.956  1.00  0.00     0.000 A 
HETATM   17  C24 UNK     1      21.231  -8.659  39.348  1.00  0.00     0.001 A 
HETATM   18  C21 UNK     1      21.142  -7.301  39.038  1.00  0.00     0.011 A 
ENDBRANCH  12  13
ENDBRANCH   8  11
ENDBRANCH   2   5
BRANCH   3  19
HETATM   19  C14 UNK     1      18.368   2.691  34.657  1.00  0.00     0.184 C 
BRANCH  19  20
HETATM   20  S2  UNK     1      18.235   3.242  32.936  1.00  0.00    -0.094 SA
BRANCH  20  21
HETATM   21  C9  UNK     1      18.268   4.979  33.150  1.00  0.00     0.136 A 
HETATM   22  S1  UNK     1      17.013   5.995  32.586  1.00  0.00    -0.061 SA
HETATM   23  C1  UNK     1      17.858   7.365  33.202  1.00  0.00     0.039 A 
HETATM   24  C2  UNK     1      19.049   6.938  33.798  1.00  0.00     0.076 A 
HETATM   25  C3  UNK     1      17.495   8.720  33.162  1.00  0.00     0.058 A 
HETATM   26  N1  UNK     1      19.270   5.568  33.759  1.00  0.00    -0.233 NA
HETATM   27  C6  UNK     1      19.904   7.903  34.373  1.00  0.00     0.036 A 
HETATM   28  C8  UNK     1      19.548   9.254  34.337  1.00  0.00     0.039 A 
HETATM   29  C4  UNK     1      18.358   9.655  33.738  1.00  0.00     0.070 A 
BRANCH  29  30
HETATM   30  O1  UNK     1      18.028  10.977  33.714  1.00  0.00    -0.351 OA
BRANCH  30  31
HETATM   31  C19 UNK     1      16.740  11.332  34.214  1.00  0.00     0.171 C 
HETATM   32  C22 UNK     1      16.777  12.764  34.703  1.00  0.00     0.034 C 
ENDBRANCH  30  31
ENDBRANCH  29  30
ENDBRANCH  20  21
ENDBRANCH  19  20
ENDBRANCH   3  19
TORSDOF 8
ENDMDL
MODEL 7
REMARK VINA RESULT:      -8.3      9.317     17.093
REMARK  8 active torsions:
REMARK  status: ('A' for Active; 'I' for Inactive)
REMARK    1  A    between atoms: C14_20  and  S2_2 
REMARK    2  A    between atoms: C9_15  and  S2_2 
REMARK    3  A    between atoms: C19_25  and  O1_3 
REMARK    4  A    between atoms: C4_10  and  O1_3 
REMARK       I    between atoms: C15_21  and  N2_6 
REMARK    5  A    between atoms: C5_11  and  N2_6 
REMARK    6  A    between atoms: C16_22  and  C7_13 
REMARK    7  A    between atoms: C14_20  and  C15_21 
REMARK    8  A    between atoms: C17_23  and  C18_24 
ROOT
HETATM    1  O2  UNK     1      14.700   7.528  31.949  1.00  0.00    -0.272 OA
HETATM    2  N2  UNK     1      17.010   7.857  32.231  1.00  0.00    -0.327 N 
HETATM    3  C15 UNK     1      15.666   8.209  32.285  1.00  0.00     0.231 C 
HETATM    4  H10 UNK     1      17.693   8.546  32.537  1.00  0.00     0.169 HD
ENDROOT
BRANCH   2   5
HETATM    5  C5  UNK     1      17.562   6.629  31.793  1.00  0.00     0.034 A 
HETATM    6  C10 UNK     1      17.398   5.496  32.574  1.00  0.00     0.030 A 
HETATM    7  C12 UNK     1      17.941   4.286  32.142  1.00  0.00     0.013 A 
HETATM    8  C7  UNK     1      18.639   4.226  30.935  1.00  0.00    -0.036 A 
HETATM    9  C13 UNK     1      18.794   5.375  30.161  1.00  0.00     0.013 A 
HETATM   10  C11 UNK     1      18.252   6.585  30.593  1.00  0.00     0.030 A 
BRANCH   8  11
HETATM   11  C16 UNK     1      19.205   2.964  30.485  1.00  0.00     0.012 C 
HETATM   12  C18 UNK     1      18.945   1.753  31.033  1.00  0.00     0.012 C 
BRANCH  12  13
HETATM   13  C17 UNK     1      19.504   0.472  30.565  1.00  0.00    -0.036 A 
HETATM   14  C20 UNK     1      19.972   0.370  29.266  1.00  0.00     0.011 A 
HETATM   15  C23 UNK     1      20.500  -0.842  28.823  1.00  0.00     0.001 A 
HETATM   16  C25 UNK     1      20.554  -1.937  29.686  1.00  0.00     0.000 A 
HETATM   17  C24 UNK     1      20.079  -1.818  30.992  1.00  0.00     0.001 A 
HETATM   18  C21 UNK     1      19.550  -0.605  31.435  1.00  0.00     0.011 A 
ENDBRANCH  12  13
ENDBRANCH   8  11
ENDBRANCH   2   5
BRANCH   3  19
HETATM   19  C14 UNK     1      15.468   9.614  32.812  1.00  0.00     0.184 C 
BRANCH  19  20
HETATM   20  S2  UNK     1      16.300   9.761  34.415  1.00  0.00    -0.094 SA
BRANCH  20  21
HETATM   21  C9  UNK     1      16.839  11.425  34.347  1.00  0.00     0.136 A 
HETATM   22  S1  UNK     1      18.452  11.851  33.969  1.00  0.00    -0.061 SA
HETATM   23  C1  UNK     1      18.039  13.517  34.130  1.00  0.00     0.039 A 
HETATM   24  C2  UNK     1      16.686  13.623  34.466  1.00  0.00     0.076 A 
HETATM   25  C3  UNK     1      18.854  14.649  33.972  1.00  0.00     0.058 A 
HETATM   26  N1  UNK     1      16.012  12.416  34.587  1.00  0.00    -0.233 NA
HETATM   27  C6  UNK     1      16.132  14.909  34.647  1.00  0.00     0.036 A 
HETATM   28  C8  UNK     1      16.937  16.040  34.491  1.00  0.00     0.039 A 
HETATM   29  C4  UNK     1      18.281  15.910  34.158  1.00  0.00     0.070 A 
BRANCH  29  30
HETATM   30  O1  UNK     1      19.049  17.025  34.008  1.00  0.00    -0.351 OA
BRANCH  30  31
HETATM   31  C19 UNK     1      20.268  16.878  33.281  1.00  0.00     0.171 C 
HETATM   32  C22 UNK     1      21.422  17.316  34.158  1.00  0.00     0.034 C 
ENDBRANCH  30  31
ENDBRANCH  29  30
ENDBRANCH  20  21
ENDBRANCH  19  20
ENDBRANCH   3  19
TORSDOF 8
ENDMDL
MODEL 8
REMARK VINA RESULT:      -8.2      5.945      9.164
REMARK  8 active torsions:
REMARK  status: ('A' for Active; 'I' for Inactive)
REMARK    1  A    between atoms: C14_20  and  S2_2 
REMARK    2  A    between atoms: C9_15  and  S2_2 
REMARK    3  A    between atoms: C19_25  and  O1_3 
REMARK    4  A    between atoms: C4_10  and  O1_3 
REMARK       I    between atoms: C15_21  and  N2_6 
REMARK    5  A    between atoms: C5_11  and  N2_6 
REMARK    6  A    between atoms: C16_22  and  C7_13 
REMARK    7  A    between atoms: C14_20  and  C15_21 
REMARK    8  A    between atoms: C17_23  and  C18_24 
ROOT
HETATM    1  O2  UNK     1      26.099  -8.260  36.874  1.00  0.00    -0.272 OA
HETATM    2  N2  UNK     1      24.556  -8.695  38.591  1.00  0.00    -0.327 N 
HETATM    3  C15 UNK     1      25.725  -8.885  37.863  1.00  0.00     0.231 C 
HETATM    4  H10 UNK     1      24.387  -9.311  39.383  1.00  0.00     0.169 HD
ENDROOT
BRANCH   2   5
HETATM    5  C5  UNK     1      23.548  -7.727  38.367  1.00  0.00     0.034 A 
HETATM    6  C10 UNK     1      22.505  -8.024  37.505  1.00  0.00     0.030 A 
HETATM    7  C12 UNK     1      21.510  -7.070  37.286  1.00  0.00     0.013 A 
HETATM    8  C7  UNK     1      21.574  -5.835  37.930  1.00  0.00    -0.036 A 
HETATM    9  C13 UNK     1      22.631  -5.552  38.794  1.00  0.00     0.013 A 
HETATM   10  C11 UNK     1      23.626  -6.505  39.014  1.00  0.00     0.030 A 
BRANCH   8  11
HETATM   11  C16 UNK     1      20.537  -4.840  37.700  1.00  0.00     0.012 C 
HETATM   12  C18 UNK     1      20.725  -3.644  37.095  1.00  0.00     0.012 C 
BRANCH  12  13
HETATM   13  C17 UNK     1      19.670  -2.644  36.845  1.00  0.00    -0.036 A 
HETATM   14  C20 UNK     1      18.811  -2.292  37.872  1.00  0.00     0.011 A 
HETATM   15  C23 UNK     1      17.814  -1.348  37.636  1.00  0.00     0.001 A 
HETATM   16  C25 UNK     1      17.688  -0.767  36.374  1.00  0.00     0.000 A 
HETATM   17  C24 UNK     1      18.561  -1.131  35.349  1.00  0.00     0.001 A 
HETATM   18  C21 UNK     1      19.559  -2.077  35.585  1.00  0.00     0.011 A 
ENDBRANCH  12  13
ENDBRANCH   8  11
ENDBRANCH   2   5
BRANCH   3  19
HETATM   19  C14 UNK     1      26.557 -10.025  38.411  1.00  0.00     0.184 C 
BRANCH  19  20
HETATM   20  S2  UNK     1      27.465  -9.440  39.865  1.00  0.00    -0.094 SA
BRANCH  20  21
HETATM   21  C9  UNK     1      28.391  -8.131  39.161  1.00  0.00     0.136 A 
HETATM   22  S1  UNK     1      29.592  -8.395  37.971  1.00  0.00    -0.061 SA
HETATM   23  C1  UNK     1      29.895  -6.699  37.915  1.00  0.00     0.039 A 
HETATM   24  C2  UNK     1      29.048  -6.053  38.819  1.00  0.00     0.076 A 
HETATM   25  C3  UNK     1      30.816  -5.991  37.127  1.00  0.00     0.058 A 
HETATM   26  N1  UNK     1      28.193  -6.886  39.527  1.00  0.00    -0.233 NA
HETATM   27  C6  UNK     1      29.127  -4.648  38.937  1.00  0.00     0.036 A 
HETATM   28  C8  UNK     1      30.042  -3.937  38.155  1.00  0.00     0.039 A 
HETATM   29  C4  UNK     1      30.875  -4.603  37.262  1.00  0.00     0.070 A 
BRANCH  29  30
HETATM   30  O1  UNK     1      31.759  -3.891  36.508  1.00  0.00    -0.351 OA
BRANCH  30  31
HETATM   31  C19 UNK     1      32.374  -4.574  35.417  1.00  0.00     0.171 C 
HETATM   32  C22 UNK     1      33.805  -4.098  35.280  1.00  0.00     0.034 C 
ENDBRANCH  30  31
ENDBRANCH  29  30
ENDBRANCH  20  21
ENDBRANCH  19  20
ENDBRANCH   3  19
TORSDOF 8
ENDMDL
MODEL 9
REMARK VINA RESULT:      -8.2      9.634     13.603
REMARK  8 active torsions:
REMARK  status: ('A' for Active; 'I' for Inactive)
REMARK    1  A    between atoms: C14_20  and  S2_2 
REMARK    2  A    between atoms: C9_15  and  S2_2 
REMARK    3  A    between atoms: C19_25  and  O1_3 
REMARK    4  A    between atoms: C4_10  and  O1_3 
REMARK       I    between atoms: C15_21  and  N2_6 
REMARK    5  A    between atoms: C5_11  and  N2_6 
REMARK    6  A    between atoms: C16_22  and  C7_13 
REMARK    7  A    between atoms: C14_20  and  C15_21 
REMARK    8  A    between atoms: C17_23  and  C18_24 
ROOT
HETATM    1  O2  UNK     1      30.234  -5.431  36.566  1.00  0.00    -0.272 OA
HETATM    2  N2  UNK     1      30.055  -6.516  38.642  1.00  0.00    -0.327 N 
HETATM    3  C15 UNK     1      30.711  -5.834  37.624  1.00  0.00     0.231 C 
HETATM    4  H10 UNK     1      30.601  -6.794  39.455  1.00  0.00     0.169 HD
ENDROOT
BRANCH   2   5
HETATM    5  C5  UNK     1      28.688  -6.880  38.694  1.00  0.00     0.034 A 
HETATM    6  C10 UNK     1      28.347  -8.220  38.774  1.00  0.00     0.030 A 
HETATM    7  C12 UNK     1      27.000  -8.579  38.827  1.00  0.00     0.013 A 
HETATM    8  C7  UNK     1      26.014  -7.593  38.799  1.00  0.00    -0.036 A 
HETATM    9  C13 UNK     1      26.374  -6.248  38.718  1.00  0.00     0.013 A 
HETATM   10  C11 UNK     1      27.720  -5.889  38.665  1.00  0.00     0.030 A 
BRANCH   8  11
HETATM   11  C16 UNK     1      24.609  -7.967  38.853  1.00  0.00     0.012 C 
HETATM   12  C18 UNK     1      23.588  -7.127  39.142  1.00  0.00     0.012 C 
BRANCH  12  13
HETATM   13  C17 UNK     1      22.163  -7.502  39.178  1.00  0.00    -0.036 A 
HETATM   14  C20 UNK     1      21.199  -6.517  39.052  1.00  0.00     0.011 A 
HETATM   15  C23 UNK     1      19.851  -6.871  39.086  1.00  0.00     0.001 A 
HETATM   16  C25 UNK     1      19.485  -8.208  39.248  1.00  0.00     0.000 A 
HETATM   17  C24 UNK     1      20.468  -9.189  39.374  1.00  0.00     0.001 A 
HETATM   18  C21 UNK     1      21.817  -8.834  39.339  1.00  0.00     0.011 A 
ENDBRANCH  12  13
ENDBRANCH   8  11
ENDBRANCH   2   5
BRANCH   3  19
HETATM   19  C14 UNK     1      32.179  -5.628  37.933  1.00  0.00     0.184 C 
BRANCH  19  20
HETATM   20  S2  UNK     1      32.839  -4.362  36.817  1.00  0.00    -0.094 SA
BRANCH  20  21
HETATM   21  C9  UNK     1      33.784  -5.354  35.727  1.00  0.00     0.136 A 
HETATM   22  S1  UNK     1      33.154  -5.947  34.251  1.00  0.00    -0.061 SA
HETATM   23  C1  UNK     1      34.662  -6.719  33.929  1.00  0.00     0.039 A 
HETATM   24  C2  UNK     1      35.541  -6.462  34.985  1.00  0.00     0.076 A 
HETATM   25  C3  UNK     1      35.040  -7.494  32.822  1.00  0.00     0.058 A 
HETATM   26  N1  UNK     1      35.024  -5.680  36.008  1.00  0.00    -0.233 NA
HETATM   27  C6  UNK     1      36.845  -7.002  34.929  1.00  0.00     0.036 A 
HETATM   28  C8  UNK     1      37.228  -7.776  33.829  1.00  0.00     0.039 A 
HETATM   29  C4  UNK     1      36.335  -8.017  32.791  1.00  0.00     0.070 A 
BRANCH  29  30
HETATM   30  O1  UNK     1      36.728  -8.773  31.726  1.00  0.00    -0.351 OA
BRANCH  30  31
HETATM   31  C19 UNK     1      37.334 -10.031  32.015  1.00  0.00     0.171 C 
HETATM   32  C22 UNK     1      36.256 -11.020  32.406  1.00  0.00     0.034 C 
ENDBRANCH  30  31
ENDBRANCH  29  30
ENDBRANCH  20  21
ENDBRANCH  19  20
ENDBRANCH   3  19
TORSDOF 8
ENDMDL
MODEL 10
REMARK VINA RESULT:      -8.2      4.986     14.297
REMARK  8 active torsions:
REMARK  status: ('A' for Active; 'I' for Inactive)
REMARK    1  A    between atoms: C14_20  and  S2_2 
REMARK    2  A    between atoms: C9_15  and  S2_2 
REMARK    3  A    between atoms: C19_25  and  O1_3 
REMARK    4  A    between atoms: C4_10  and  O1_3 
REMARK       I    between atoms: C15_21  and  N2_6 
REMARK    5  A    between atoms: C5_11  and  N2_6 
REMARK    6  A    between atoms: C16_22  and  C7_13 
REMARK    7  A    between atoms: C14_20  and  C15_21 
REMARK    8  A    between atoms: C17_23  and  C18_24 
ROOT
HETATM    1  O2  UNK     1      19.220   1.938  35.342  1.00  0.00    -0.272 OA
HETATM    2  N2  UNK     1      18.163  -0.009  34.559  1.00  0.00    -0.327 N 
HETATM    3  C15 UNK     1      18.418   1.356  34.616  1.00  0.00     0.231 C 
HETATM    4  H10 UNK     1      17.452  -0.331  33.906  1.00  0.00     0.169 HD
ENDROOT
BRANCH   2   5
HETATM    5  C5  UNK     1      18.784  -1.034  35.313  1.00  0.00     0.034 A 
HETATM    6  C10 UNK     1      18.444  -1.195  36.646  1.00  0.00     0.030 A 
HETATM    7  C12 UNK     1      19.055  -2.206  37.388  1.00  0.00     0.013 A 
HETATM    8  C7  UNK     1      19.996  -3.041  36.787  1.00  0.00    -0.036 A 
HETATM    9  C13 UNK     1      20.327  -2.866  35.443  1.00  0.00     0.013 A 
HETATM   10  C11 UNK     1      19.717  -1.855  34.701  1.00  0.00     0.030 A 
BRANCH   8  11
HETATM   11  C16 UNK     1      20.633  -4.095  37.561  1.00  0.00     0.012 C 
HETATM   12  C18 UNK     1      20.207  -5.378  37.631  1.00  0.00     0.012 C 
BRANCH  12  13
HETATM   13  C17 UNK     1      20.863  -6.450  38.401  1.00  0.00    -0.036 A 
HETATM   14  C20 UNK     1      22.228  -6.386  38.626  1.00  0.00     0.011 A 
HETATM   15  C23 UNK     1      22.849  -7.400  39.354  1.00  0.00     0.001 A 
HETATM   16  C25 UNK     1      22.097  -8.466  39.847  1.00  0.00     0.000 A 
HETATM   17  C24 UNK     1      20.723  -8.517  39.612  1.00  0.00     0.001 A 
HETATM   18  C21 UNK     1      20.101  -7.502  38.883  1.00  0.00     0.011 A 
ENDBRANCH  12  13
ENDBRANCH   8  11
ENDBRANCH   2   5
BRANCH   3  19
HETATM   19  C14 UNK     1      17.549   2.136  33.653  1.00  0.00     0.184 C 
BRANCH  19  20
HETATM   20  S2  UNK     1      18.615   2.980  32.454  1.00  0.00    -0.094 SA
BRANCH  20  21
HETATM   21  C9  UNK     1      18.220   4.652  32.793  1.00  0.00     0.136 A 
HETATM   22  S1  UNK     1      19.193   5.636  33.798  1.00  0.00    -0.061 SA
HETATM   23  C1  UNK     1      18.109   6.952  33.542  1.00  0.00     0.039 A 
HETATM   24  C2  UNK     1      17.074   6.534  32.699  1.00  0.00     0.076 A 
HETATM   25  C3  UNK     1      18.168   8.259  34.049  1.00  0.00     0.058 A 
HETATM   26  N1  UNK     1      17.151   5.214  32.279  1.00  0.00    -0.233 NA
HETATM   27  C6  UNK     1      16.066   7.460  32.354  1.00  0.00     0.036 A 
HETATM   28  C8  UNK     1      16.119   8.763  32.856  1.00  0.00     0.039 A 
HETATM   29  C4  UNK     1      17.158   9.155  33.693  1.00  0.00     0.070 A 
BRANCH  29  30
HETATM   30  O1  UNK     1      17.194  10.431  34.171  1.00  0.00    -0.351 OA
BRANCH  30  31
HETATM   31  C19 UNK     1      18.399  11.165  33.966  1.00  0.00     0.171 C 
HETATM   32  C22 UNK     1      18.281  12.510  34.651  1.00  0.00     0.034 C 
ENDBRANCH  30  31
ENDBRANCH  29  30
ENDBRANCH  20  21
ENDBRANCH  19  20
ENDBRANCH   3  19
TORSDOF 8
ENDMDL
