MODEL 1
REMARK VINA RESULT:      -9.2      0.000      0.000
REMARK  3 active torsions:
REMARK  status: ('A' for Active; 'I' for Inactive)
REMARK    1  A    between atoms: C11_15  and  C8_12 
REMARK    2  A    between atoms: C11_15  and  C12_16 
REMARK    3  A    between atoms: C13_17  and  C14_18 
ROOT
HETATM    1  O1  UNK     1      19.120  -0.060  33.179  1.00  0.00    -0.348 OA
HETATM    2  O2  UNK     1      20.404  -2.159  31.514  1.00  0.00    -0.348 OA
HETATM    3  C1  UNK     1      19.513  -1.994  34.561  1.00  0.00     0.029 C 
HETATM    4  C2  UNK     1      20.585  -2.805  33.829  1.00  0.00     0.029 C 
HETATM    5  C3  UNK     1      18.529  -1.274  33.646  1.00  0.00     0.176 C 
HETATM    6  C4  UNK     1      21.247  -2.074  32.668  1.00  0.00     0.176 C 
HETATM    7  C5  UNK     1      19.316   0.017  31.829  1.00  0.00     0.102 A 
HETATM    8  C6  UNK     1      19.927  -0.967  31.047  1.00  0.00     0.102 A 
HETATM    9  C7  UNK     1      18.900   1.214  31.233  1.00  0.00     0.055 A 
HETATM   10  C8  UNK     1      19.036   1.404  29.858  1.00  0.00     0.017 A 
HETATM   11  C9  UNK     1      20.036  -0.782  29.664  1.00  0.00     0.040 A 
HETATM   12  C10 UNK     1      19.595   0.401  29.072  1.00  0.00     0.018 A 
ENDROOT
BRANCH  10  13
HETATM   13  C11 UNK     1      18.586   2.643  29.246  1.00  0.00     0.182 C 
HETATM   14  O3  UNK     1      17.936   2.673  28.191  1.00  0.00    -0.288 OA
BRANCH  13  15
HETATM   15  C12 UNK     1      18.886   3.947  29.940  1.00  0.00     0.056 C 
HETATM   16  C13 UNK     1      18.347   4.234  31.137  1.00  0.00     0.015 C 
BRANCH  16  17
HETATM   17  C14 UNK     1      18.550   5.430  31.921  1.00  0.00    -0.036 A 
HETATM   18  C15 UNK     1      19.839   5.801  32.324  1.00  0.00     0.014 A 
HETATM   19  C17 UNK     1      20.036   6.955  33.081  1.00  0.00     0.043 A 
HETATM   20  C19 UNK     1      18.946   7.747  33.441  1.00  0.00     0.116 A 
HETATM   21  C18 UNK     1      17.659   7.385  33.044  1.00  0.00     0.043 A 
HETATM   22  F1  UNK     1      19.135   8.855  34.170  1.00  0.00    -0.206 F 
HETATM   23  C16 UNK     1      17.462   6.231  32.287  1.00  0.00     0.014 A 
ENDBRANCH  16  17
ENDBRANCH  13  15
ENDBRANCH  10  13
TORSDOF 3
ENDMDL
MODEL 2
REMARK VINA RESULT:      -9.2      5.660     10.488
REMARK  3 active torsions:
REMARK  status: ('A' for Active; 'I' for Inactive)
REMARK    1  A    between atoms: C11_15  and  C8_12 
REMARK    2  A    between atoms: C11_15  and  C12_16 
REMARK    3  A    between atoms: C13_17  and  C14_18 
ROOT
HETATM    1  O1  UNK     1      20.873  -2.091  31.587  1.00  0.00    -0.348 OA
HETATM    2  O2  UNK     1      18.681  -0.084  31.610  1.00  0.00    -0.348 OA
HETATM    3  C1  UNK     1      20.546  -1.292  29.337  1.00  0.00     0.029 C 
HETATM    4  C2  UNK     1      19.805   0.039  29.482  1.00  0.00     0.029 C 
HETATM    5  C3  UNK     1      20.164  -2.345  30.371  1.00  0.00     0.176 C 
HETATM    6  C4  UNK     1      19.740   0.573  30.908  1.00  0.00     0.176 C 
HETATM    7  C5  UNK     1      20.094  -1.789  32.668  1.00  0.00     0.102 A 
HETATM    8  C6  UNK     1      19.068  -0.839  32.681  1.00  0.00     0.102 A 
HETATM    9  C7  UNK     1      20.417  -2.474  33.846  1.00  0.00     0.055 A 
HETATM   10  C8  UNK     1      19.684  -2.259  35.012  1.00  0.00     0.017 A 
HETATM   11  C9  UNK     1      18.318  -0.649  33.848  1.00  0.00     0.040 A 
HETATM   12  C10 UNK     1      18.627  -1.354  35.011  1.00  0.00     0.018 A 
ENDROOT
BRANCH  10  13
HETATM   13  C11 UNK     1      20.016  -2.988  36.226  1.00  0.00     0.182 C 
HETATM   14  O3  UNK     1      20.549  -2.450  37.207  1.00  0.00    -0.288 OA
BRANCH  13  15
HETATM   15  C12 UNK     1      19.665  -4.451  36.313  1.00  0.00     0.056 C 
HETATM   16  C13 UNK     1      20.003  -5.181  37.388  1.00  0.00     0.015 C 
BRANCH  16  17
HETATM   17  C14 UNK     1      19.726  -6.580  37.616  1.00  0.00    -0.036 A 
HETATM   18  C15 UNK     1      19.213  -7.376  36.584  1.00  0.00     0.014 A 
HETATM   19  C17 UNK     1      18.945  -8.727  36.803  1.00  0.00     0.043 A 
HETATM   20  C19 UNK     1      19.188  -9.292  38.055  1.00  0.00     0.116 A 
HETATM   21  C18 UNK     1      19.699  -8.507  39.088  1.00  0.00     0.043 A 
HETATM   22  F1  UNK     1      18.929 -10.590  38.266  1.00  0.00    -0.206 F 
HETATM   23  C16 UNK     1      19.967  -7.156  38.869  1.00  0.00     0.014 A 
ENDBRANCH  16  17
ENDBRANCH  13  15
ENDBRANCH  10  13
TORSDOF 3
ENDMDL
MODEL 3
REMARK VINA RESULT:      -9.1      3.795      8.564
REMARK  3 active torsions:
REMARK  status: ('A' for Active; 'I' for Inactive)
REMARK    1  A    between atoms: C11_15  and  C8_12 
REMARK    2  A    between atoms: C11_15  and  C12_16 
REMARK    3  A    between atoms: C13_17  and  C14_18 
ROOT
HETATM    1  O1  UNK     1      16.359   8.568  31.963  1.00  0.00    -0.348 OA
HETATM    2  O2  UNK     1      18.301   8.694  34.209  1.00  0.00    -0.348 OA
HETATM    3  C1  UNK     1      15.648  10.291  33.490  1.00  0.00     0.029 C 
HETATM    4  C2  UNK     1      16.890  10.645  34.310  1.00  0.00     0.029 C 
HETATM    5  C3  UNK     1      15.541   8.819  33.108  1.00  0.00     0.176 C 
HETATM    6  C4  UNK     1      18.189  10.053  33.776  1.00  0.00     0.176 C 
HETATM    7  C5  UNK     1      17.393   7.696  32.160  1.00  0.00     0.102 A 
HETATM    8  C6  UNK     1      18.311   7.760  33.212  1.00  0.00     0.102 A 
HETATM    9  C7  UNK     1      17.534   6.707  31.178  1.00  0.00     0.055 A 
HETATM   10  C8  UNK     1      18.544   5.752  31.277  1.00  0.00     0.017 A 
HETATM   11  C9  UNK     1      19.306   6.782  33.321  1.00  0.00     0.040 A 
HETATM   12  C10 UNK     1      19.424   5.782  32.354  1.00  0.00     0.018 A 
ENDROOT
BRANCH  10  13
HETATM   13  C11 UNK     1      18.672   4.718  30.262  1.00  0.00     0.182 C 
HETATM   14  O3  UNK     1      18.503   4.939  29.055  1.00  0.00    -0.288 OA
BRANCH  13  15
HETATM   15  C12 UNK     1      19.064   3.327  30.688  1.00  0.00     0.056 C 
HETATM   16  C13 UNK     1      19.095   2.315  29.805  1.00  0.00     0.015 C 
BRANCH  16  17
HETATM   17  C14 UNK     1      19.459   0.942  30.064  1.00  0.00    -0.036 A 
HETATM   18  C15 UNK     1      19.986   0.145  29.040  1.00  0.00     0.014 A 
HETATM   19  C17 UNK     1      20.337  -1.181  29.289  1.00  0.00     0.043 A 
HETATM   20  C19 UNK     1      20.164  -1.721  30.564  1.00  0.00     0.116 A 
HETATM   21  C18 UNK     1      19.640  -0.934  31.590  1.00  0.00     0.043 A 
HETATM   22  F1  UNK     1      20.500  -2.995  30.804  1.00  0.00    -0.206 F 
HETATM   23  C16 UNK     1      19.289   0.392  31.340  1.00  0.00     0.014 A 
ENDBRANCH  16  17
ENDBRANCH  13  15
ENDBRANCH  10  13
TORSDOF 3
ENDMDL
MODEL 4
REMARK VINA RESULT:      -9.0      4.314      9.257
REMARK  3 active torsions:
REMARK  status: ('A' for Active; 'I' for Inactive)
REMARK    1  A    between atoms: C11_15  and  C8_12 
REMARK    2  A    between atoms: C11_15  and  C12_16 
REMARK    3  A    between atoms: C13_17  and  C14_18 
ROOT
HETATM    1  O1  UNK     1      17.464   9.575  34.541  1.00  0.00    -0.348 OA
HETATM    2  O2  UNK     1      15.263   9.925  32.576  1.00  0.00    -0.348 OA
HETATM    3  C1  UNK     1      16.767  11.881  34.580  1.00  0.00     0.029 C 
HETATM    4  C2  UNK     1      15.366  11.892  33.964  1.00  0.00     0.029 C 
HETATM    5  C3  UNK     1      17.719  10.859  33.969  1.00  0.00     0.176 C 
HETATM    6  C4  UNK     1      14.748  10.512  33.775  1.00  0.00     0.176 C 
HETATM    7  C5  UNK     1      17.029   8.618  33.667  1.00  0.00     0.102 A 
HETATM    8  C6  UNK     1      15.988   8.781  32.749  1.00  0.00     0.102 A 
HETATM    9  C7  UNK     1      17.673   7.379  33.771  1.00  0.00     0.055 A 
HETATM   10  C8  UNK     1      17.325   6.328  32.923  1.00  0.00     0.017 A 
HETATM   11  C9  UNK     1      15.662   7.731  31.882  1.00  0.00     0.040 A 
HETATM   12  C10 UNK     1      16.327   6.507  31.971  1.00  0.00     0.018 A 
ENDROOT
BRANCH  10  13
HETATM   13  C11 UNK     1      18.012   5.051  33.026  1.00  0.00     0.182 C 
HETATM   14  O3  UNK     1      18.398   4.582  34.106  1.00  0.00    -0.288 OA
BRANCH  13  15
HETATM   15  C12 UNK     1      18.231   4.241  31.774  1.00  0.00     0.056 C 
HETATM   16  C13 UNK     1      18.407   2.911  31.832  1.00  0.00     0.015 C 
BRANCH  16  17
HETATM   17  C14 UNK     1      18.615   2.009  30.723  1.00  0.00    -0.036 A 
HETATM   18  C15 UNK     1      17.924   2.197  29.519  1.00  0.00     0.014 A 
HETATM   19  C17 UNK     1      18.124   1.326  28.449  1.00  0.00     0.043 A 
HETATM   20  C19 UNK     1      19.016   0.262  28.573  1.00  0.00     0.116 A 
HETATM   21  C18 UNK     1      19.709   0.067  29.768  1.00  0.00     0.043 A 
HETATM   22  F1  UNK     1      19.208  -0.576  27.545  1.00  0.00    -0.206 F 
HETATM   23  C16 UNK     1      19.508   0.938  30.839  1.00  0.00     0.014 A 
ENDBRANCH  16  17
ENDBRANCH  13  15
ENDBRANCH  10  13
TORSDOF 3
ENDMDL
MODEL 5
REMARK VINA RESULT:      -8.9      5.155      9.633
REMARK  3 active torsions:
REMARK  status: ('A' for Active; 'I' for Inactive)
REMARK    1  A    between atoms: C11_15  and  C8_12 
REMARK    2  A    between atoms: C11_15  and  C12_16 
REMARK    3  A    between atoms: C13_17  and  C14_18 
ROOT
HETATM    1  O1  UNK     1      18.623   0.016  31.524  1.00  0.00    -0.348 OA
HETATM    2  O2  UNK     1      20.854  -1.552  30.344  1.00  0.00    -0.348 OA
HETATM    3  C1  UNK     1      19.052   0.852  29.305  1.00  0.00     0.029 C 
HETATM    4  C2  UNK     1      19.815  -0.265  28.591  1.00  0.00     0.029 C 
HETATM    5  C3  UNK     1      19.371   0.987  30.790  1.00  0.00     0.176 C 
HETATM    6  C4  UNK     1      19.837  -1.593  29.338  1.00  0.00     0.176 C 
HETATM    7  C5  UNK     1      19.366  -0.918  32.189  1.00  0.00     0.102 A 
HETATM    8  C6  UNK     1      20.411  -1.661  31.631  1.00  0.00     0.102 A 
HETATM    9  C7  UNK     1      18.983  -1.151  33.516  1.00  0.00     0.055 A 
HETATM   10  C8  UNK     1      19.676  -2.072  34.300  1.00  0.00     0.017 A 
HETATM   11  C9  UNK     1      21.120  -2.565  32.432  1.00  0.00     0.040 A 
HETATM   12  C10 UNK     1      20.751  -2.772  33.761  1.00  0.00     0.018 A 
ENDROOT
BRANCH  10  13
HETATM   13  C11 UNK     1      19.282  -2.294  35.682  1.00  0.00     0.182 C 
HETATM   14  O3  UNK     1      18.256  -1.805  36.174  1.00  0.00    -0.288 OA
BRANCH  13  15
HETATM   15  C12 UNK     1      20.135  -3.189  36.545  1.00  0.00     0.056 C 
HETATM   16  C13 UNK     1      19.687  -4.387  36.955  1.00  0.00     0.015 C 
BRANCH  16  17
HETATM   17  C14 UNK     1      20.391  -5.349  37.770  1.00  0.00    -0.036 A 
HETATM   18  C15 UNK     1      21.757  -5.190  38.031  1.00  0.00     0.014 A 
HETATM   19  C17 UNK     1      22.437  -6.119  38.818  1.00  0.00     0.043 A 
HETATM   20  C19 UNK     1      21.756  -7.214  39.350  1.00  0.00     0.116 A 
HETATM   21  C18 UNK     1      20.395  -7.380  39.095  1.00  0.00     0.043 A 
HETATM   22  F1  UNK     1      22.409  -8.107  40.105  1.00  0.00    -0.206 F 
HETATM   23  C16 UNK     1      19.715  -6.451  38.308  1.00  0.00     0.014 A 
ENDBRANCH  16  17
ENDBRANCH  13  15
ENDBRANCH  10  13
TORSDOF 3
ENDMDL
MODEL 6
REMARK VINA RESULT:      -8.8      5.224      8.592
REMARK  3 active torsions:
REMARK  status: ('A' for Active; 'I' for Inactive)
REMARK    1  A    between atoms: C11_15  and  C8_12 
REMARK    2  A    between atoms: C11_15  and  C12_16 
REMARK    3  A    between atoms: C13_17  and  C14_18 
ROOT
HETATM    1  O1  UNK     1      18.726  -7.291  36.645  1.00  0.00    -0.348 OA
HETATM    2  O2  UNK     1      20.963  -7.417  38.597  1.00  0.00    -0.348 OA
HETATM    3  C1  UNK     1      18.981  -9.576  37.365  1.00  0.00     0.029 C 
HETATM    4  C2  UNK     1      19.759  -9.502  38.682  1.00  0.00     0.029 C 
HETATM    5  C3  UNK     1      19.379  -8.524  36.336  1.00  0.00     0.176 C 
HETATM    6  C4  UNK     1      19.893  -8.098  39.258  1.00  0.00     0.176 C 
HETATM    7  C5  UNK     1      19.554  -6.251  36.961  1.00  0.00     0.102 A 
HETATM    8  C6  UNK     1      20.602  -6.308  37.885  1.00  0.00     0.102 A 
HETATM    9  C7  UNK     1      19.262  -5.040  36.322  1.00  0.00     0.055 A 
HETATM   10  C8  UNK     1      20.046  -3.910  36.554  1.00  0.00     0.017 A 
HETATM   11  C9  UNK     1      21.402  -5.178  38.094  1.00  0.00     0.040 A 
HETATM   12  C10 UNK     1      21.123  -3.982  37.433  1.00  0.00     0.018 A 
ENDROOT
BRANCH  10  13
HETATM   13  C11 UNK     1      19.745  -2.662  35.872  1.00  0.00     0.182 C 
HETATM   14  O3  UNK     1      19.195  -1.705  36.435  1.00  0.00    -0.288 OA
BRANCH  13  15
HETATM   15  C12 UNK     1      20.153  -2.506  34.429  1.00  0.00     0.056 C 
HETATM   16  C13 UNK     1      19.461  -1.712  33.596  1.00  0.00     0.015 C 
BRANCH  16  17
HETATM   17  C14 UNK     1      19.738  -1.459  32.201  1.00  0.00    -0.036 A 
HETATM   18  C15 UNK     1      20.324  -2.450  31.405  1.00  0.00     0.014 A 
HETATM   19  C17 UNK     1      20.592  -2.206  30.059  1.00  0.00     0.043 A 
HETATM   20  C19 UNK     1      20.274  -0.969  29.498  1.00  0.00     0.116 A 
HETATM   21  C18 UNK     1      19.690   0.024  30.284  1.00  0.00     0.043 A 
HETATM   22  F1  UNK     1      20.533  -0.733  28.205  1.00  0.00    -0.206 F 
HETATM   23  C16 UNK     1      19.423  -0.220  31.631  1.00  0.00     0.014 A 
ENDBRANCH  16  17
ENDBRANCH  13  15
ENDBRANCH  10  13
TORSDOF 3
ENDMDL
MODEL 7
REMARK VINA RESULT:      -8.6      1.838      2.742
REMARK  3 active torsions:
REMARK  status: ('A' for Active; 'I' for Inactive)
REMARK    1  A    between atoms: C11_15  and  C8_12 
REMARK    2  A    between atoms: C11_15  and  C12_16 
REMARK    3  A    between atoms: C13_17  and  C14_18 
ROOT
HETATM    1  O1  UNK     1      17.690   1.224  35.467  1.00  0.00    -0.348 OA
HETATM    2  O2  UNK     1      18.733  -1.359  34.433  1.00  0.00    -0.348 OA
HETATM    3  C1  UNK     1      17.389  -0.456  37.169  1.00  0.00     0.029 C 
HETATM    4  C2  UNK     1      18.359  -1.582  36.803  1.00  0.00     0.029 C 
HETATM    5  C3  UNK     1      16.767   0.257  35.973  1.00  0.00     0.176 C 
HETATM    6  C4  UNK     1      19.360  -1.224  35.712  1.00  0.00     0.176 C 
HETATM    7  C5  UNK     1      18.129   1.007  34.191  1.00  0.00     0.102 A 
HETATM    8  C6  UNK     1      18.627  -0.206  33.707  1.00  0.00     0.102 A 
HETATM    9  C7  UNK     1      18.105   2.129  33.354  1.00  0.00     0.055 A 
HETATM   10  C8  UNK     1      18.516   2.027  32.025  1.00  0.00     0.017 A 
HETATM   11  C9  UNK     1      19.012  -0.308  32.365  1.00  0.00     0.040 A 
HETATM   12  C10 UNK     1      18.960   0.806  31.528  1.00  0.00     0.018 A 
ENDROOT
BRANCH  10  13
HETATM   13  C11 UNK     1      18.472   3.193  31.158  1.00  0.00     0.182 C 
HETATM   14  O3  UNK     1      18.702   3.134  29.942  1.00  0.00    -0.288 OA
BRANCH  13  15
HETATM   15  C12 UNK     1      18.091   4.525  31.751  1.00  0.00     0.056 C 
HETATM   16  C13 UNK     1      19.030   5.392  32.166  1.00  0.00     0.015 C 
BRANCH  16  17
HETATM   17  C14 UNK     1      18.818   6.700  32.740  1.00  0.00    -0.036 A 
HETATM   18  C15 UNK     1      17.637   7.405  32.476  1.00  0.00     0.014 A 
HETATM   19  C17 UNK     1      17.432   8.668  33.030  1.00  0.00     0.043 A 
HETATM   20  C19 UNK     1      18.405   9.235  33.853  1.00  0.00     0.116 A 
HETATM   21  C18 UNK     1      19.583   8.539  34.123  1.00  0.00     0.043 A 
HETATM   22  F1  UNK     1      18.208  10.449  34.385  1.00  0.00    -0.206 F 
HETATM   23  C16 UNK     1      19.789   7.276  33.568  1.00  0.00     0.014 A 
ENDBRANCH  16  17
ENDBRANCH  13  15
ENDBRANCH  10  13
TORSDOF 3
ENDMDL
MODEL 8
REMARK VINA RESULT:      -8.5      4.075      8.454
REMARK  3 active torsions:
REMARK  status: ('A' for Active; 'I' for Inactive)
REMARK    1  A    between atoms: C11_15  and  C8_12 
REMARK    2  A    between atoms: C11_15  and  C12_16 
REMARK    3  A    between atoms: C13_17  and  C14_18 
ROOT
HETATM    1  O1  UNK     1      19.650   7.593  34.452  1.00  0.00    -0.348 OA
HETATM    2  O2  UNK     1      17.738   9.057  32.710  1.00  0.00    -0.348 OA
HETATM    3  C1  UNK     1      20.084   9.954  34.659  1.00  0.00     0.029 C 
HETATM    4  C2  UNK     1      18.808  10.646  34.172  1.00  0.00     0.029 C 
HETATM    5  C3  UNK     1      20.427   8.667  33.918  1.00  0.00     0.176 C 
HETATM    6  C4  UNK     1      17.619   9.713  33.976  1.00  0.00     0.176 C 
HETATM    7  C5  UNK     1      18.776   7.010  33.577  1.00  0.00     0.102 A 
HETATM    8  C6  UNK     1      17.872   7.698  32.764  1.00  0.00     0.102 A 
HETATM    9  C7  UNK     1      18.790   5.610  33.565  1.00  0.00     0.055 A 
HETATM   10  C8  UNK     1      17.952   4.902  32.704  1.00  0.00     0.017 A 
HETATM   11  C9  UNK     1      17.053   6.983  31.882  1.00  0.00     0.040 A 
HETATM   12  C10 UNK     1      17.091   5.589  31.855  1.00  0.00     0.018 A 
ENDROOT
BRANCH  10  13
HETATM   13  C11 UNK     1      17.986   3.448  32.686  1.00  0.00     0.182 C 
HETATM   14  O3  UNK     1      17.816   2.786  31.653  1.00  0.00    -0.288 OA
BRANCH  13  15
HETATM   15  C12 UNK     1      18.279   2.713  33.969  1.00  0.00     0.056 C 
HETATM   16  C13 UNK     1      17.733   1.512  34.219  1.00  0.00     0.015 C 
BRANCH  16  17
HETATM   17  C14 UNK     1      17.929   0.690  35.391  1.00  0.00    -0.036 A 
HETATM   18  C15 UNK     1      18.564  -0.553  35.285  1.00  0.00     0.014 A 
HETATM   19  C17 UNK     1      18.753  -1.346  36.416  1.00  0.00     0.043 A 
HETATM   20  C19 UNK     1      18.308  -0.902  37.661  1.00  0.00     0.116 A 
HETATM   21  C18 UNK     1      17.675   0.335  37.776  1.00  0.00     0.043 A 
HETATM   22  F1  UNK     1      18.489  -1.665  38.748  1.00  0.00    -0.206 F 
HETATM   23  C16 UNK     1      17.486   1.128  36.644  1.00  0.00     0.014 A 
ENDBRANCH  16  17
ENDBRANCH  13  15
ENDBRANCH  10  13
TORSDOF 3
ENDMDL
MODEL 9
REMARK VINA RESULT:      -8.5      4.233      8.504
REMARK  3 active torsions:
REMARK  status: ('A' for Active; 'I' for Inactive)
REMARK    1  A    between atoms: C11_15  and  C8_12 
REMARK    2  A    between atoms: C11_15  and  C12_16 
REMARK    3  A    between atoms: C13_17  and  C14_18 
ROOT
HETATM    1  O1  UNK     1      15.338   7.555  32.929  1.00  0.00    -0.348 OA
HETATM    2  O2  UNK     1      17.419   8.905  34.565  1.00  0.00    -0.348 OA
HETATM    3  C1  UNK     1      14.372   9.534  33.909  1.00  0.00     0.029 C 
HETATM    4  C2  UNK     1      15.561  10.417  34.295  1.00  0.00     0.029 C 
HETATM    5  C3  UNK     1      14.618   8.037  34.066  1.00  0.00     0.176 C 
HETATM    6  C4  UNK     1      16.901   9.952  33.738  1.00  0.00     0.176 C 
HETATM    7  C5  UNK     1      16.581   7.053  33.191  1.00  0.00     0.102 A 
HETATM    8  C6  UNK     1      17.563   7.692  33.954  1.00  0.00     0.102 A 
HETATM    9  C7  UNK     1      16.867   5.823  32.586  1.00  0.00     0.055 A 
HETATM   10  C8  UNK     1      18.100   5.204  32.791  1.00  0.00     0.017 A 
HETATM   11  C9  UNK     1      18.788   7.053  34.179  1.00  0.00     0.040 A 
HETATM   12  C10 UNK     1      19.057   5.814  33.596  1.00  0.00     0.018 A 
ENDROOT
BRANCH  10  13
HETATM   13  C11 UNK     1      18.381   3.918  32.173  1.00  0.00     0.182 C 
HETATM   14  O3  UNK     1      18.801   3.809  31.013  1.00  0.00    -0.288 OA
BRANCH  13  15
HETATM   15  C12 UNK     1      18.192   2.664  32.988  1.00  0.00     0.056 C 
HETATM   16  C13 UNK     1      18.243   2.696  34.330  1.00  0.00     0.015 C 
BRANCH  16  17
HETATM   17  C14 UNK     1      18.071   1.585  35.236  1.00  0.00    -0.036 A 
HETATM   18  C15 UNK     1      18.148   0.269  34.764  1.00  0.00     0.014 A 
HETATM   19  C17 UNK     1      17.981  -0.805  35.639  1.00  0.00     0.043 A 
HETATM   20  C19 UNK     1      17.738  -0.570  36.992  1.00  0.00     0.116 A 
HETATM   21  C18 UNK     1      17.660   0.738  37.471  1.00  0.00     0.043 A 
HETATM   22  F1  UNK     1      17.577  -1.601  37.833  1.00  0.00    -0.206 F 
HETATM   23  C16 UNK     1      17.826   1.811  36.595  1.00  0.00     0.014 A 
ENDBRANCH  16  17
ENDBRANCH  13  15
ENDBRANCH  10  13
TORSDOF 3
ENDMDL
MODEL 10
REMARK VINA RESULT:      -8.4      1.650      2.611
REMARK  3 active torsions:
REMARK  status: ('A' for Active; 'I' for Inactive)
REMARK    1  A    between atoms: C11_15  and  C8_12 
REMARK    2  A    between atoms: C11_15  and  C12_16 
REMARK    3  A    between atoms: C13_17  and  C14_18 
ROOT
HETATM    1  O1  UNK     1      18.435  -0.531  34.497  1.00  0.00    -0.348 OA
HETATM    2  O2  UNK     1      20.253  -2.882  34.504  1.00  0.00    -0.348 OA
HETATM    3  C1  UNK     1      18.209  -1.664  36.612  1.00  0.00     0.029 C 
HETATM    4  C2  UNK     1      19.474  -2.514  36.754  1.00  0.00     0.029 C 
HETATM    5  C3  UNK     1      17.689  -1.538  35.185  1.00  0.00     0.176 C 
HETATM    6  C4  UNK     1      20.559  -2.209  35.729  1.00  0.00     0.176 C 
HETATM    7  C5  UNK     1      19.160  -0.968  33.425  1.00  0.00     0.102 A 
HETATM    8  C6  UNK     1      20.022  -2.069  33.430  1.00  0.00     0.102 A 
HETATM    9  C7  UNK     1      19.038  -0.192  32.266  1.00  0.00     0.055 A 
HETATM   10  C8  UNK     1      19.720  -0.546  31.102  1.00  0.00     0.017 A 
HETATM   11  C9  UNK     1      20.682  -2.435  32.252  1.00  0.00     0.040 A 
HETATM   12  C10 UNK     1      20.534  -1.674  31.092  1.00  0.00     0.018 A 
ENDROOT
BRANCH  10  13
HETATM   13  C11 UNK     1      19.572   0.256  29.899  1.00  0.00     0.182 C 
HETATM   14  O3  UNK     1      19.452  -0.242  28.771  1.00  0.00    -0.288 OA
BRANCH  13  15
HETATM   15  C12 UNK     1      19.524   1.757  30.028  1.00  0.00     0.056 C 
HETATM   16  C13 UNK     1      18.651   2.353  30.857  1.00  0.00     0.015 C 
BRANCH  16  17
HETATM   17  C14 UNK     1      18.499   3.770  31.092  1.00  0.00    -0.036 A 
HETATM   18  C15 UNK     1      17.862   4.230  32.251  1.00  0.00     0.014 A 
HETATM   19  C17 UNK     1      17.714   5.598  32.478  1.00  0.00     0.043 A 
HETATM   20  C19 UNK     1      18.201   6.516  31.547  1.00  0.00     0.116 A 
HETATM   21  C18 UNK     1      18.837   6.066  30.390  1.00  0.00     0.043 A 
HETATM   22  F1  UNK     1      18.058   7.830  31.765  1.00  0.00    -0.206 F 
HETATM   23  C16 UNK     1      18.985   4.698  30.163  1.00  0.00     0.014 A 
ENDBRANCH  16  17
ENDBRANCH  13  15
ENDBRANCH  10  13
TORSDOF 3
ENDMDL
