MODEL 1
REMARK VINA RESULT:      -8.7      0.000      0.000
REMARK  5 active torsions:
REMARK  status: ('A' for Active; 'I' for Inactive)
REMARK    1  A    between atoms: C12_18  and  N1_4 
REMARK    2  A    between atoms: C4_10  and  N1_4 
REMARK    3  A    between atoms: C10_16  and  N2_5 
REMARK    4  A    between atoms: C12_18  and  N2_5 
REMARK    5  A    between atoms: C10_16  and  C13_19 
ROOT
HETATM    1  N1  UNK     1      18.787  -0.486  31.142  1.00  0.00    -0.333 N 
HETATM    2  H5  UNK     1      17.961  -0.896  30.716  1.00  0.00     0.168 HD
ENDROOT
BRANCH   1   3
HETATM    3  C12 UNK     1      19.653   0.129  30.236  1.00  0.00     0.172 C 
HETATM    4  S1  UNK     1      20.660  -0.594  29.104  1.00  0.00    -0.041 SA
BRANCH   3   5
HETATM    5  N2  UNK     1      19.632   1.518  30.261  1.00  0.00    -0.361 N 
HETATM    6  H11 UNK     1      20.513   1.980  30.465  1.00  0.00     0.162 HD
BRANCH   5   7
HETATM    7  C10 UNK     1      18.495   2.380  29.999  1.00  0.00     0.181 C 
BRANCH   7   8
HETATM    8  C13 UNK     1      18.567   3.669  30.769  1.00  0.00     0.051 A 
HETATM    9  N3  UNK     1      17.942   3.685  31.963  1.00  0.00    -0.264 NA
HETATM   10  C16 UNK     1      18.010   4.848  32.651  1.00  0.00     0.117 A 
HETATM   11  C17 UNK     1      18.669   5.979  32.198  1.00  0.00     0.019 A 
HETATM   12  C15 UNK     1      19.299   5.914  30.961  1.00  0.00     0.003 A 
HETATM   13  C14 UNK     1      19.252   4.737  30.223  1.00  0.00     0.029 A 
ENDBRANCH   7   8
ENDBRANCH   5   7
ENDBRANCH   3   5
ENDBRANCH   1   3
BRANCH   1  14
HETATM   14  C4  UNK     1      18.978  -0.928  32.451  1.00  0.00     0.036 A 
HETATM   15  C5  UNK     1      18.278  -0.336  33.497  1.00  0.00     0.067 A 
HETATM   16  C2  UNK     1      18.485  -0.795  34.800  1.00  0.00     0.092 A 
HETATM   17  C1  UNK     1      19.372  -1.830  35.094  1.00  0.00     0.004 A 
HETATM   18  O1  UNK     1      17.746  -0.157  35.817  1.00  0.00    -0.275 OA
HETATM   19  C3  UNK     1      19.526  -2.249  36.494  1.00  0.00    -0.043 A 
HETATM   20  C6  UNK     1      20.068  -2.413  34.025  1.00  0.00     0.017 A 
HETATM   21  C8  UNK     1      18.811  -1.624  37.440  1.00  0.00     0.090 A 
HETATM   22  C9  UNK     1      20.474  -3.360  36.842  1.00  0.00     0.049 C 
HETATM   23  C11 UNK     1      17.871  -0.530  37.146  1.00  0.00     0.288 A 
HETATM   24  O2  UNK     1      17.234   0.018  38.038  1.00  0.00    -0.260 OA
HETATM   25  C7  UNK     1      19.872  -1.964  32.715  1.00  0.00     0.030 A 
ENDBRANCH   1  14
TORSDOF 5
ENDMDL
MODEL 2
REMARK VINA RESULT:      -8.7      1.484      2.187
REMARK  5 active torsions:
REMARK  status: ('A' for Active; 'I' for Inactive)
REMARK    1  A    between atoms: C12_18  and  N1_4 
REMARK    2  A    between atoms: C4_10  and  N1_4 
REMARK    3  A    between atoms: C10_16  and  N2_5 
REMARK    4  A    between atoms: C12_18  and  N2_5 
REMARK    5  A    between atoms: C10_16  and  C13_19 
ROOT
HETATM    1  N1  UNK     1      18.679  -0.345  31.332  1.00  0.00    -0.333 N 
HETATM    2  H5  UNK     1      17.930  -0.832  30.849  1.00  0.00     0.168 HD
ENDROOT
BRANCH   1   3
HETATM    3  C12 UNK     1      19.638   0.214  30.486  1.00  0.00     0.172 C 
HETATM    4  S1  UNK     1      20.723  -0.576  29.476  1.00  0.00    -0.041 SA
BRANCH   3   5
HETATM    5  N2  UNK     1      19.653   1.603  30.459  1.00  0.00    -0.361 N 
HETATM    6  H11 UNK     1      20.538   2.050  30.681  1.00  0.00     0.162 HD
BRANCH   5   7
HETATM    7  C10 UNK     1      18.550   2.482  30.119  1.00  0.00     0.181 C 
BRANCH   7   8
HETATM    8  C13 UNK     1      18.595   3.775  30.885  1.00  0.00     0.051 A 
HETATM    9  N3  UNK     1      17.921   3.799  32.051  1.00  0.00    -0.264 NA
HETATM   10  C16 UNK     1      17.965   4.966  32.735  1.00  0.00     0.117 A 
HETATM   11  C17 UNK     1      18.646   6.092  32.305  1.00  0.00     0.019 A 
HETATM   12  C15 UNK     1      19.327   6.018  31.095  1.00  0.00     0.003 A 
HETATM   13  C14 UNK     1      19.306   4.837  30.362  1.00  0.00     0.029 A 
ENDBRANCH   7   8
ENDBRANCH   5   7
ENDBRANCH   3   5
ENDBRANCH   1   3
BRANCH   1  14
HETATM   14  C4  UNK     1      18.708  -0.645  32.694  1.00  0.00     0.036 A 
HETATM   15  C5  UNK     1      19.489  -1.697  33.160  1.00  0.00     0.067 A 
HETATM   16  C2  UNK     1      19.504  -1.980  34.528  1.00  0.00     0.092 A 
HETATM   17  C1  UNK     1      18.759  -1.243  35.450  1.00  0.00     0.004 A 
HETATM   18  O1  UNK     1      20.314  -3.057  34.940  1.00  0.00    -0.275 OA
HETATM   19  C3  UNK     1      18.835  -1.611  36.870  1.00  0.00    -0.043 A 
HETATM   20  C6  UNK     1      17.979  -0.187  34.959  1.00  0.00     0.017 A 
HETATM   21  C8  UNK     1      19.614  -2.640  37.233  1.00  0.00     0.090 A 
HETATM   22  C9  UNK     1      18.047  -0.838  37.886  1.00  0.00     0.049 C 
HETATM   23  C11 UNK     1      20.405  -3.427  36.273  1.00  0.00     0.288 A 
HETATM   24  O2  UNK     1      21.106  -4.362  36.642  1.00  0.00    -0.260 OA
HETATM   25  C7  UNK     1      17.955   0.108  33.592  1.00  0.00     0.030 A 
ENDBRANCH   1  14
TORSDOF 5
ENDMDL
MODEL 3
REMARK VINA RESULT:      -8.6      4.262      8.260
REMARK  5 active torsions:
REMARK  status: ('A' for Active; 'I' for Inactive)
REMARK    1  A    between atoms: C12_18  and  N1_4 
REMARK    2  A    between atoms: C4_10  and  N1_4 
REMARK    3  A    between atoms: C10_16  and  N2_5 
REMARK    4  A    between atoms: C12_18  and  N2_5 
REMARK    5  A    between atoms: C10_16  and  C13_19 
ROOT
HETATM    1  N1  UNK     1      17.602   4.423  32.156  1.00  0.00    -0.333 N 
HETATM    2  H5  UNK     1      16.742   4.506  31.621  1.00  0.00     0.168 HD
ENDROOT
BRANCH   1   3
HETATM    3  C12 UNK     1      17.926   3.115  32.520  1.00  0.00     0.172 C 
HETATM    4  S1  UNK     1      18.248   2.511  34.054  1.00  0.00    -0.041 SA
BRANCH   3   5
HETATM    5  N2  UNK     1      17.937   2.204  31.471  1.00  0.00    -0.361 N 
HETATM    6  H11 UNK     1      17.090   1.661  31.336  1.00  0.00     0.162 HD
BRANCH   5   7
HETATM    7  C10 UNK     1      19.017   1.966  30.532  1.00  0.00     0.181 C 
BRANCH   7   8
HETATM    8  C13 UNK     1      19.481   0.536  30.547  1.00  0.00     0.051 A 
HETATM    9  N3  UNK     1      19.205  -0.167  31.663  1.00  0.00    -0.264 NA
HETATM   10  C16 UNK     1      19.626  -1.452  31.671  1.00  0.00     0.117 A 
HETATM   11  C17 UNK     1      20.301  -2.054  30.622  1.00  0.00     0.019 A 
HETATM   12  C15 UNK     1      20.562  -1.288  29.492  1.00  0.00     0.003 A 
HETATM   13  C14 UNK     1      20.146   0.038  29.445  1.00  0.00     0.029 A 
ENDBRANCH   7   8
ENDBRANCH   5   7
ENDBRANCH   3   5
ENDBRANCH   1   3
BRANCH   1  14
HETATM   14  C4  UNK     1      18.037   5.655  32.644  1.00  0.00     0.036 A 
HETATM   15  C5  UNK     1      17.139   6.707  32.783  1.00  0.00     0.067 A 
HETATM   16  C2  UNK     1      17.596   7.932  33.274  1.00  0.00     0.092 A 
HETATM   17  C1  UNK     1      18.929   8.141  33.632  1.00  0.00     0.004 A 
HETATM   18  O1  UNK     1      16.640   8.961  33.393  1.00  0.00    -0.275 OA
HETATM   19  C3  UNK     1      19.322   9.463  34.140  1.00  0.00    -0.043 A 
HETATM   20  C6  UNK     1      19.818   7.068  33.484  1.00  0.00     0.017 A 
HETATM   21  C8  UNK     1      18.390  10.422  34.243  1.00  0.00     0.090 A 
HETATM   22  C9  UNK     1      20.747   9.719  34.533  1.00  0.00     0.049 C 
HETATM   23  C11 UNK     1      16.981  10.217  33.869  1.00  0.00     0.288 A 
HETATM   24  O2  UNK     1      16.157  11.118  33.976  1.00  0.00    -0.260 OA
HETATM   25  C7  UNK     1      19.374   5.835  32.993  1.00  0.00     0.030 A 
ENDBRANCH   1  14
TORSDOF 5
ENDMDL
MODEL 4
REMARK VINA RESULT:      -8.5      4.340      6.416
REMARK  5 active torsions:
REMARK  status: ('A' for Active; 'I' for Inactive)
REMARK    1  A    between atoms: C12_18  and  N1_4 
REMARK    2  A    between atoms: C4_10  and  N1_4 
REMARK    3  A    between atoms: C10_16  and  N2_5 
REMARK    4  A    between atoms: C12_18  and  N2_5 
REMARK    5  A    between atoms: C10_16  and  C13_19 
ROOT
HETATM    1  N1  UNK     1      19.395  -3.150  35.749  1.00  0.00    -0.333 N 
HETATM    2  H5  UNK     1      19.716  -3.235  34.789  1.00  0.00     0.168 HD
ENDROOT
BRANCH   1   3
HETATM    3  C12 UNK     1      18.860  -1.900  36.065  1.00  0.00     0.172 C 
HETATM    4  S1  UNK     1      18.119  -1.416  37.493  1.00  0.00    -0.041 SA
BRANCH   3   5
HETATM    5  N2  UNK     1      19.006  -0.937  35.075  1.00  0.00    -0.361 N 
HETATM    6  H11 UNK     1      19.782  -0.291  35.184  1.00  0.00     0.162 HD
BRANCH   5   7
HETATM    7  C10 UNK     1      18.187  -0.771  33.889  1.00  0.00     0.181 C 
BRANCH   7   8
HETATM    8  C13 UNK     1      19.010  -0.712  32.633  1.00  0.00     0.051 A 
HETATM    9  N3  UNK     1      19.000   0.461  31.970  1.00  0.00    -0.264 NA
HETATM   10  C16 UNK     1      19.742   0.508  30.840  1.00  0.00     0.117 A 
HETATM   11  C17 UNK     1      20.482  -0.557  30.352  1.00  0.00     0.019 A 
HETATM   12  C15 UNK     1      20.460  -1.747  31.071  1.00  0.00     0.003 A 
HETATM   13  C14 UNK     1      19.710  -1.836  32.238  1.00  0.00     0.029 A 
ENDBRANCH   7   8
ENDBRANCH   5   7
ENDBRANCH   3   5
ENDBRANCH   1   3
BRANCH   1  14
HETATM   14  C4  UNK     1      19.870  -4.184  36.555  1.00  0.00     0.036 A 
HETATM   15  C5  UNK     1      19.162  -5.378  36.647  1.00  0.00     0.067 A 
HETATM   16  C2  UNK     1      19.656  -6.401  37.460  1.00  0.00     0.092 A 
HETATM   17  C1  UNK     1      20.839  -6.270  38.188  1.00  0.00     0.004 A 
HETATM   18  O1  UNK     1      18.896  -7.587  37.513  1.00  0.00    -0.275 OA
HETATM   19  C3  UNK     1      21.284  -7.398  39.017  1.00  0.00    -0.043 A 
HETATM   20  C6  UNK     1      21.537  -5.059  38.081  1.00  0.00     0.017 A 
HETATM   21  C8  UNK     1      20.541  -8.514  39.048  1.00  0.00     0.090 A 
HETATM   22  C9  UNK     1      22.552  -7.288  39.812  1.00  0.00     0.049 C 
HETATM   23  C11 UNK     1      19.290  -8.667  38.286  1.00  0.00     0.288 A 
HETATM   24  O2  UNK     1      18.637  -9.703  38.339  1.00  0.00    -0.260 OA
HETATM   25  C7  UNK     1      21.055  -4.025  37.271  1.00  0.00     0.030 A 
ENDBRANCH   1  14
TORSDOF 5
ENDMDL
MODEL 5
REMARK VINA RESULT:      -8.5      3.166      7.186
REMARK  5 active torsions:
REMARK  status: ('A' for Active; 'I' for Inactive)
REMARK    1  A    between atoms: C12_18  and  N1_4 
REMARK    2  A    between atoms: C4_10  and  N1_4 
REMARK    3  A    between atoms: C10_16  and  N2_5 
REMARK    4  A    between atoms: C12_18  and  N2_5 
REMARK    5  A    between atoms: C10_16  and  C13_19 
ROOT
HETATM    1  N1  UNK     1      19.184   3.853  30.268  1.00  0.00    -0.333 N 
HETATM    2  H5  UNK     1      19.651   4.139  29.412  1.00  0.00     0.168 HD
ENDROOT
BRANCH   1   3
HETATM    3  C12 UNK     1      18.501   2.639  30.169  1.00  0.00     0.172 C 
HETATM    4  S1  UNK     1      18.006   1.833  28.781  1.00  0.00    -0.041 SA
BRANCH   3   5
HETATM    5  N2  UNK     1      18.245   2.014  31.383  1.00  0.00    -0.361 N 
HETATM    6  H11 UNK     1      17.525   2.433  31.964  1.00  0.00     0.162 HD
BRANCH   5   7
HETATM    7  C10 UNK     1      18.875   0.813  31.897  1.00  0.00     0.181 C 
BRANCH   7   8
HETATM    8  C13 UNK     1      18.617   0.618  33.365  1.00  0.00     0.051 A 
HETATM    9  N3  UNK     1      18.840  -0.620  33.849  1.00  0.00    -0.264 NA
HETATM   10  C16 UNK     1      18.607  -0.789  35.170  1.00  0.00     0.117 A 
HETATM   11  C17 UNK     1      18.165   0.216  36.015  1.00  0.00     0.019 A 
HETATM   12  C15 UNK     1      17.950   1.476  35.470  1.00  0.00     0.003 A 
HETATM   13  C14 UNK     1      18.178   1.691  34.115  1.00  0.00     0.029 A 
ENDBRANCH   7   8
ENDBRANCH   5   7
ENDBRANCH   3   5
ENDBRANCH   1   3
BRANCH   1  14
HETATM   14  C4  UNK     1      19.089   4.896  31.188  1.00  0.00     0.036 A 
HETATM   15  C5  UNK     1      17.849   5.265  31.700  1.00  0.00     0.067 A 
HETATM   16  C2  UNK     1      17.777   6.313  32.620  1.00  0.00     0.092 A 
HETATM   17  C1  UNK     1      18.908   7.008  33.049  1.00  0.00     0.004 A 
HETATM   18  O1  UNK     1      16.494   6.639  33.104  1.00  0.00    -0.275 OA
HETATM   19  C3  UNK     1      18.738   8.097  34.021  1.00  0.00    -0.043 A 
HETATM   20  C6  UNK     1      20.147   6.621  32.521  1.00  0.00     0.017 A 
HETATM   21  C8  UNK     1      17.506   8.385  34.463  1.00  0.00     0.090 A 
HETATM   22  C9  UNK     1      19.936   8.864  34.501  1.00  0.00     0.049 C 
HETATM   23  C11 UNK     1      16.303   7.661  34.021  1.00  0.00     0.288 A 
HETATM   24  O2  UNK     1      15.192   7.954  34.447  1.00  0.00    -0.260 OA
HETATM   25  C7  UNK     1      20.235   5.573  31.598  1.00  0.00     0.030 A 
ENDBRANCH   1  14
TORSDOF 5
ENDMDL
MODEL 6
REMARK VINA RESULT:      -8.4      5.865      7.768
REMARK  5 active torsions:
REMARK  status: ('A' for Active; 'I' for Inactive)
REMARK    1  A    between atoms: C12_18  and  N1_4 
REMARK    2  A    between atoms: C4_10  and  N1_4 
REMARK    3  A    between atoms: C10_16  and  N2_5 
REMARK    4  A    between atoms: C12_18  and  N2_5 
REMARK    5  A    between atoms: C10_16  and  C13_19 
ROOT
HETATM    1  N1  UNK     1      18.446  -5.026  36.435  1.00  0.00    -0.333 N 
HETATM    2  H5  UNK     1      17.585  -4.983  35.897  1.00  0.00     0.168 HD
ENDROOT
BRANCH   1   3
HETATM    3  C12 UNK     1      18.946  -3.779  36.815  1.00  0.00     0.172 C 
HETATM    4  S1  UNK     1      20.532  -3.361  37.177  1.00  0.00    -0.041 SA
BRANCH   3   5
HETATM    5  N2  UNK     1      18.004  -2.759  36.851  1.00  0.00    -0.361 N 
HETATM    6  H11 UNK     1      17.157  -2.906  36.308  1.00  0.00     0.162 HD
BRANCH   5   7
HETATM    7  C10 UNK     1      18.085  -1.520  37.601  1.00  0.00     0.181 C 
BRANCH   7   8
HETATM    8  C13 UNK     1      18.134  -0.314  36.706  1.00  0.00     0.051 A 
HETATM    9  N3  UNK     1      18.116   0.885  37.321  1.00  0.00    -0.264 NA
HETATM   10  C16 UNK     1      18.160   1.967  36.511  1.00  0.00     0.117 A 
HETATM   11  C17 UNK     1      18.221   1.898  35.129  1.00  0.00     0.019 A 
HETATM   12  C15 UNK     1      18.238   0.639  34.540  1.00  0.00     0.003 A 
HETATM   13  C14 UNK     1      18.193  -0.498  35.338  1.00  0.00     0.029 A 
ENDBRANCH   7   8
ENDBRANCH   5   7
ENDBRANCH   3   5
ENDBRANCH   1   3
BRANCH   1  14
HETATM   14  C4  UNK     1      19.046  -6.282  36.367  1.00  0.00     0.036 A 
HETATM   15  C5  UNK     1      18.716  -7.265  37.294  1.00  0.00     0.067 A 
HETATM   16  C2  UNK     1      19.329  -8.517  37.207  1.00  0.00     0.092 A 
HETATM   17  C1  UNK     1      20.266  -8.821  36.219  1.00  0.00     0.004 A 
HETATM   18  O1  UNK     1      18.953  -9.472  38.174  1.00  0.00    -0.275 OA
HETATM   19  C3  UNK     1      20.860 -10.165  36.202  1.00  0.00    -0.043 A 
HETATM   20  C6  UNK     1      20.585  -7.817  35.294  1.00  0.00     0.017 A 
HETATM   21  C8  UNK     1      20.484 -11.052  37.134  1.00  0.00     0.090 A 
HETATM   22  C9  UNK     1      21.871 -10.522  35.152  1.00  0.00     0.049 C 
HETATM   23  C11 UNK     1      19.497 -10.747  38.183  1.00  0.00     0.288 A 
HETATM   24  O2  UNK     1      19.177 -11.584  39.019  1.00  0.00    -0.260 OA
HETATM   25  C7  UNK     1      19.979  -6.558  35.369  1.00  0.00     0.030 A 
ENDBRANCH   1  14
TORSDOF 5
ENDMDL
MODEL 7
REMARK VINA RESULT:      -8.4      5.731      7.901
REMARK  5 active torsions:
REMARK  status: ('A' for Active; 'I' for Inactive)
REMARK    1  A    between atoms: C12_18  and  N1_4 
REMARK    2  A    between atoms: C4_10  and  N1_4 
REMARK    3  A    between atoms: C10_16  and  N2_5 
REMARK    4  A    between atoms: C12_18  and  N2_5 
REMARK    5  A    between atoms: C10_16  and  C13_19 
ROOT
HETATM    1  N1  UNK     1      18.593  -5.010  36.379  1.00  0.00    -0.333 N 
HETATM    2  H5  UNK     1      17.688  -4.972  35.919  1.00  0.00     0.168 HD
ENDROOT
BRANCH   1   3
HETATM    3  C12 UNK     1      19.147  -3.760  36.660  1.00  0.00     0.172 C 
HETATM    4  S1  UNK     1      20.544  -3.411  37.523  1.00  0.00    -0.041 SA
BRANCH   3   5
HETATM    5  N2  UNK     1      18.463  -2.683  36.110  1.00  0.00    -0.361 N 
HETATM    6  H11 UNK     1      17.449  -2.741  36.117  1.00  0.00     0.162 HD
BRANCH   5   7
HETATM    7  C10 UNK     1      19.039  -1.474  35.553  1.00  0.00     0.181 C 
BRANCH   7   8
HETATM    8  C13 UNK     1      19.493  -1.661  34.132  1.00  0.00     0.051 A 
HETATM    9  N3  UNK     1      20.613  -2.389  33.956  1.00  0.00    -0.264 NA
HETATM   10  C16 UNK     1      21.017  -2.553  32.676  1.00  0.00     0.117 A 
HETATM   11  C17 UNK     1      20.354  -2.025  31.580  1.00  0.00     0.019 A 
HETATM   12  C15 UNK     1      19.202  -1.281  31.812  1.00  0.00     0.003 A 
HETATM   13  C14 UNK     1      18.755  -1.090  33.114  1.00  0.00     0.029 A 
ENDBRANCH   7   8
ENDBRANCH   5   7
ENDBRANCH   3   5
ENDBRANCH   1   3
BRANCH   1  14
HETATM   14  C4  UNK     1      19.164  -6.281  36.310  1.00  0.00     0.036 A 
HETATM   15  C5  UNK     1      18.820  -7.252  37.244  1.00  0.00     0.067 A 
HETATM   16  C2  UNK     1      19.403  -8.518  37.157  1.00  0.00     0.092 A 
HETATM   17  C1  UNK     1      20.323  -8.848  36.161  1.00  0.00     0.004 A 
HETATM   18  O1  UNK     1      19.014  -9.460  38.131  1.00  0.00    -0.275 OA
HETATM   19  C3  UNK     1      20.886 -10.205  36.144  1.00  0.00    -0.043 A 
HETATM   20  C6  UNK     1      20.656  -7.855  35.229  1.00  0.00     0.017 A 
HETATM   21  C8  UNK     1      20.498 -11.080  37.083  1.00  0.00     0.090 A 
HETATM   22  C9  UNK     1      21.878 -10.590  35.086  1.00  0.00     0.049 C 
HETATM   23  C11 UNK     1      19.529 -10.747  38.140  1.00  0.00     0.288 A 
HETATM   24  O2  UNK     1      19.198 -11.574  38.983  1.00  0.00    -0.260 OA
HETATM   25  C7  UNK     1      20.080  -6.582  35.305  1.00  0.00     0.030 A 
ENDBRANCH   1  14
TORSDOF 5
ENDMDL
MODEL 8
REMARK VINA RESULT:      -8.4      5.686      8.013
REMARK  5 active torsions:
REMARK  status: ('A' for Active; 'I' for Inactive)
REMARK    1  A    between atoms: C12_18  and  N1_4 
REMARK    2  A    between atoms: C4_10  and  N1_4 
REMARK    3  A    between atoms: C10_16  and  N2_5 
REMARK    4  A    between atoms: C12_18  and  N2_5 
REMARK    5  A    between atoms: C10_16  and  C13_19 
ROOT
HETATM    1  N1  UNK     1      18.544  -4.944  36.381  1.00  0.00    -0.333 N 
HETATM    2  H5  UNK     1      17.782  -4.868  35.713  1.00  0.00     0.168 HD
ENDROOT
BRANCH   1   3
HETATM    3  C12 UNK     1      19.200  -3.740  36.641  1.00  0.00     0.172 C 
HETATM    4  S1  UNK     1      20.654  -3.500  37.448  1.00  0.00    -0.041 SA
BRANCH   3   5
HETATM    5  N2  UNK     1      18.576  -2.612  36.122  1.00  0.00    -0.361 N 
HETATM    6  H11 UNK     1      17.562  -2.599  36.162  1.00  0.00     0.162 HD
BRANCH   5   7
HETATM    7  C10 UNK     1      19.218  -1.441  35.557  1.00  0.00     0.181 C 
BRANCH   7   8
HETATM    8  C13 UNK     1      19.586  -1.635  34.112  1.00  0.00     0.051 A 
HETATM    9  N3  UNK     1      20.697  -2.358  33.872  1.00  0.00    -0.264 NA
HETATM   10  C16 UNK     1      21.023  -2.528  32.570  1.00  0.00     0.117 A 
HETATM   11  C17 UNK     1      20.292  -2.011  31.514  1.00  0.00     0.019 A 
HETATM   12  C15 UNK     1      19.153  -1.271  31.811  1.00  0.00     0.003 A 
HETATM   13  C14 UNK     1      18.785  -1.073  33.137  1.00  0.00     0.029 A 
ENDBRANCH   7   8
ENDBRANCH   5   7
ENDBRANCH   3   5
ENDBRANCH   1   3
BRANCH   1  14
HETATM   14  C4  UNK     1      18.919  -6.269  36.600  1.00  0.00     0.036 A 
HETATM   15  C5  UNK     1      19.751  -6.918  35.693  1.00  0.00     0.067 A 
HETATM   16  C2  UNK     1      20.115  -8.245  35.932  1.00  0.00     0.092 A 
HETATM   17  C1  UNK     1      19.673  -8.949  37.052  1.00  0.00     0.004 A 
HETATM   18  O1  UNK     1      20.960  -8.848  34.978  1.00  0.00    -0.275 OA
HETATM   19  C3  UNK     1      20.106 -10.343  37.224  1.00  0.00    -0.043 A 
HETATM   20  C6  UNK     1      18.836  -8.277  37.954  1.00  0.00     0.017 A 
HETATM   21  C8  UNK     1      20.910 -10.890  36.301  1.00  0.00     0.090 A 
HETATM   22  C9  UNK     1      19.648 -11.127  38.418  1.00  0.00     0.049 C 
HETATM   23  C11 UNK     1      21.384 -10.161  35.114  1.00  0.00     0.288 A 
HETATM   24  O2  UNK     1      22.118 -10.695  34.290  1.00  0.00    -0.260 OA
HETATM   25  C7  UNK     1      18.463  -6.948  37.728  1.00  0.00     0.030 A 
ENDBRANCH   1  14
TORSDOF 5
ENDMDL
MODEL 9
REMARK VINA RESULT:      -8.3      3.442      5.597
REMARK  5 active torsions:
REMARK  status: ('A' for Active; 'I' for Inactive)
REMARK    1  A    between atoms: C12_18  and  N1_4 
REMARK    2  A    between atoms: C4_10  and  N1_4 
REMARK    3  A    between atoms: C10_16  and  N2_5 
REMARK    4  A    between atoms: C12_18  and  N2_5 
REMARK    5  A    between atoms: C10_16  and  C13_19 
ROOT
HETATM    1  N1  UNK     1      17.682   4.386  31.770  1.00  0.00    -0.333 N 
HETATM    2  H5  UNK     1      16.759   4.552  31.378  1.00  0.00     0.168 HD
ENDROOT
BRANCH   1   3
HETATM    3  C12 UNK     1      18.274   5.515  32.338  1.00  0.00     0.172 C 
HETATM    4  S1  UNK     1      19.007   5.661  33.842  1.00  0.00    -0.041 SA
BRANCH   3   5
HETATM    5  N2  UNK     1      18.285   6.640  31.523  1.00  0.00    -0.361 N 
HETATM    6  H11 UNK     1      19.196   7.029  31.302  1.00  0.00     0.162 HD
BRANCH   5   7
HETATM    7  C10 UNK     1      17.137   7.301  30.930  1.00  0.00     0.181 C 
BRANCH   7   8
HETATM    8  C13 UNK     1      16.169   7.801  31.965  1.00  0.00     0.051 A 
HETATM    9  N3  UNK     1      16.551   8.891  32.659  1.00  0.00    -0.264 NA
HETATM   10  C16 UNK     1      15.676   9.336  33.589  1.00  0.00     0.117 A 
HETATM   11  C17 UNK     1      14.452   8.742  33.851  1.00  0.00     0.019 A 
HETATM   12  C15 UNK     1      14.103   7.619  33.109  1.00  0.00     0.003 A 
HETATM   13  C14 UNK     1      14.975   7.131  32.143  1.00  0.00     0.029 A 
ENDBRANCH   7   8
ENDBRANCH   5   7
ENDBRANCH   3   5
ENDBRANCH   1   3
BRANCH   1  14
HETATM   14  C4  UNK     1      18.221   3.171  31.348  1.00  0.00     0.036 A 
HETATM   15  C5  UNK     1      18.449   2.152  32.267  1.00  0.00     0.067 A 
HETATM   16  C2  UNK     1      18.989   0.943  31.823  1.00  0.00     0.092 A 
HETATM   17  C1  UNK     1      19.312   0.718  30.485  1.00  0.00     0.004 A 
HETATM   18  O1  UNK     1      19.196  -0.051  32.801  1.00  0.00    -0.275 OA
HETATM   19  C3  UNK     1      19.876  -0.585  30.107  1.00  0.00    -0.043 A 
HETATM   20  C6  UNK     1      19.075   1.758  29.575  1.00  0.00     0.017 A 
HETATM   21  C8  UNK     1      20.062  -1.512  31.057  1.00  0.00     0.090 A 
HETATM   22  C9  UNK     1      20.233  -0.858  28.675  1.00  0.00     0.049 C 
HETATM   23  C11 UNK     1      19.727  -1.289  32.474  1.00  0.00     0.288 A 
HETATM   24  O2  UNK     1      19.912  -2.161  33.315  1.00  0.00    -0.260 OA
HETATM   25  C7  UNK     1      18.534   2.974  30.005  1.00  0.00     0.030 A 
ENDBRANCH   1  14
TORSDOF 5
ENDMDL
MODEL 10
REMARK VINA RESULT:      -8.2      3.212      5.361
REMARK  5 active torsions:
REMARK  status: ('A' for Active; 'I' for Inactive)
REMARK    1  A    between atoms: C12_18  and  N1_4 
REMARK    2  A    between atoms: C4_10  and  N1_4 
REMARK    3  A    between atoms: C10_16  and  N2_5 
REMARK    4  A    between atoms: C12_18  and  N2_5 
REMARK    5  A    between atoms: C10_16  and  C13_19 
ROOT
HETATM    1  N1  UNK     1      17.627   3.867  31.697  1.00  0.00    -0.333 N 
HETATM    2  H5  UNK     1      16.618   3.766  31.749  1.00  0.00     0.168 HD
ENDROOT
BRANCH   1   3
HETATM    3  C12 UNK     1      18.071   5.190  31.674  1.00  0.00     0.172 C 
HETATM    4  S1  UNK     1      19.074   5.932  30.549  1.00  0.00    -0.041 SA
BRANCH   3   5
HETATM    5  N2  UNK     1      17.574   5.989  32.696  1.00  0.00    -0.361 N 
HETATM    6  H11 UNK     1      17.530   5.566  33.618  1.00  0.00     0.162 HD
BRANCH   5   7
HETATM    7  C10 UNK     1      17.140   7.369  32.593  1.00  0.00     0.181 C 
BRANCH   7   8
HETATM    8  C13 UNK     1      18.089   8.317  33.272  1.00  0.00     0.051 A 
HETATM    9  N3  UNK     1      17.703   9.607  33.327  1.00  0.00    -0.264 NA
HETATM   10  C16 UNK     1      18.562  10.455  33.938  1.00  0.00     0.117 A 
HETATM   11  C17 UNK     1      19.773  10.070  34.488  1.00  0.00     0.019 A 
HETATM   12  C15 UNK     1      20.127   8.728  34.407  1.00  0.00     0.003 A 
HETATM   13  C14 UNK     1      19.272   7.825  33.786  1.00  0.00     0.029 A 
ENDBRANCH   7   8
ENDBRANCH   5   7
ENDBRANCH   3   5
ENDBRANCH   1   3
BRANCH   1  14
HETATM   14  C4  UNK     1      18.256   2.673  31.342  1.00  0.00     0.036 A 
HETATM   15  C5  UNK     1      18.478   1.690  32.301  1.00  0.00     0.067 A 
HETATM   16  C2  UNK     1      19.109   0.502  31.924  1.00  0.00     0.092 A 
HETATM   17  C1  UNK     1      19.528   0.263  30.615  1.00  0.00     0.004 A 
HETATM   18  O1  UNK     1      19.305  -0.456  32.939  1.00  0.00    -0.275 OA
HETATM   19  C3  UNK     1      20.183  -1.016  30.309  1.00  0.00    -0.043 A 
HETATM   20  C6  UNK     1      19.295   1.267  29.665  1.00  0.00     0.017 A 
HETATM   21  C8  UNK     1      20.356  -1.908  31.293  1.00  0.00     0.090 A 
HETATM   22  C9  UNK     1      20.645  -1.302  28.910  1.00  0.00     0.049 C 
HETATM   23  C11 UNK     1      19.920  -1.671  32.679  1.00  0.00     0.288 A 
HETATM   24  O2  UNK     1      20.096  -2.511  33.554  1.00  0.00    -0.260 OA
HETATM   25  C7  UNK     1      18.664   2.462  30.027  1.00  0.00     0.030 A 
ENDBRANCH   1  14
TORSDOF 5
ENDMDL
