MODEL 1
REMARK VINA RESULT:      -9.6      0.000      0.000
REMARK  3 active torsions:
REMARK  status: ('A' for Active; 'I' for Inactive)
REMARK       I    between atoms: C12_17  and  N1_4 
REMARK    1  A    between atoms: C15_20  and  N1_4 
REMARK    2  A    between atoms: C12_17  and  C6_11 
REMARK    3  A    between atoms: C15_20  and  C16_21 
ROOT
HETATM    1  O1  UNK     1      19.703  -2.919  12.998  1.00  0.00    -0.274 OA
HETATM    2  O2  UNK     1      19.762  -0.993  14.223  1.00  0.00    -0.259 OA
HETATM    3  C1  UNK     1      18.402  -4.842  13.775  1.00  0.00     0.010 A 
HETATM    4  C2  UNK     1      17.966  -6.182  13.557  1.00  0.00    -0.013 A 
HETATM    5  C3  UNK     1      18.407  -6.859  12.385  1.00  0.00    -0.025 A 
HETATM    6  C4  UNK     1      19.242  -4.242  12.834  1.00  0.00     0.090 A 
HETATM    7  C5  UNK     1      18.027  -4.031  14.936  1.00  0.00     0.038 A 
HETATM    8  C6  UNK     1      18.467  -2.776  15.087  1.00  0.00     0.108 A 
HETATM    9  C7  UNK     1      19.252  -6.211  11.472  1.00  0.00     0.015 A 
HETATM   10  C8  UNK     1      19.671  -4.906  11.690  1.00  0.00     0.039 A 
HETATM   11  C9  UNK     1      17.114  -6.901  14.433  1.00  0.00     0.013 A 
HETATM   12  C10 UNK     1      18.000  -8.180  12.135  1.00  0.00     0.012 A 
HETATM   13  C11 UNK     1      19.354  -2.141  14.093  1.00  0.00     0.304 A 
HETATM   14  C13 UNK     1      16.719  -8.213  14.167  1.00  0.00     0.001 A 
HETATM   15  C14 UNK     1      17.161  -8.853  13.018  1.00  0.00     0.001 A 
ENDROOT
BRANCH   8  16
HETATM   16  C12 UNK     1      18.019  -2.067  16.292  1.00  0.00     0.258 C 
HETATM   17  O3  UNK     1      16.844  -2.116  16.652  1.00  0.00    -0.267 OA
HETATM   18  N1  UNK     1      19.039  -1.379  16.922  1.00  0.00    -0.351 N 
HETATM   19  H10 UNK     1      19.978  -1.388  16.535  1.00  0.00     0.163 HD
BRANCH  18  20
HETATM   20  C15 UNK     1      18.841  -0.605  18.126  1.00  0.00     0.182 C 
BRANCH  20  21
HETATM   21  C16 UNK     1      19.090   0.859  17.902  1.00  0.00     0.051 A 
HETATM   22  N2  UNK     1      19.194   1.257  16.619  1.00  0.00    -0.264 NA
HETATM   23  C19 UNK     1      19.418   2.576  16.423  1.00  0.00     0.117 A 
HETATM   24  C20 UNK     1      19.540   3.502  17.446  1.00  0.00     0.019 A 
HETATM   25  C18 UNK     1      19.425   3.045  18.754  1.00  0.00     0.003 A 
HETATM   26  C17 UNK     1      19.194   1.695  18.996  1.00  0.00     0.029 A 
ENDBRANCH  20  21
ENDBRANCH  18  20
ENDBRANCH   8  16
TORSDOF 3
ENDMDL
MODEL 2
REMARK VINA RESULT:      -9.5     15.503     19.234
REMARK  3 active torsions:
REMARK  status: ('A' for Active; 'I' for Inactive)
REMARK       I    between atoms: C12_17  and  N1_4 
REMARK    1  A    between atoms: C15_20  and  N1_4 
REMARK    2  A    between atoms: C12_17  and  C6_11 
REMARK    3  A    between atoms: C15_20  and  C16_21 
ROOT
HETATM    1  O1  UNK     1      20.876  -2.982  30.728  1.00  0.00    -0.274 OA
HETATM    2  O2  UNK     1      21.525  -4.468  32.335  1.00  0.00    -0.259 OA
HETATM    3  C1  UNK     1      19.877  -0.836  31.355  1.00  0.00     0.010 A 
HETATM    4  C2  UNK     1      19.314   0.409  30.946  1.00  0.00    -0.013 A 
HETATM    5  C3  UNK     1      19.216   0.685  29.553  1.00  0.00    -0.025 A 
HETATM    6  C4  UNK     1      20.311  -1.737  30.380  1.00  0.00     0.090 A 
HETATM    7  C5  UNK     1      20.037  -1.248  32.752  1.00  0.00     0.038 A 
HETATM    8  C6  UNK     1      20.573  -2.431  33.077  1.00  0.00     0.108 A 
HETATM    9  C7  UNK     1      19.666  -0.255  28.613  1.00  0.00     0.015 A 
HETATM   10  C8  UNK     1      20.213  -1.464  29.020  1.00  0.00     0.039 A 
HETATM   11  C9  UNK     1      18.839   1.406  31.834  1.00  0.00     0.013 A 
HETATM   12  C10 UNK     1      18.667   1.899  29.109  1.00  0.00     0.012 A 
HETATM   13  C11 UNK     1      21.033  -3.383  32.047  1.00  0.00     0.304 A 
HETATM   14  C13 UNK     1      18.298   2.608  31.375  1.00  0.00     0.001 A 
HETATM   15  C14 UNK     1      18.212   2.856  30.012  1.00  0.00     0.001 A 
ENDROOT
BRANCH   8  16
HETATM   16  C12 UNK     1      20.681  -2.727  34.511  1.00  0.00     0.258 C 
HETATM   17  O3  UNK     1      21.397  -2.047  35.244  1.00  0.00    -0.267 OA
HETATM   18  N1  UNK     1      19.914  -3.812  34.895  1.00  0.00    -0.351 N 
HETATM   19  H10 UNK     1      19.366  -4.320  34.208  1.00  0.00     0.163 HD
BRANCH  18  20
HETATM   20  C15 UNK     1      19.858  -4.295  36.256  1.00  0.00     0.182 C 
BRANCH  20  21
HETATM   21  C16 UNK     1      19.798  -5.794  36.319  1.00  0.00     0.051 A 
HETATM   22  N2  UNK     1      20.491  -6.460  35.374  1.00  0.00    -0.264 NA
HETATM   23  C19 UNK     1      20.433  -7.809  35.435  1.00  0.00     0.117 A 
HETATM   24  C20 UNK     1      19.720  -8.512  36.393  1.00  0.00     0.019 A 
HETATM   25  C18 UNK     1      19.021  -7.783  37.349  1.00  0.00     0.003 A 
HETATM   26  C17 UNK     1      19.056  -6.393  37.318  1.00  0.00     0.029 A 
ENDBRANCH  20  21
ENDBRANCH  18  20
ENDBRANCH   8  16
TORSDOF 3
ENDMDL
MODEL 3
REMARK VINA RESULT:      -9.4     16.161     19.941
REMARK  3 active torsions:
REMARK  status: ('A' for Active; 'I' for Inactive)
REMARK       I    between atoms: C12_17  and  N1_4 
REMARK    1  A    between atoms: C15_20  and  N1_4 
REMARK    2  A    between atoms: C12_17  and  C6_11 
REMARK    3  A    between atoms: C15_20  and  C16_21 
ROOT
HETATM    1  O1  UNK     1      17.899   1.469  34.351  1.00  0.00    -0.274 OA
HETATM    2  O2  UNK     1      17.447   0.862  36.505  1.00  0.00    -0.259 OA
HETATM    3  C1  UNK     1      18.908  -0.133  32.797  1.00  0.00     0.010 A 
HETATM    4  C2  UNK     1      19.399  -0.411  31.488  1.00  0.00    -0.013 A 
HETATM    5  C3  UNK     1      19.351   0.621  30.509  1.00  0.00    -0.025 A 
HETATM    6  C4  UNK     1      18.399   1.138  33.073  1.00  0.00     0.090 A 
HETATM    7  C5  UNK     1      18.898  -1.100  33.897  1.00  0.00     0.038 A 
HETATM    8  C6  UNK     1      18.423  -0.782  35.108  1.00  0.00     0.108 A 
HETATM    9  C7  UNK     1      18.831   1.882  30.838  1.00  0.00     0.015 A 
HETATM   10  C8  UNK     1      18.353   2.145  32.116  1.00  0.00     0.039 A 
HETATM   11  C9  UNK     1      19.938  -1.658  31.082  1.00  0.00     0.013 A 
HETATM   12  C10 UNK     1      19.825   0.387  29.208  1.00  0.00     0.012 A 
HETATM   13  C11 UNK     1      17.884   0.561  35.400  1.00  0.00     0.304 A 
HETATM   14  C13 UNK     1      20.403  -1.874  29.783  1.00  0.00     0.001 A 
HETATM   15  C14 UNK     1      20.347  -0.852  28.846  1.00  0.00     0.001 A 
ENDROOT
BRANCH   8  16
HETATM   16  C12 UNK     1      18.467  -1.839  36.125  1.00  0.00     0.258 C 
HETATM   17  O3  UNK     1      17.567  -1.952  36.955  1.00  0.00    -0.267 OA
HETATM   18  N1  UNK     1      19.593  -2.635  36.026  1.00  0.00    -0.351 N 
HETATM   19  H10 UNK     1      20.290  -2.449  35.312  1.00  0.00     0.163 HD
BRANCH  18  20
HETATM   20  C15 UNK     1      19.858  -3.740  36.919  1.00  0.00     0.182 C 
BRANCH  20  21
HETATM   21  C16 UNK     1      19.494  -5.060  36.304  1.00  0.00     0.051 A 
HETATM   22  N2  UNK     1      20.311  -5.511  35.332  1.00  0.00    -0.264 NA
HETATM   23  C19 UNK     1      19.979  -6.701  34.781  1.00  0.00     0.117 A 
HETATM   24  C20 UNK     1      18.876  -7.449  35.160  1.00  0.00     0.019 A 
HETATM   25  C18 UNK     1      18.062  -6.944  36.167  1.00  0.00     0.003 A 
HETATM   26  C17 UNK     1      18.372  -5.724  36.758  1.00  0.00     0.029 A 
ENDBRANCH  20  21
ENDBRANCH  18  20
ENDBRANCH   8  16
TORSDOF 3
ENDMDL
MODEL 4
REMARK VINA RESULT:      -9.3     15.875     20.357
REMARK  3 active torsions:
REMARK  status: ('A' for Active; 'I' for Inactive)
REMARK       I    between atoms: C12_17  and  N1_4 
REMARK    1  A    between atoms: C15_20  and  N1_4 
REMARK    2  A    between atoms: C12_17  and  C6_11 
REMARK    3  A    between atoms: C15_20  and  C16_21 
ROOT
HETATM    1  O1  UNK     1      20.338   6.873  32.624  1.00  0.00    -0.274 OA
HETATM    2  O2  UNK     1      21.415   5.436  31.213  1.00  0.00    -0.259 OA
HETATM    3  C1  UNK     1      17.894   7.025  32.609  1.00  0.00     0.010 A 
HETATM    4  C2  UNK     1      16.711   7.617  33.139  1.00  0.00    -0.013 A 
HETATM    5  C3  UNK     1      16.840   8.598  34.163  1.00  0.00    -0.025 A 
HETATM    6  C4  UNK     1      19.135   7.425  33.110  1.00  0.00     0.090 A 
HETATM    7  C5  UNK     1      17.906   6.008  31.555  1.00  0.00     0.038 A 
HETATM    8  C6  UNK     1      19.051   5.486  31.096  1.00  0.00     0.108 A 
HETATM    9  C7  UNK     1      18.111   8.966  34.631  1.00  0.00     0.015 A 
HETATM   10  C8  UNK     1      19.259   8.384  34.110  1.00  0.00     0.039 A 
HETATM   11  C9  UNK     1      15.396   7.298  32.717  1.00  0.00     0.013 A 
HETATM   12  C10 UNK     1      15.698   9.205  34.710  1.00  0.00     0.012 A 
HETATM   13  C11 UNK     1      20.362   5.908  31.627  1.00  0.00     0.304 A 
HETATM   14  C13 UNK     1      14.271   7.911  33.275  1.00  0.00     0.001 A 
HETATM   15  C14 UNK     1      14.422   8.864  34.271  1.00  0.00     0.001 A 
ENDROOT
BRANCH   8  16
HETATM   16  C12 UNK     1      18.930   4.473  30.040  1.00  0.00     0.258 C 
HETATM   17  O3  UNK     1      18.731   4.801  28.872  1.00  0.00    -0.267 OA
HETATM   18  N1  UNK     1      19.060   3.182  30.517  1.00  0.00    -0.351 N 
HETATM   19  H10 UNK     1      19.208   3.014  31.507  1.00  0.00     0.163 HD
BRANCH  18  20
HETATM   20  C15 UNK     1      18.976   2.016  29.666  1.00  0.00     0.182 C 
BRANCH  20  21
HETATM   21  C16 UNK     1      19.357   0.759  30.394  1.00  0.00     0.051 A 
HETATM   22  N2  UNK     1      18.685   0.502  31.533  1.00  0.00    -0.264 NA
HETATM   23  C19 UNK     1      19.033  -0.631  32.185  1.00  0.00     0.117 A 
HETATM   24  C20 UNK     1      20.013  -1.507  31.747  1.00  0.00     0.019 A 
HETATM   25  C18 UNK     1      20.679  -1.200  30.566  1.00  0.00     0.003 A 
HETATM   26  C17 UNK     1      20.349  -0.044  29.867  1.00  0.00     0.029 A 
ENDBRANCH  20  21
ENDBRANCH  18  20
ENDBRANCH   8  16
TORSDOF 3
ENDMDL
MODEL 5
REMARK VINA RESULT:      -9.3      0.939      1.292
REMARK  3 active torsions:
REMARK  status: ('A' for Active; 'I' for Inactive)
REMARK       I    between atoms: C12_17  and  N1_4 
REMARK    1  A    between atoms: C15_20  and  N1_4 
REMARK    2  A    between atoms: C12_17  and  C6_11 
REMARK    3  A    between atoms: C15_20  and  C16_21 
ROOT
HETATM    1  O1  UNK     1      19.634  -1.639  12.684  1.00  0.00    -0.274 OA
HETATM    2  O2  UNK     1      19.433  -0.021  14.282  1.00  0.00    -0.259 OA
HETATM    3  C1  UNK     1      18.874  -3.924  13.130  1.00  0.00     0.010 A 
HETATM    4  C2  UNK     1      18.708  -5.261  12.667  1.00  0.00    -0.013 A 
HETATM    5  C3  UNK     1      19.135  -5.582  11.347  1.00  0.00    -0.025 A 
HETATM    6  C4  UNK     1      19.447  -2.977  12.278  1.00  0.00     0.090 A 
HETATM    7  C5  UNK     1      18.480  -3.458  14.463  1.00  0.00     0.038 A 
HETATM    8  C6  UNK     1      18.660  -2.187  14.843  1.00  0.00     0.108 A 
HETATM    9  C7  UNK     1      19.707  -4.594  10.531  1.00  0.00     0.015 A 
HETATM   10  C8  UNK     1      19.864  -3.293  10.990  1.00  0.00     0.039 A 
HETATM   11  C9  UNK     1      18.141  -6.311  13.432  1.00  0.00     0.013 A 
HETATM   12  C10 UNK     1      18.990  -6.889  10.854  1.00  0.00     0.012 A 
HETATM   13  C11 UNK     1      19.264  -1.187  13.943  1.00  0.00     0.304 A 
HETATM   14  C13 UNK     1      18.003  -7.605  12.924  1.00  0.00     0.001 A 
HETATM   15  C14 UNK     1      18.427  -7.894  11.635  1.00  0.00     0.001 A 
ENDROOT
BRANCH   8  16
HETATM   16  C12 UNK     1      18.223  -1.844  16.202  1.00  0.00     0.258 C 
HETATM   17  O3  UNK     1      17.094  -2.134  16.593  1.00  0.00    -0.267 OA
HETATM   18  N1  UNK     1      19.197  -1.188  16.931  1.00  0.00    -0.351 N 
HETATM   19  H10 UNK     1      20.097  -0.980  16.511  1.00  0.00     0.163 HD
BRANCH  18  20
HETATM   20  C15 UNK     1      18.999  -0.748  18.294  1.00  0.00     0.182 C 
BRANCH  20  21
HETATM   21  C16 UNK     1      19.231   0.727  18.448  1.00  0.00     0.051 A 
HETATM   22  N2  UNK     1      19.006   1.484  17.357  1.00  0.00    -0.264 NA
HETATM   23  C19 UNK     1      19.217   2.812  17.502  1.00  0.00     0.117 A 
HETATM   24  C20 UNK     1      19.637   3.406  18.680  1.00  0.00     0.019 A 
HETATM   25  C18 UNK     1      19.857   2.585  19.780  1.00  0.00     0.003 A 
HETATM   26  C17 UNK     1      19.651   1.214  19.671  1.00  0.00     0.029 A 
ENDBRANCH  20  21
ENDBRANCH  18  20
ENDBRANCH   8  16
TORSDOF 3
ENDMDL
MODEL 6
REMARK VINA RESULT:      -9.2     17.212     19.922
REMARK  3 active torsions:
REMARK  status: ('A' for Active; 'I' for Inactive)
REMARK       I    between atoms: C12_17  and  N1_4 
REMARK    1  A    between atoms: C15_20  and  N1_4 
REMARK    2  A    between atoms: C12_17  and  C6_11 
REMARK    3  A    between atoms: C15_20  and  C16_21 
ROOT
HETATM    1  O1  UNK     1      18.779   0.768  31.360  1.00  0.00    -0.274 OA
HETATM    2  O2  UNK     1      18.819   2.313  29.680  1.00  0.00    -0.259 OA
HETATM    3  C1  UNK     1      18.301   1.452  33.663  1.00  0.00     0.010 A 
HETATM    4  C2  UNK     1      18.134   1.083  35.030  1.00  0.00    -0.013 A 
HETATM    5  C3  UNK     1      18.282  -0.286  35.388  1.00  0.00    -0.025 A 
HETATM    6  C4  UNK     1      18.603   0.460  32.726  1.00  0.00     0.090 A 
HETATM    7  C5  UNK     1      18.178   2.821  33.157  1.00  0.00     0.038 A 
HETATM    8  C6  UNK     1      18.346   3.108  31.860  1.00  0.00     0.108 A 
HETATM    9  C7  UNK     1      18.587  -1.243  34.409  1.00  0.00     0.015 A 
HETATM   10  C8  UNK     1      18.748  -0.876  33.079  1.00  0.00     0.039 A 
HETATM   11  C9  UNK     1      17.825   1.992  36.073  1.00  0.00     0.013 A 
HETATM   12  C10 UNK     1      18.125  -0.689  36.724  1.00  0.00     0.012 A 
HETATM   13  C11 UNK     1      18.664   2.061  30.870  1.00  0.00     0.304 A 
HETATM   14  C13 UNK     1      17.671   1.572  37.396  1.00  0.00     0.001 A 
HETATM   15  C14 UNK     1      17.821   0.232  37.723  1.00  0.00     0.001 A 
ENDROOT
BRANCH   8  16
HETATM   16  C12 UNK     1      18.195   4.517  31.478  1.00  0.00     0.258 C 
HETATM   17  O3  UNK     1      18.837   4.989  30.541  1.00  0.00    -0.267 OA
HETATM   18  N1  UNK     1      17.289   5.196  32.272  1.00  0.00    -0.351 N 
HETATM   19  H10 UNK     1      16.819   4.719  33.035  1.00  0.00     0.163 HD
BRANCH  18  20
HETATM   20  C15 UNK     1      16.974   6.594  32.089  1.00  0.00     0.182 C 
BRANCH  20  21
HETATM   21  C16 UNK     1      17.865   7.484  32.908  1.00  0.00     0.051 A 
HETATM   22  N2  UNK     1      17.479   8.769  33.025  1.00  0.00    -0.264 NA
HETATM   23  C19 UNK     1      18.285   9.566  33.764  1.00  0.00     0.117 A 
HETATM   24  C20 UNK     1      19.446   9.132  34.383  1.00  0.00     0.019 A 
HETATM   25  C18 UNK     1      19.803   7.797  34.235  1.00  0.00     0.003 A 
HETATM   26  C17 UNK     1      19.000   6.947  33.483  1.00  0.00     0.029 A 
ENDBRANCH  20  21
ENDBRANCH  18  20
ENDBRANCH   8  16
TORSDOF 3
ENDMDL
MODEL 7
REMARK VINA RESULT:      -9.1     18.006     20.253
REMARK  3 active torsions:
REMARK  status: ('A' for Active; 'I' for Inactive)
REMARK       I    between atoms: C12_17  and  N1_4 
REMARK    1  A    between atoms: C15_20  and  N1_4 
REMARK    2  A    between atoms: C12_17  and  C6_11 
REMARK    3  A    between atoms: C15_20  and  C16_21 
ROOT
HETATM    1  O1  UNK     1      18.544   1.705  31.702  1.00  0.00    -0.274 OA
HETATM    2  O2  UNK     1      18.679   3.566  30.387  1.00  0.00    -0.259 OA
HETATM    3  C1  UNK     1      18.192   1.915  34.117  1.00  0.00     0.010 A 
HETATM    4  C2  UNK     1      18.029   1.277  35.381  1.00  0.00    -0.013 A 
HETATM    5  C3  UNK     1      18.063  -0.145  35.434  1.00  0.00    -0.025 A 
HETATM    6  C4  UNK     1      18.379   1.127  32.978  1.00  0.00     0.090 A 
HETATM    7  C5  UNK     1      18.179   3.367  33.918  1.00  0.00     0.038 A 
HETATM    8  C6  UNK     1      18.337   3.910  32.705  1.00  0.00     0.108 A 
HETATM    9  C7  UNK     1      18.254  -0.891  34.262  1.00  0.00     0.015 A 
HETATM   10  C8  UNK     1      18.412  -0.262  33.034  1.00  0.00     0.039 A 
HETATM   11  C9  UNK     1      17.832   1.962  36.606  1.00  0.00     0.013 A 
HETATM   12  C10 UNK     1      17.906  -0.811  36.661  1.00  0.00     0.012 A 
HETATM   13  C11 UNK     1      18.533   3.078  31.502  1.00  0.00     0.304 A 
HETATM   14  C13 UNK     1      17.676   1.283  37.816  1.00  0.00     0.001 A 
HETATM   15  C14 UNK     1      17.713  -0.104  37.844  1.00  0.00     0.001 A 
ENDROOT
BRANCH   8  16
HETATM   16  C12 UNK     1      18.304   5.377  32.636  1.00  0.00     0.258 C 
HETATM   17  O3  UNK     1      18.884   6.060  33.477  1.00  0.00    -0.267 OA
HETATM   18  N1  UNK     1      17.570   5.848  31.563  1.00  0.00    -0.351 N 
HETATM   19  H10 UNK     1      17.113   5.199  30.931  1.00  0.00     0.163 HD
BRANCH  18  20
HETATM   20  C15 UNK     1      17.392   7.256  31.289  1.00  0.00     0.182 C 
BRANCH  20  21
HETATM   21  C16 UNK     1      16.236   7.836  32.053  1.00  0.00     0.051 A 
HETATM   22  N2  UNK     1      16.438   9.044  32.614  1.00  0.00    -0.264 NA
HETATM   23  C19 UNK     1      15.394   9.562  33.300  1.00  0.00     0.117 A 
HETATM   24  C20 UNK     1      14.171   8.928  33.445  1.00  0.00     0.019 A 
HETATM   25  C18 UNK     1      14.009   7.684  32.848  1.00  0.00     0.003 A 
HETATM   26  C17 UNK     1      15.059   7.118  32.133  1.00  0.00     0.029 A 
ENDBRANCH  20  21
ENDBRANCH  18  20
ENDBRANCH   8  16
TORSDOF 3
ENDMDL
MODEL 8
REMARK VINA RESULT:      -9.0     24.229     26.055
REMARK  3 active torsions:
REMARK  status: ('A' for Active; 'I' for Inactive)
REMARK       I    between atoms: C12_17  and  N1_4 
REMARK    1  A    between atoms: C15_20  and  N1_4 
REMARK    2  A    between atoms: C12_17  and  C6_11 
REMARK    3  A    between atoms: C15_20  and  C16_21 
ROOT
HETATM    1  O1  UNK     1      27.627  -4.596  38.702  1.00  0.00    -0.274 OA
HETATM    2  O2  UNK     1      25.425  -5.113  39.011  1.00  0.00    -0.259 OA
HETATM    3  C1  UNK     1      29.285  -6.372  38.389  1.00  0.00     0.010 A 
HETATM    4  C2  UNK     1      30.645  -6.740  38.172  1.00  0.00    -0.013 A 
HETATM    5  C3  UNK     1      31.620  -5.708  38.066  1.00  0.00    -0.025 A 
HETATM    6  C4  UNK     1      28.956  -5.017  38.489  1.00  0.00     0.090 A 
HETATM    7  C5  UNK     1      28.182  -7.328  38.518  1.00  0.00     0.038 A 
HETATM    8  C6  UNK     1      26.922  -6.924  38.720  1.00  0.00     0.108 A 
HETATM    9  C7  UNK     1      31.238  -4.362  38.174  1.00  0.00     0.015 A 
HETATM   10  C8  UNK     1      29.911  -4.012  38.385  1.00  0.00     0.039 A 
HETATM   11  C9  UNK     1      31.105  -8.075  38.052  1.00  0.00     0.013 A 
HETATM   12  C10 UNK     1      32.970  -6.029  37.853  1.00  0.00     0.012 A 
HETATM   13  C11 UNK     1      26.575  -5.493  38.825  1.00  0.00     0.304 A 
HETATM   14  C13 UNK     1      32.452  -8.375  37.838  1.00  0.00     0.001 A 
HETATM   15  C14 UNK     1      33.385  -7.353  37.738  1.00  0.00     0.001 A 
ENDROOT
BRANCH   8  16
HETATM   16  C12 UNK     1      25.907  -7.979  38.831  1.00  0.00     0.258 C 
HETATM   17  O3  UNK     1      26.122  -8.993  39.492  1.00  0.00    -0.267 OA
HETATM   18  N1  UNK     1      24.752  -7.689  38.128  1.00  0.00    -0.351 N 
HETATM   19  H10 UNK     1      24.678  -6.828  37.598  1.00  0.00     0.163 HD
BRANCH  18  20
HETATM   20  C15 UNK     1      23.613  -8.578  38.086  1.00  0.00     0.182 C 
BRANCH  20  21
HETATM   21  C16 UNK     1      22.337  -7.874  38.450  1.00  0.00     0.051 A 
HETATM   22  N2  UNK     1      22.206  -6.609  38.007  1.00  0.00    -0.264 NA
HETATM   23  C19 UNK     1      21.055  -5.980  38.337  1.00  0.00     0.117 A 
HETATM   24  C20 UNK     1      20.042  -6.560  39.083  1.00  0.00     0.019 A 
HETATM   25  C18 UNK     1      20.221  -7.868  39.518  1.00  0.00     0.003 A 
HETATM   26  C17 UNK     1      21.392  -8.548  39.198  1.00  0.00     0.029 A 
ENDBRANCH  20  21
ENDBRANCH  18  20
ENDBRANCH   8  16
TORSDOF 3
ENDMDL
MODEL 9
REMARK VINA RESULT:      -9.0     16.786     19.322
REMARK  3 active torsions:
REMARK  status: ('A' for Active; 'I' for Inactive)
REMARK       I    between atoms: C12_17  and  N1_4 
REMARK    1  A    between atoms: C15_20  and  N1_4 
REMARK    2  A    between atoms: C12_17  and  C6_11 
REMARK    3  A    between atoms: C15_20  and  C16_21 
ROOT
HETATM    1  O1  UNK     1      19.835  -0.748  31.739  1.00  0.00    -0.274 OA
HETATM    2  O2  UNK     1      19.794   0.564  29.872  1.00  0.00    -0.259 OA
HETATM    3  C1  UNK     1      18.766   0.007  33.809  1.00  0.00     0.010 A 
HETATM    4  C2  UNK     1      18.442  -0.250  35.173  1.00  0.00    -0.013 A 
HETATM    5  C3  UNK     1      18.868  -1.478  35.753  1.00  0.00    -0.025 A 
HETATM    6  C4  UNK     1      19.488  -0.950  33.092  1.00  0.00     0.090 A 
HETATM    7  C5  UNK     1      18.391   1.227  33.088  1.00  0.00     0.038 A 
HETATM    8  C6  UNK     1      18.724   1.414  31.805  1.00  0.00     0.108 A 
HETATM    9  C7  UNK     1      19.593  -2.405  34.990  1.00  0.00     0.015 A 
HETATM   10  C8  UNK     1      19.904  -2.148  33.662  1.00  0.00     0.039 A 
HETATM   11  C9  UNK     1      17.715   0.637  36.006  1.00  0.00     0.013 A 
HETATM   12  C10 UNK     1      18.569  -1.768  37.095  1.00  0.00     0.012 A 
HETATM   13  C11 UNK     1      19.485   0.402  31.047  1.00  0.00     0.304 A 
HETATM   14  C13 UNK     1      17.425   0.330  37.337  1.00  0.00     0.001 A 
HETATM   15  C14 UNK     1      17.852  -0.872  37.882  1.00  0.00     0.001 A 
ENDROOT
BRANCH   8  16
HETATM   16  C12 UNK     1      18.288   2.676  31.194  1.00  0.00     0.258 C 
HETATM   17  O3  UNK     1      17.108   2.862  30.905  1.00  0.00    -0.267 OA
HETATM   18  N1  UNK     1      19.328   3.566  31.002  1.00  0.00    -0.351 N 
HETATM   19  H10 UNK     1      20.276   3.311  31.261  1.00  0.00     0.163 HD
BRANCH  18  20
HETATM   20  C15 UNK     1      19.146   4.875  30.415  1.00  0.00     0.182 C 
BRANCH  20  21
HETATM   21  C16 UNK     1      19.015   5.947  31.458  1.00  0.00     0.051 A 
HETATM   22  N2  UNK     1      17.855   6.633  31.466  1.00  0.00    -0.264 NA
HETATM   23  C19 UNK     1      17.742   7.597  32.407  1.00  0.00     0.117 A 
HETATM   24  C20 UNK     1      18.730   7.898  33.331  1.00  0.00     0.019 A 
HETATM   25  C18 UNK     1      19.909   7.163  33.285  1.00  0.00     0.003 A 
HETATM   26  C17 UNK     1      20.063   6.163  32.331  1.00  0.00     0.029 A 
ENDBRANCH  20  21
ENDBRANCH  18  20
ENDBRANCH   8  16
TORSDOF 3
ENDMDL
MODEL 10
REMARK VINA RESULT:      -8.9     11.987     14.928
REMARK  3 active torsions:
REMARK  status: ('A' for Active; 'I' for Inactive)
REMARK       I    between atoms: C12_17  and  N1_4 
REMARK    1  A    between atoms: C15_20  and  N1_4 
REMARK    2  A    between atoms: C12_17  and  C6_11 
REMARK    3  A    between atoms: C15_20  and  C16_21 
ROOT
HETATM    1  O1  UNK     1      14.171   5.036   9.015  1.00  0.00    -0.274 OA
HETATM    2  O2  UNK     1      12.294   4.010   8.217  1.00  0.00    -0.259 OA
HETATM    3  C1  UNK     1      14.386   7.474   8.920  1.00  0.00     0.010 A 
HETATM    4  C2  UNK     1      15.165   8.636   9.192  1.00  0.00    -0.013 A 
HETATM    5  C3  UNK     1      16.440   8.473   9.803  1.00  0.00    -0.025 A 
HETATM    6  C4  UNK     1      14.898   6.220   9.261  1.00  0.00     0.090 A 
HETATM    7  C5  UNK     1      13.061   7.497   8.295  1.00  0.00     0.038 A 
HETATM    8  C6  UNK     1      12.375   6.371   8.064  1.00  0.00     0.108 A 
HETATM    9  C7  UNK     1      16.909   7.191  10.125  1.00  0.00     0.015 A 
HETATM   10  C8  UNK     1      16.144   6.063   9.857  1.00  0.00     0.039 A 
HETATM   11  C9  UNK     1      14.758   9.962   8.896  1.00  0.00     0.013 A 
HETATM   12  C10 UNK     1      17.238   9.594  10.087  1.00  0.00     0.012 A 
HETATM   13  C11 UNK     1      12.915   5.046   8.425  1.00  0.00     0.304 A 
HETATM   14  C13 UNK     1      15.564  11.064   9.188  1.00  0.00     0.001 A 
HETATM   15  C14 UNK     1      16.804  10.881   9.783  1.00  0.00     0.001 A 
ENDROOT
BRANCH   8  16
HETATM   16  C12 UNK     1      11.057   6.526   7.434  1.00  0.00     0.258 C 
HETATM   17  O3  UNK     1      10.949   7.021   6.314  1.00  0.00    -0.267 OA
HETATM   18  N1  UNK     1      10.023   6.071   8.231  1.00  0.00    -0.351 N 
HETATM   19  H10 UNK     1      10.216   5.692   9.152  1.00  0.00     0.163 HD
BRANCH  18  20
HETATM   20  C15 UNK     1       8.637   6.121   7.826  1.00  0.00     0.182 C 
BRANCH  20  21
HETATM   21  C16 UNK     1       7.728   5.508   8.853  1.00  0.00     0.051 A 
HETATM   22  N2  UNK     1       7.516   4.181   8.746  1.00  0.00    -0.264 NA
HETATM   23  C19 UNK     1       6.697   3.635   9.673  1.00  0.00     0.117 A 
HETATM   24  C20 UNK     1       6.090   4.352  10.691  1.00  0.00     0.019 A 
HETATM   25  C18 UNK     1       6.340   5.718  10.762  1.00  0.00     0.003 A 
HETATM   26  C17 UNK     1       7.177   6.317   9.827  1.00  0.00     0.029 A 
ENDBRANCH  20  21
ENDBRANCH  18  20
ENDBRANCH   8  16
TORSDOF 3
ENDMDL
