MODEL 1
REMARK VINA RESULT:      -9.2      0.000      0.000
REMARK  9 active torsions:
REMARK  status: ('A' for Active; 'I' for Inactive)
REMARK    1  A    between atoms: C11_20  and  O1_2 
REMARK    2  A    between atoms: C6_15  and  O1_2 
REMARK    3  A    between atoms: C12_21  and  O3_4 
REMARK    4  A    between atoms: C21_30  and  O3_4 
REMARK    5  A    between atoms: C3_12  and  N1_9 
REMARK       I    between atoms: C8_17  and  N1_9 
REMARK    6  A    between atoms: C1_10  and  C6_15 
REMARK    7  A    between atoms: C12_21  and  C4_13 
REMARK    8  A    between atoms: C7_16  and  C8_17 
REMARK    9  A    between atoms: C11_20  and  C14_23 
ROOT
HETATM    1  S1  UNK     1      18.079  -1.730  37.764  1.00  0.00    -0.065 SA
HETATM    2  C1  UNK     1      19.180  -1.530  35.451  1.00  0.00     0.080 A 
HETATM    3  C2  UNK     1      18.760  -0.215  35.804  1.00  0.00    -0.020 A 
HETATM    4  C3  UNK     1      18.872  -2.450  36.428  1.00  0.00     0.094 A 
HETATM    5  C4  UNK     1      18.145  -0.181  37.036  1.00  0.00     0.089 A 
HETATM    6  C5  UNK     1      18.959   0.978  34.942  1.00  0.00     0.051 C 
ENDROOT
BRANCH   4   7
HETATM    7  N1  UNK     1      19.096  -3.829  36.503  1.00  0.00    -0.316 N 
HETATM    8  C8  UNK     1      20.271  -4.447  36.908  1.00  0.00     0.262 C 
HETATM    9  O5  UNK     1      21.324  -3.928  37.274  1.00  0.00    -0.267 OA
HETATM   10  H4  UNK     1      18.299  -4.404  36.239  1.00  0.00     0.169 HD
BRANCH   8  11
HETATM   11  C7  UNK     1      20.161  -5.910  36.866  1.00  0.00     0.108 A 
HETATM   12  C10 UNK     1      20.022  -6.527  38.045  1.00  0.00     0.037 A 
HETATM   13  C9  UNK     1      19.904  -7.976  38.106  1.00  0.00    -0.001 A 
HETATM   14  C13 UNK     1      19.939  -8.703  36.921  1.00  0.00     0.089 A 
HETATM   15  C16 UNK     1      19.758  -8.661  39.314  1.00  0.00     0.014 A 
HETATM   16  O2  UNK     1      20.085  -8.048  35.683  1.00  0.00    -0.274 OA
HETATM   17  C17 UNK     1      19.833 -10.093  36.910  1.00  0.00     0.038 A 
HETATM   18  C15 UNK     1      20.199  -6.664  35.593  1.00  0.00     0.304 A 
HETATM   19  O7  UNK     1      20.327  -6.102  34.510  1.00  0.00    -0.259 OA
HETATM   20  C20 UNK     1      19.688 -10.769  38.120  1.00  0.00     0.003 A 
HETATM   21  C19 UNK     1      19.650 -10.055  39.319  1.00  0.00     0.001 A 
ENDBRANCH   8  11
ENDBRANCH   4   7
BRANCH   2  22
HETATM   22  C6  UNK     1      19.851  -1.894  34.228  1.00  0.00     0.296 C 
HETATM   23  O4  UNK     1      20.996  -2.367  34.182  1.00  0.00    -0.259 OA
BRANCH  22  24
HETATM   24  O1  UNK     1      19.102  -1.671  33.093  1.00  0.00    -0.317 OA
BRANCH  24  25
HETATM   25  C11 UNK     1      19.803  -1.681  31.843  1.00  0.00     0.178 C 
BRANCH  25  26
HETATM   26  C14 UNK     1      19.757  -0.286  31.241  1.00  0.00     0.022 C 
HETATM   27  C18 UNK     1      20.480  -0.221  29.908  1.00  0.00     0.007 C 
ENDBRANCH  25  26
ENDBRANCH  24  25
ENDBRANCH  22  24
ENDBRANCH   2  22
BRANCH   5  28
HETATM   28  C12 UNK     1      17.590   0.931  37.739  1.00  0.00     0.300 C 
HETATM   29  O6  UNK     1      17.951   1.298  38.876  1.00  0.00    -0.259 OA
BRANCH  28  30
HETATM   30  O3  UNK     1      16.590   1.599  37.056  1.00  0.00    -0.317 OA
BRANCH  30  31
HETATM   31  C21 UNK     1      15.361   0.896  36.834  1.00  0.00     0.174 C 
HETATM   32  C22 UNK     1      15.399   0.258  35.462  1.00  0.00     0.034 C 
ENDBRANCH  30  31
ENDBRANCH  28  30
ENDBRANCH   5  28
TORSDOF 9
ENDMDL
MODEL 2
REMARK VINA RESULT:      -9.0      2.623      9.183
REMARK  9 active torsions:
REMARK  status: ('A' for Active; 'I' for Inactive)
REMARK    1  A    between atoms: C11_20  and  O1_2 
REMARK    2  A    between atoms: C6_15  and  O1_2 
REMARK    3  A    between atoms: C12_21  and  O3_4 
REMARK    4  A    between atoms: C21_30  and  O3_4 
REMARK    5  A    between atoms: C3_12  and  N1_9 
REMARK       I    between atoms: C8_17  and  N1_9 
REMARK    6  A    between atoms: C1_10  and  C6_15 
REMARK    7  A    between atoms: C12_21  and  C4_13 
REMARK    8  A    between atoms: C7_16  and  C8_17 
REMARK    9  A    between atoms: C11_20  and  C14_23 
ROOT
HETATM    1  S1  UNK     1      21.162  -7.498  34.766  1.00  0.00    -0.065 SA
HETATM    2  C1  UNK     1      19.625  -7.724  36.811  1.00  0.00     0.080 A 
HETATM    3  C2  UNK     1      20.206  -9.008  36.610  1.00  0.00    -0.020 A 
HETATM    4  C3  UNK     1      20.059  -6.808  35.878  1.00  0.00     0.094 A 
HETATM    5  C4  UNK     1      21.062  -9.026  35.530  1.00  0.00     0.089 A 
HETATM    6  C5  UNK     1      19.921 -10.190  37.463  1.00  0.00     0.051 C 
ENDROOT
BRANCH   4   7
HETATM    7  N1  UNK     1      19.754  -5.454  35.700  1.00  0.00    -0.316 N 
HETATM    8  C8  UNK     1      20.359  -4.387  36.350  1.00  0.00     0.262 C 
HETATM    9  O5  UNK     1      21.259  -4.410  37.188  1.00  0.00    -0.267 OA
HETATM   10  H4  UNK     1      19.024  -5.268  35.016  1.00  0.00     0.169 HD
BRANCH   8  11
HETATM   11  C7  UNK     1      19.796  -3.099  35.926  1.00  0.00     0.108 A 
HETATM   12  C10 UNK     1      19.035  -2.462  36.824  1.00  0.00     0.037 A 
HETATM   13  C9  UNK     1      18.434  -1.179  36.496  1.00  0.00    -0.001 A 
HETATM   14  C13 UNK     1      18.663  -0.630  35.239  1.00  0.00     0.089 A 
HETATM   15  C16 UNK     1      17.634  -0.479  37.402  1.00  0.00     0.014 A 
HETATM   16  O2  UNK     1      19.465  -1.306  34.298  1.00  0.00    -0.274 OA
HETATM   17  C17 UNK     1      18.115   0.595  34.862  1.00  0.00     0.038 A 
HETATM   18  C15 UNK     1      20.054  -2.534  34.583  1.00  0.00     0.304 A 
HETATM   19  O7  UNK     1      20.750  -3.115  33.757  1.00  0.00    -0.259 OA
HETATM   20  C20 UNK     1      17.318   1.286  35.772  1.00  0.00     0.003 A 
HETATM   21  C19 UNK     1      17.077   0.751  37.039  1.00  0.00     0.001 A 
ENDBRANCH   8  11
ENDBRANCH   4   7
BRANCH   2  22
HETATM   22  C6  UNK     1      18.690  -7.382  37.854  1.00  0.00     0.296 C 
HETATM   23  O4  UNK     1      17.549  -6.945  37.645  1.00  0.00    -0.259 OA
BRANCH  22  24
HETATM   24  O1  UNK     1      19.176  -7.584  39.128  1.00  0.00    -0.317 OA
BRANCH  24  25
HETATM   25  C11 UNK     1      20.271  -6.757  39.540  1.00  0.00     0.178 C 
BRANCH  25  26
HETATM   26  C14 UNK     1      21.499  -7.631  39.744  1.00  0.00     0.022 C 
HETATM   27  C18 UNK     1      22.668  -7.171  38.892  1.00  0.00     0.007 C 
ENDBRANCH  25  26
ENDBRANCH  24  25
ENDBRANCH  22  24
ENDBRANCH   2  22
BRANCH   5  28
HETATM   28  C12 UNK     1      21.831 -10.108  35.004  1.00  0.00     0.300 C 
HETATM   29  O6  UNK     1      21.608 -10.665  33.911  1.00  0.00    -0.259 OA
BRANCH  28  30
HETATM   30  O3  UNK     1      22.878 -10.512  35.814  1.00  0.00    -0.317 OA
BRANCH  30  31
HETATM   31  C21 UNK     1      23.364 -11.848  35.641  1.00  0.00     0.174 C 
HETATM   32  C22 UNK     1      24.833 -11.889  36.005  1.00  0.00     0.034 C 
ENDBRANCH  30  31
ENDBRANCH  28  30
ENDBRANCH   5  28
TORSDOF 9
ENDMDL
MODEL 3
REMARK VINA RESULT:      -8.8     17.426     22.202
REMARK  9 active torsions:
REMARK  status: ('A' for Active; 'I' for Inactive)
REMARK    1  A    between atoms: C11_20  and  O1_2 
REMARK    2  A    between atoms: C6_15  and  O1_2 
REMARK    3  A    between atoms: C12_21  and  O3_4 
REMARK    4  A    between atoms: C21_30  and  O3_4 
REMARK    5  A    between atoms: C3_12  and  N1_9 
REMARK       I    between atoms: C8_17  and  N1_9 
REMARK    6  A    between atoms: C1_10  and  C6_15 
REMARK    7  A    between atoms: C12_21  and  C4_13 
REMARK    8  A    between atoms: C7_16  and  C8_17 
REMARK    9  A    between atoms: C11_20  and  C14_23 
ROOT
HETATM    1  S1  UNK     1      19.112  -1.739  12.329  1.00  0.00    -0.065 SA
HETATM    2  C1  UNK     1      20.188  -3.607  13.725  1.00  0.00     0.080 A 
HETATM    3  C2  UNK     1      20.033  -4.135  12.411  1.00  0.00    -0.020 A 
HETATM    4  C3  UNK     1      19.728  -2.312  13.819  1.00  0.00     0.094 A 
HETATM    5  C4  UNK     1      19.459  -3.224  11.551  1.00  0.00     0.089 A 
HETATM    6  C5  UNK     1      20.440  -5.508  12.015  1.00  0.00     0.051 C 
ENDROOT
BRANCH   4   7
HETATM    7  N1  UNK     1      19.686  -1.423  14.898  1.00  0.00    -0.316 N 
HETATM    8  C8  UNK     1      18.762  -1.437  15.934  1.00  0.00     0.262 C 
HETATM    9  O5  UNK     1      17.821  -2.209  16.112  1.00  0.00    -0.267 OA
HETATM   10  H4  UNK     1      20.421  -0.720  14.900  1.00  0.00     0.169 HD
BRANCH   8  11
HETATM   11  C7  UNK     1      19.008  -0.360  16.900  1.00  0.00     0.108 A 
HETATM   12  C10 UNK     1      19.034  -0.717  18.190  1.00  0.00     0.037 A 
HETATM   13  C9  UNK     1      19.273   0.281  19.222  1.00  0.00    -0.001 A 
HETATM   14  C13 UNK     1      19.470   1.604  18.845  1.00  0.00     0.089 A 
HETATM   15  C16 UNK     1      19.308  -0.047  20.579  1.00  0.00     0.014 A 
HETATM   16  O2  UNK     1      19.442   1.974  17.485  1.00  0.00    -0.274 OA
HETATM   17  C17 UNK     1      19.702   2.608  19.784  1.00  0.00     0.038 A 
HETATM   18  C15 UNK     1      19.217   1.043  16.476  1.00  0.00     0.304 A 
HETATM   19  O7  UNK     1      19.193   1.373  15.295  1.00  0.00    -0.259 OA
HETATM   20  C20 UNK     1      19.736   2.273  21.136  1.00  0.00     0.003 A 
HETATM   21  C19 UNK     1      19.540   0.949  21.533  1.00  0.00     0.001 A 
ENDBRANCH   8  11
ENDBRANCH   4   7
BRANCH   2  22
HETATM   22  C6  UNK     1      20.754  -4.312  14.849  1.00  0.00     0.296 C 
HETATM   23  O4  UNK     1      20.223  -5.292  15.389  1.00  0.00    -0.259 OA
BRANCH  22  24
HETATM   24  O1  UNK     1      21.957  -3.796  15.282  1.00  0.00    -0.317 OA
BRANCH  24  25
HETATM   25  C11 UNK     1      22.535  -4.396  16.448  1.00  0.00     0.178 C 
BRANCH  25  26
HETATM   26  C14 UNK     1      22.633  -3.346  17.543  1.00  0.00     0.022 C 
HETATM   27  C18 UNK     1      23.468  -3.828  18.715  1.00  0.00     0.007 C 
ENDBRANCH  25  26
ENDBRANCH  24  25
ENDBRANCH  22  24
ENDBRANCH   2  22
BRANCH   5  28
HETATM   28  C12 UNK     1      19.139  -3.365  10.167  1.00  0.00     0.300 C 
HETATM   29  O6  UNK     1      19.842  -2.927   9.233  1.00  0.00    -0.259 OA
BRANCH  28  30
HETATM   30  O3  UNK     1      17.958  -4.041   9.918  1.00  0.00    -0.317 OA
BRANCH  30  31
HETATM   31  C21 UNK     1      17.957  -4.989   8.844  1.00  0.00     0.174 C 
HETATM   32  C22 UNK     1      17.563  -6.347   9.386  1.00  0.00     0.034 C 
ENDBRANCH  30  31
ENDBRANCH  28  30
ENDBRANCH   5  28
TORSDOF 9
ENDMDL
MODEL 4
REMARK VINA RESULT:      -8.6     17.548     22.471
REMARK  9 active torsions:
REMARK  status: ('A' for Active; 'I' for Inactive)
REMARK    1  A    between atoms: C11_20  and  O1_2 
REMARK    2  A    between atoms: C6_15  and  O1_2 
REMARK    3  A    between atoms: C12_21  and  O3_4 
REMARK    4  A    between atoms: C21_30  and  O3_4 
REMARK    5  A    between atoms: C3_12  and  N1_9 
REMARK       I    between atoms: C8_17  and  N1_9 
REMARK    6  A    between atoms: C1_10  and  C6_15 
REMARK    7  A    between atoms: C12_21  and  C4_13 
REMARK    8  A    between atoms: C7_16  and  C8_17 
REMARK    9  A    between atoms: C11_20  and  C14_23 
ROOT
HETATM    1  S1  UNK     1      18.999  -1.861  12.287  1.00  0.00    -0.065 SA
HETATM    2  C1  UNK     1      20.293  -3.620  13.641  1.00  0.00     0.080 A 
HETATM    3  C2  UNK     1      20.098  -4.182  12.347  1.00  0.00    -0.020 A 
HETATM    4  C3  UNK     1      19.746  -2.361  13.745  1.00  0.00     0.094 A 
HETATM    5  C4  UNK     1      19.408  -3.332  11.511  1.00  0.00     0.089 A 
HETATM    6  C5  UNK     1      20.581  -5.529  11.946  1.00  0.00     0.051 C 
ENDROOT
BRANCH   4   7
HETATM    7  N1  UNK     1      19.703  -1.457  14.812  1.00  0.00    -0.316 N 
HETATM    8  C8  UNK     1      18.728  -1.402  15.799  1.00  0.00     0.262 C 
HETATM    9  O5  UNK     1      17.734  -2.113  15.936  1.00  0.00    -0.267 OA
HETATM   10  H4  UNK     1      20.478  -0.799  14.844  1.00  0.00     0.169 HD
BRANCH   8  11
HETATM   11  C7  UNK     1      18.991  -0.329  16.766  1.00  0.00     0.108 A 
HETATM   12  C10 UNK     1      18.972  -0.680  18.058  1.00  0.00     0.037 A 
HETATM   13  C9  UNK     1      19.222   0.313  19.091  1.00  0.00    -0.001 A 
HETATM   14  C13 UNK     1      19.478   1.627  18.713  1.00  0.00     0.089 A 
HETATM   15  C16 UNK     1      19.213  -0.008  20.450  1.00  0.00     0.014 A 
HETATM   16  O2  UNK     1      19.496   1.990  17.351  1.00  0.00    -0.274 OA
HETATM   17  C17 UNK     1      19.723   2.627  19.653  1.00  0.00     0.038 A 
HETATM   18  C15 UNK     1      19.262   1.062  16.341  1.00  0.00     0.304 A 
HETATM   19  O7  UNK     1      19.278   1.387  15.159  1.00  0.00    -0.259 OA
HETATM   20  C20 UNK     1      19.712   2.297  21.007  1.00  0.00     0.003 A 
HETATM   21  C19 UNK     1      19.457   0.984  21.405  1.00  0.00     0.001 A 
ENDBRANCH   8  11
ENDBRANCH   4   7
BRANCH   2  22
HETATM   22  C6  UNK     1      20.978  -4.260  14.737  1.00  0.00     0.296 C 
HETATM   23  O4  UNK     1      22.010  -3.817  15.261  1.00  0.00    -0.259 OA
BRANCH  22  24
HETATM   24  O1  UNK     1      20.379  -5.426  15.164  1.00  0.00    -0.317 OA
BRANCH  24  25
HETATM   25  C11 UNK     1      19.086  -5.305  15.768  1.00  0.00     0.178 C 
BRANCH  25  26
HETATM   26  C14 UNK     1      18.220  -6.470  15.314  1.00  0.00     0.022 C 
HETATM   27  C18 UNK     1      16.873  -6.478  16.014  1.00  0.00     0.007 C 
ENDBRANCH  25  26
ENDBRANCH  24  25
ENDBRANCH  22  24
ENDBRANCH   2  22
BRANCH   5  28
HETATM   28  C12 UNK     1      19.015  -3.522  10.152  1.00  0.00     0.300 C 
HETATM   29  O6  UNK     1      18.055  -4.230   9.787  1.00  0.00    -0.259 OA
BRANCH  28  30
HETATM   30  O3  UNK     1      19.796  -2.845   9.231  1.00  0.00    -0.317 OA
BRANCH  30  31
HETATM   31  C21 UNK     1      20.916  -3.546   8.677  1.00  0.00     0.174 C 
HETATM   32  C22 UNK     1      22.184  -2.785   9.002  1.00  0.00     0.034 C 
ENDBRANCH  30  31
ENDBRANCH  28  30
ENDBRANCH   5  28
TORSDOF 9
ENDMDL
MODEL 5
REMARK VINA RESULT:      -8.6      6.640     12.355
REMARK  9 active torsions:
REMARK  status: ('A' for Active; 'I' for Inactive)
REMARK    1  A    between atoms: C11_20  and  O1_2 
REMARK    2  A    between atoms: C6_15  and  O1_2 
REMARK    3  A    between atoms: C12_21  and  O3_4 
REMARK    4  A    between atoms: C21_30  and  O3_4 
REMARK    5  A    between atoms: C3_12  and  N1_9 
REMARK       I    between atoms: C8_17  and  N1_9 
REMARK    6  A    between atoms: C1_10  and  C6_15 
REMARK    7  A    between atoms: C12_21  and  C4_13 
REMARK    8  A    between atoms: C7_16  and  C8_17 
REMARK    9  A    between atoms: C11_20  and  C14_23 
ROOT
HETATM    1  S1  UNK     1      18.635   3.263  30.259  1.00  0.00    -0.065 SA
HETATM    2  C1  UNK     1      18.341   2.211  32.584  1.00  0.00     0.080 A 
HETATM    3  C2  UNK     1      18.724   1.149  31.716  1.00  0.00    -0.020 A 
HETATM    4  C3  UNK     1      18.255   3.415  31.921  1.00  0.00     0.094 A 
HETATM    5  C4  UNK     1      18.916   1.581  30.422  1.00  0.00     0.089 A 
HETATM    6  C5  UNK     1      18.895  -0.260  32.154  1.00  0.00     0.051 C 
ENDROOT
BRANCH   4   7
HETATM    7  N1  UNK     1      17.919   4.697  32.372  1.00  0.00    -0.316 N 
HETATM    8  C8  UNK     1      18.704   5.835  32.258  1.00  0.00     0.262 C 
HETATM    9  O5  UNK     1      19.820   5.951  31.754  1.00  0.00    -0.267 OA
HETATM   10  H4  UNK     1      17.003   4.768  32.808  1.00  0.00     0.169 HD
BRANCH   8  11
HETATM   11  C7  UNK     1      18.046   7.013  32.838  1.00  0.00     0.108 A 
HETATM   12  C10 UNK     1      16.739   7.146  32.582  1.00  0.00     0.037 A 
HETATM   13  C9  UNK     1      16.000   8.280  33.114  1.00  0.00    -0.001 A 
HETATM   14  C13 UNK     1      16.673   9.218  33.890  1.00  0.00     0.089 A 
HETATM   15  C16 UNK     1      14.636   8.459  32.872  1.00  0.00     0.014 A 
HETATM   16  O2  UNK     1      18.049   9.071  34.156  1.00  0.00    -0.274 OA
HETATM   17  C17 UNK     1      16.024  10.327  34.428  1.00  0.00     0.038 A 
HETATM   18  C15 UNK     1      18.783   7.998  33.662  1.00  0.00     0.304 A 
HETATM   19  O7  UNK     1      19.980   7.879  33.898  1.00  0.00    -0.259 OA
HETATM   20  C20 UNK     1      14.663  10.498  34.182  1.00  0.00     0.003 A 
HETATM   21  C19 UNK     1      13.971   9.567  33.406  1.00  0.00     0.001 A 
ENDBRANCH   8  11
ENDBRANCH   4   7
BRANCH   2  22
HETATM   22  C6  UNK     1      18.067   2.082  33.994  1.00  0.00     0.296 C 
HETATM   23  O4  UNK     1      18.742   2.622  34.882  1.00  0.00    -0.259 OA
BRANCH  22  24
HETATM   24  O1  UNK     1      16.971   1.296  34.280  1.00  0.00    -0.317 OA
BRANCH  24  25
HETATM   25  C11 UNK     1      17.142   0.291  35.287  1.00  0.00     0.178 C 
BRANCH  25  26
HETATM   26  C14 UNK     1      16.320   0.672  36.508  1.00  0.00     0.022 C 
HETATM   27  C18 UNK     1      17.196   1.143  37.654  1.00  0.00     0.007 C 
ENDBRANCH  25  26
ENDBRANCH  24  25
ENDBRANCH  22  24
ENDBRANCH   2  22
BRANCH   5  28
HETATM   28  C12 UNK     1      19.300   0.836  29.267  1.00  0.00     0.300 C 
HETATM   29  O6  UNK     1      18.626   0.761  28.220  1.00  0.00    -0.259 OA
BRANCH  28  30
HETATM   30  O3  UNK     1      20.511   0.177  29.387  1.00  0.00    -0.317 OA
BRANCH  30  31
HETATM   31  C21 UNK     1      20.608  -1.131  28.812  1.00  0.00     0.174 C 
HETATM   32  C22 UNK     1      20.577  -2.161  29.921  1.00  0.00     0.034 C 
ENDBRANCH  30  31
ENDBRANCH  28  30
ENDBRANCH   5  28
TORSDOF 9
ENDMDL
MODEL 6
REMARK VINA RESULT:      -8.3      5.928     11.527
REMARK  9 active torsions:
REMARK  status: ('A' for Active; 'I' for Inactive)
REMARK    1  A    between atoms: C11_20  and  O1_2 
REMARK    2  A    between atoms: C6_15  and  O1_2 
REMARK    3  A    between atoms: C12_21  and  O3_4 
REMARK    4  A    between atoms: C21_30  and  O3_4 
REMARK    5  A    between atoms: C3_12  and  N1_9 
REMARK       I    between atoms: C8_17  and  N1_9 
REMARK    6  A    between atoms: C1_10  and  C6_15 
REMARK    7  A    between atoms: C12_21  and  C4_13 
REMARK    8  A    between atoms: C7_16  and  C8_17 
REMARK    9  A    between atoms: C11_20  and  C14_23 
ROOT
HETATM    1  S1  UNK     1      18.224   2.084  34.807  1.00  0.00    -0.065 SA
HETATM    2  C1  UNK     1      18.364   2.146  32.243  1.00  0.00     0.080 A 
HETATM    3  C2  UNK     1      18.591   0.791  32.617  1.00  0.00    -0.020 A 
HETATM    4  C3  UNK     1      18.151   2.957  33.336  1.00  0.00     0.094 A 
HETATM    5  C4  UNK     1      18.543   0.616  33.983  1.00  0.00     0.089 A 
HETATM    6  C5  UNK     1      18.850  -0.305  31.649  1.00  0.00     0.051 C 
ENDROOT
BRANCH   4   7
HETATM    7  N1  UNK     1      17.893   4.328  33.434  1.00  0.00    -0.316 N 
HETATM    8  C8  UNK     1      18.776   5.295  33.894  1.00  0.00     0.262 C 
HETATM    9  O5  UNK     1      19.929   5.153  34.296  1.00  0.00    -0.267 OA
HETATM   10  H4  UNK     1      16.967   4.611  33.121  1.00  0.00     0.169 HD
BRANCH   8  11
HETATM   11  C7  UNK     1      18.180   6.637  33.864  1.00  0.00     0.108 A 
HETATM   12  C10 UNK     1      16.846   6.693  33.950  1.00  0.00     0.037 A 
HETATM   13  C9  UNK     1      16.163   7.978  33.931  1.00  0.00    -0.001 A 
HETATM   14  C13 UNK     1      16.920   9.139  33.820  1.00  0.00     0.089 A 
HETATM   15  C16 UNK     1      14.774   8.084  34.018  1.00  0.00     0.014 A 
HETATM   16  O2  UNK     1      18.324   9.073  33.730  1.00  0.00    -0.274 OA
HETATM   17  C17 UNK     1      16.328  10.401  33.794  1.00  0.00     0.038 A 
HETATM   18  C15 UNK     1      19.005   7.860  33.747  1.00  0.00     0.304 A 
HETATM   19  O7  UNK     1      20.228   7.812  33.667  1.00  0.00    -0.259 OA
HETATM   20  C20 UNK     1      14.940  10.497  33.882  1.00  0.00     0.003 A 
HETATM   21  C19 UNK     1      14.165   9.342  33.993  1.00  0.00     0.001 A 
ENDBRANCH   8  11
ENDBRANCH   4   7
BRANCH   2  22
HETATM   22  C6  UNK     1      18.352   2.651  30.891  1.00  0.00     0.296 C 
HETATM   23  O4  UNK     1      17.587   2.239  30.008  1.00  0.00    -0.259 OA
BRANCH  22  24
HETATM   24  O1  UNK     1      19.276   3.646  30.658  1.00  0.00    -0.317 OA
BRANCH  24  25
HETATM   25  C11 UNK     1      18.882   4.700  29.772  1.00  0.00     0.178 C 
BRANCH  25  26
HETATM   26  C14 UNK     1      19.430   6.017  30.298  1.00  0.00     0.022 C 
HETATM   27  C18 UNK     1      20.839   5.865  30.842  1.00  0.00     0.007 C 
ENDBRANCH  25  26
ENDBRANCH  24  25
ENDBRANCH  22  24
ENDBRANCH   2  22
BRANCH   5  28
HETATM   28  C12 UNK     1      18.717  -0.576  34.749  1.00  0.00     0.300 C 
HETATM   29  O6  UNK     1      19.775  -1.235  34.795  1.00  0.00    -0.259 OA
BRANCH  28  30
HETATM   30  O3  UNK     1      17.598  -0.966  35.462  1.00  0.00    -0.317 OA
BRANCH  30  31
HETATM   31  C21 UNK     1      17.795  -1.387  36.817  1.00  0.00     0.174 C 
HETATM   32  C22 UNK     1      17.565  -0.208  37.738  1.00  0.00     0.034 C 
ENDBRANCH  30  31
ENDBRANCH  28  30
ENDBRANCH   5  28
TORSDOF 9
ENDMDL
MODEL 7
REMARK VINA RESULT:      -8.2     10.528     12.877
REMARK  9 active torsions:
REMARK  status: ('A' for Active; 'I' for Inactive)
REMARK    1  A    between atoms: C11_20  and  O1_2 
REMARK    2  A    between atoms: C6_15  and  O1_2 
REMARK    3  A    between atoms: C12_21  and  O3_4 
REMARK    4  A    between atoms: C21_30  and  O3_4 
REMARK    5  A    between atoms: C3_12  and  N1_9 
REMARK       I    between atoms: C8_17  and  N1_9 
REMARK    6  A    between atoms: C1_10  and  C6_15 
REMARK    7  A    between atoms: C12_21  and  C4_13 
REMARK    8  A    between atoms: C7_16  and  C8_17 
REMARK    9  A    between atoms: C11_20  and  C14_23 
ROOT
HETATM    1  S1  UNK     1      28.094  -7.003  36.292  1.00  0.00    -0.065 SA
HETATM    2  C1  UNK     1      30.315  -5.712  36.312  1.00  0.00     0.080 A 
HETATM    3  C2  UNK     1      29.716  -5.487  37.584  1.00  0.00    -0.020 A 
HETATM    4  C3  UNK     1      29.539  -6.520  35.511  1.00  0.00     0.094 A 
HETATM    5  C4  UNK     1      28.504  -6.130  37.707  1.00  0.00     0.089 A 
HETATM    6  C5  UNK     1      30.325  -4.654  38.653  1.00  0.00     0.051 C 
ENDROOT
BRANCH   4   7
HETATM    7  N1  UNK     1      29.735  -6.992  34.209  1.00  0.00    -0.316 N 
HETATM    8  C8  UNK     1      29.003  -6.627  33.088  1.00  0.00     0.262 C 
HETATM    9  O5  UNK     1      28.061  -5.840  33.009  1.00  0.00    -0.267 OA
HETATM   10  H4  UNK     1      30.501  -7.654  34.107  1.00  0.00     0.169 HD
BRANCH   8  11
HETATM   11  C7  UNK     1      29.475  -7.315  31.879  1.00  0.00     0.108 A 
HETATM   12  C10 UNK     1      28.555  -8.001  31.192  1.00  0.00     0.037 A 
HETATM   13  C9  UNK     1      28.927  -8.715  29.980  1.00  0.00    -0.001 A 
HETATM   14  C13 UNK     1      30.249  -8.671  29.553  1.00  0.00     0.089 A 
HETATM   15  C16 UNK     1      28.000  -9.443  29.231  1.00  0.00     0.014 A 
HETATM   16  O2  UNK     1      31.213  -7.946  30.281  1.00  0.00    -0.274 OA
HETATM   17  C17 UNK     1      30.671  -9.334  28.401  1.00  0.00     0.038 A 
HETATM   18  C15 UNK     1      30.888  -7.254  31.443  1.00  0.00     0.304 A 
HETATM   19  O7  UNK     1      31.734  -6.626  32.071  1.00  0.00    -0.259 OA
HETATM   20  C20 UNK     1      29.740 -10.058  27.660  1.00  0.00     0.003 A 
HETATM   21  C19 UNK     1      28.408 -10.113  28.073  1.00  0.00     0.001 A 
ENDBRANCH   8  11
ENDBRANCH   4   7
BRANCH   2  22
HETATM   22  C6  UNK     1      31.582  -5.177  35.877  1.00  0.00     0.296 C 
HETATM   23  O4  UNK     1      31.829  -3.965  35.799  1.00  0.00    -0.259 OA
BRANCH  22  24
HETATM   24  O1  UNK     1      32.512  -6.140  35.549  1.00  0.00    -0.317 OA
BRANCH  24  25
HETATM   25  C11 UNK     1      33.397  -6.564  36.592  1.00  0.00     0.178 C 
BRANCH  25  26
HETATM   26  C14 UNK     1      33.030  -7.982  37.003  1.00  0.00     0.022 C 
HETATM   27  C18 UNK     1      32.295  -8.013  38.330  1.00  0.00     0.007 C 
ENDBRANCH  25  26
ENDBRANCH  24  25
ENDBRANCH  22  24
ENDBRANCH   2  22
BRANCH   5  28
HETATM   28  C12 UNK     1      27.600  -6.155  38.813  1.00  0.00     0.300 C 
HETATM   29  O6  UNK     1      26.697  -5.316  39.003  1.00  0.00    -0.259 OA
BRANCH  28  30
HETATM   30  O3  UNK     1      27.798  -7.206  39.690  1.00  0.00    -0.317 OA
BRANCH  30  31
HETATM   31  C21 UNK     1      27.077  -8.418  39.437  1.00  0.00     0.174 C 
HETATM   32  C22 UNK     1      28.023  -9.592  39.576  1.00  0.00     0.034 C 
ENDBRANCH  30  31
ENDBRANCH  28  30
ENDBRANCH   5  28
TORSDOF 9
ENDMDL
MODEL 8
REMARK VINA RESULT:      -8.1      5.633     11.366
REMARK  9 active torsions:
REMARK  status: ('A' for Active; 'I' for Inactive)
REMARK    1  A    between atoms: C11_20  and  O1_2 
REMARK    2  A    between atoms: C6_15  and  O1_2 
REMARK    3  A    between atoms: C12_21  and  O3_4 
REMARK    4  A    between atoms: C21_30  and  O3_4 
REMARK    5  A    between atoms: C3_12  and  N1_9 
REMARK       I    between atoms: C8_17  and  N1_9 
REMARK    6  A    between atoms: C1_10  and  C6_15 
REMARK    7  A    between atoms: C12_21  and  C4_13 
REMARK    8  A    between atoms: C7_16  and  C8_17 
REMARK    9  A    between atoms: C11_20  and  C14_23 
ROOT
HETATM    1  S1  UNK     1      18.479   2.056  35.262  1.00  0.00    -0.065 SA
HETATM    2  C1  UNK     1      18.301   1.793  32.713  1.00  0.00     0.080 A 
HETATM    3  C2  UNK     1      18.559   0.491  33.228  1.00  0.00    -0.020 A 
HETATM    4  C3  UNK     1      18.233   2.739  33.712  1.00  0.00     0.094 A 
HETATM    5  C4  UNK     1      18.679   0.490  34.600  1.00  0.00     0.089 A 
HETATM    6  C5  UNK     1      18.685  -0.725  32.383  1.00  0.00     0.051 C 
ENDROOT
BRANCH   4   7
HETATM    7  N1  UNK     1      18.003   4.119  33.665  1.00  0.00    -0.316 N 
HETATM    8  C8  UNK     1      18.716   5.041  32.912  1.00  0.00     0.262 C 
HETATM    9  O5  UNK     1      19.665   4.845  32.156  1.00  0.00    -0.267 OA
HETATM   10  H4  UNK     1      17.226   4.440  34.238  1.00  0.00     0.169 HD
BRANCH   8  11
HETATM   11  C7  UNK     1      18.208   6.406  33.099  1.00  0.00     0.108 A 
HETATM   12  C10 UNK     1      19.086   7.306  33.560  1.00  0.00     0.037 A 
HETATM   13  C9  UNK     1      18.677   8.685  33.776  1.00  0.00    -0.001 A 
HETATM   14  C13 UNK     1      17.364   9.049  33.497  1.00  0.00     0.089 A 
HETATM   15  C16 UNK     1      19.558   9.656  34.256  1.00  0.00     0.014 A 
HETATM   16  O2  UNK     1      16.445   8.098  33.011  1.00  0.00    -0.274 OA
HETATM   17  C17 UNK     1      16.908  10.353  33.683  1.00  0.00     0.038 A 
HETATM   18  C15 UNK     1      16.807   6.772  32.793  1.00  0.00     0.304 A 
HETATM   19  O7  UNK     1      16.000   5.950  32.371  1.00  0.00    -0.259 OA
HETATM   20  C20 UNK     1      17.795  11.315  34.162  1.00  0.00     0.003 A 
HETATM   21  C19 UNK     1      19.116  10.968  34.448  1.00  0.00     0.001 A 
ENDBRANCH   8  11
ENDBRANCH   4   7
BRANCH   2  22
HETATM   22  C6  UNK     1      18.126   2.124  31.320  1.00  0.00     0.296 C 
HETATM   23  O4  UNK     1      17.171   2.780  30.880  1.00  0.00    -0.259 OA
BRANCH  22  24
HETATM   24  O1  UNK     1      19.126   1.643  30.503  1.00  0.00    -0.317 OA
BRANCH  24  25
HETATM   25  C11 UNK     1      18.789   1.428  29.127  1.00  0.00     0.178 C 
BRANCH  25  26
HETATM   26  C14 UNK     1      19.417   0.123  28.664  1.00  0.00     0.022 C 
HETATM   27  C18 UNK     1      20.648  -0.232  29.479  1.00  0.00     0.007 C 
ENDBRANCH  25  26
ENDBRANCH  24  25
ENDBRANCH  22  24
ENDBRANCH   2  22
BRANCH   5  28
HETATM   28  C12 UNK     1      18.934  -0.601  35.485  1.00  0.00     0.300 C 
HETATM   29  O6  UNK     1      20.067  -1.066  35.721  1.00  0.00    -0.259 OA
BRANCH  28  30
HETATM   30  O3  UNK     1      17.805  -1.127  36.086  1.00  0.00    -0.317 OA
BRANCH  30  31
HETATM   31  C21 UNK     1      17.840  -1.310  37.507  1.00  0.00     0.174 C 
HETATM   32  C22 UNK     1      17.697   0.038  38.181  1.00  0.00     0.034 C 
ENDBRANCH  30  31
ENDBRANCH  28  30
ENDBRANCH   5  28
TORSDOF 9
ENDMDL
MODEL 9
REMARK VINA RESULT:      -8.1      2.157      4.547
REMARK  9 active torsions:
REMARK  status: ('A' for Active; 'I' for Inactive)
REMARK    1  A    between atoms: C11_20  and  O1_2 
REMARK    2  A    between atoms: C6_15  and  O1_2 
REMARK    3  A    between atoms: C12_21  and  O3_4 
REMARK    4  A    between atoms: C21_30  and  O3_4 
REMARK    5  A    between atoms: C3_12  and  N1_9 
REMARK       I    between atoms: C8_17  and  N1_9 
REMARK    6  A    between atoms: C1_10  and  C6_15 
REMARK    7  A    between atoms: C12_21  and  C4_13 
REMARK    8  A    between atoms: C7_16  and  C8_17 
REMARK    9  A    between atoms: C11_20  and  C14_23 
ROOT
HETATM    1  S1  UNK     1      20.310  -2.382  33.033  1.00  0.00    -0.065 SA
HETATM    2  C1  UNK     1      18.780  -1.240  34.750  1.00  0.00     0.080 A 
HETATM    3  C2  UNK     1      18.846  -0.359  33.634  1.00  0.00    -0.020 A 
HETATM    4  C3  UNK     1      19.530  -2.378  34.556  1.00  0.00     0.094 A 
HETATM    5  C4  UNK     1      19.646  -0.857  32.628  1.00  0.00     0.089 A 
HETATM    6  C5  UNK     1      18.138   0.945  33.562  1.00  0.00     0.051 C 
ENDROOT
BRANCH   4   7
HETATM    7  N1  UNK     1      19.749  -3.492  35.374  1.00  0.00    -0.316 N 
HETATM    8  C8  UNK     1      20.213  -3.468  36.682  1.00  0.00     0.262 C 
HETATM    9  O5  UNK     1      20.519  -2.495  37.370  1.00  0.00    -0.267 OA
HETATM   10  H4  UNK     1      19.526  -4.387  34.944  1.00  0.00     0.169 HD
BRANCH   8  11
HETATM   11  C7  UNK     1      20.328  -4.818  37.246  1.00  0.00     0.108 A 
HETATM   12  C10 UNK     1      21.444  -5.078  37.937  1.00  0.00     0.037 A 
HETATM   13  C9  UNK     1      21.647  -6.389  38.535  1.00  0.00    -0.001 A 
HETATM   14  C13 UNK     1      20.666  -7.361  38.375  1.00  0.00     0.089 A 
HETATM   15  C16 UNK     1      22.796  -6.704  39.264  1.00  0.00     0.014 A 
HETATM   16  O2  UNK     1      19.493  -7.081  37.646  1.00  0.00    -0.274 OA
HETATM   17  C17 UNK     1      20.800  -8.636  38.921  1.00  0.00     0.038 A 
HETATM   18  C15 UNK     1      19.269  -5.837  37.064  1.00  0.00     0.304 A 
HETATM   19  O7  UNK     1      18.246  -5.603  36.430  1.00  0.00    -0.259 OA
HETATM   20  C20 UNK     1      21.950  -8.942  39.647  1.00  0.00     0.003 A 
HETATM   21  C19 UNK     1      22.945  -7.979  39.819  1.00  0.00     0.001 A 
ENDBRANCH   8  11
ENDBRANCH   4   7
BRANCH   2  22
HETATM   22  C6  UNK     1      18.028  -1.005  35.959  1.00  0.00     0.296 C 
HETATM   23  O4  UNK     1      17.157  -1.773  36.391  1.00  0.00    -0.259 OA
BRANCH  22  24
HETATM   24  O1  UNK     1      18.364   0.165  36.606  1.00  0.00    -0.317 OA
BRANCH  24  25
HETATM   25  C11 UNK     1      17.560   0.534  37.733  1.00  0.00     0.178 C 
BRANCH  25  26
HETATM   26  C14 UNK     1      16.591   1.627  37.308  1.00  0.00     0.022 C 
HETATM   27  C18 UNK     1      15.332   1.054  36.683  1.00  0.00     0.007 C 
ENDBRANCH  25  26
ENDBRANCH  24  25
ENDBRANCH  22  24
ENDBRANCH   2  22
BRANCH   5  28
HETATM   28  C12 UNK     1      19.966  -0.284  31.360  1.00  0.00     0.300 C 
HETATM   29  O6  UNK     1      21.128  -0.098  30.944  1.00  0.00    -0.259 OA
BRANCH  28  30
HETATM   30  O3  UNK     1      18.867   0.064  30.595  1.00  0.00    -0.317 OA
BRANCH  30  31
HETATM   31  C21 UNK     1      19.059   1.058  29.582  1.00  0.00     0.174 C 
HETATM   32  C22 UNK     1      18.610   2.401  30.117  1.00  0.00     0.034 C 
ENDBRANCH  30  31
ENDBRANCH  28  30
ENDBRANCH   5  28
TORSDOF 9
ENDMDL
MODEL 10
REMARK VINA RESULT:      -8.0      4.031      6.654
REMARK  9 active torsions:
REMARK  status: ('A' for Active; 'I' for Inactive)
REMARK    1  A    between atoms: C11_20  and  O1_2 
REMARK    2  A    between atoms: C6_15  and  O1_2 
REMARK    3  A    between atoms: C12_21  and  O3_4 
REMARK    4  A    between atoms: C21_30  and  O3_4 
REMARK    5  A    between atoms: C3_12  and  N1_9 
REMARK       I    between atoms: C8_17  and  N1_9 
REMARK    6  A    between atoms: C1_10  and  C6_15 
REMARK    7  A    between atoms: C12_21  and  C4_13 
REMARK    8  A    between atoms: C7_16  and  C8_17 
REMARK    9  A    between atoms: C11_20  and  C14_23 
ROOT
HETATM    1  S1  UNK     1      18.249   4.295  33.636  1.00  0.00    -0.065 SA
HETATM    2  C1  UNK     1      18.591   2.730  31.628  1.00  0.00     0.080 A 
HETATM    3  C2  UNK     1      18.439   4.038  31.087  1.00  0.00    -0.020 A 
HETATM    4  C3  UNK     1      18.509   2.726  33.003  1.00  0.00     0.094 A 
HETATM    5  C4  UNK     1      18.246   4.986  32.069  1.00  0.00     0.089 A 
HETATM    6  C5  UNK     1      18.483   4.346  29.635  1.00  0.00     0.051 C 
ENDROOT
BRANCH   4   7
HETATM    7  N1  UNK     1      18.600   1.684  33.931  1.00  0.00    -0.316 N 
HETATM    8  C8  UNK     1      17.550   0.897  34.383  1.00  0.00     0.262 C 
HETATM    9  O5  UNK     1      16.361   0.950  34.072  1.00  0.00    -0.267 OA
HETATM   10  H4  UNK     1      19.539   1.505  34.280  1.00  0.00     0.169 HD
BRANCH   8  11
HETATM   11  C7  UNK     1      17.999  -0.106  35.358  1.00  0.00     0.108 A 
HETATM   12  C10 UNK     1      18.797  -1.072  34.887  1.00  0.00     0.037 A 
HETATM   13  C9  UNK     1      19.294  -2.110  35.777  1.00  0.00    -0.001 A 
HETATM   14  C13 UNK     1      18.926  -2.080  37.117  1.00  0.00     0.089 A 
HETATM   15  C16 UNK     1      20.128  -3.136  35.330  1.00  0.00     0.014 A 
HETATM   16  O2  UNK     1      18.085  -1.060  37.606  1.00  0.00    -0.274 OA
HETATM   17  C17 UNK     1      19.366  -3.045  38.022  1.00  0.00     0.038 A 
HETATM   18  C15 UNK     1      17.595  -0.053  36.781  1.00  0.00     0.304 A 
HETATM   19  O7  UNK     1      16.863   0.829  37.215  1.00  0.00    -0.259 OA
HETATM   20  C20 UNK     1      20.198  -4.066  37.567  1.00  0.00     0.003 A 
HETATM   21  C19 UNK     1      20.579  -4.112  36.224  1.00  0.00     0.001 A 
ENDBRANCH   8  11
ENDBRANCH   4   7
BRANCH   2  22
HETATM   22  C6  UNK     1      18.807   1.527  30.862  1.00  0.00     0.296 C 
HETATM   23  O4  UNK     1      18.162   1.230  29.846  1.00  0.00    -0.259 OA
BRANCH  22  24
HETATM   24  O1  UNK     1      19.807   0.720  31.360  1.00  0.00    -0.317 OA
BRANCH  24  25
HETATM   25  C11 UNK     1      20.496  -0.111  30.419  1.00  0.00     0.178 C 
BRANCH  25  26
HETATM   26  C14 UNK     1      20.108  -1.561  30.665  1.00  0.00     0.022 C 
HETATM   27  C18 UNK     1      20.800  -2.131  31.889  1.00  0.00     0.007 C 
ENDBRANCH  25  26
ENDBRANCH  24  25
ENDBRANCH  22  24
ENDBRANCH   2  22
BRANCH   5  28
HETATM   28  C12 UNK     1      18.054   6.395  31.941  1.00  0.00     0.300 C 
HETATM   29  O6  UNK     1      17.089   6.924  31.354  1.00  0.00    -0.259 OA
BRANCH  28  30
HETATM   30  O3  UNK     1      19.043   7.162  32.531  1.00  0.00    -0.317 OA
BRANCH  30  31
HETATM   31  C21 UNK     1      18.626   8.169  33.462  1.00  0.00     0.174 C 
HETATM   32  C22 UNK     1      19.230   7.867  34.817  1.00  0.00     0.034 C 
ENDBRANCH  30  31
ENDBRANCH  28  30
ENDBRANCH   5  28
TORSDOF 9
ENDMDL
