MODEL 1
REMARK VINA RESULT:      -7.8      0.000      0.000
REMARK  4 active torsions:
REMARK  status: ('A' for Active; 'I' for Inactive)
REMARK    1  A    between atoms: C11_16  and  O3_3 
REMARK    2  A    between atoms: C1_6  and  N1_5 
REMARK    3  A    between atoms: C2_7  and  N1_5 
REMARK       I    between atoms: C4_9  and  N1_5 
REMARK    4  A    between atoms: C3_8  and  C4_9 
ROOT
HETATM    1  O1  UNK     1      18.803   1.113  31.950  1.00  0.00    -0.271 OA
HETATM    2  O4  UNK     1      18.211   1.660  34.088  1.00  0.00    -0.259 OA
HETATM    3  C3  UNK     1      19.023  -0.538  33.740  1.00  0.00     0.108 A 
HETATM    4  C5  UNK     1      19.649  -1.116  31.473  1.00  0.00     0.002 A 
HETATM    5  C6  UNK     1      19.495  -1.449  32.880  1.00  0.00     0.037 A 
HETATM    6  C7  UNK     1      19.299   0.159  31.040  1.00  0.00     0.123 A 
HETATM    7  C10 UNK     1      18.644   0.824  33.303  1.00  0.00     0.304 A 
HETATM    8  C11 UNK     1      19.422   0.542  29.705  1.00  0.00     0.102 A 
HETATM    9  C12 UNK     1      20.136  -2.034  30.539  1.00  0.00     0.014 A 
HETATM   10  C13 UNK     1      19.908  -0.380  28.781  1.00  0.00     0.040 A 
HETATM   11  C14 UNK     1      20.265  -1.665  29.196  1.00  0.00     0.004 A 
ENDROOT
BRANCH   3  12
HETATM   12  C4  UNK     1      18.903  -0.970  35.139  1.00  0.00     0.259 C 
HETATM   13  O2  UNK     1      19.937  -1.088  35.805  1.00  0.00    -0.267 OA
HETATM   14  N1  UNK     1      17.618  -1.208  35.635  1.00  0.00    -0.348 N 
BRANCH  14  15
HETATM   15  C1  UNK     1      17.381  -1.626  37.015  1.00  0.00     0.121 C 
HETATM   16  C8  UNK     1      17.763  -0.513  37.970  1.00  0.00     0.026 C 
ENDBRANCH  14  15
BRANCH  14  17
HETATM   17  C2  UNK     1      16.427  -1.056  34.809  1.00  0.00     0.121 C 
HETATM   18  C9  UNK     1      15.561   0.069  35.342  1.00  0.00     0.026 C 
ENDBRANCH  14  17
ENDBRANCH   3  12
BRANCH   8  19
HETATM   19  O3  UNK     1      19.075   1.791  29.297  1.00  0.00    -0.353 OA
HETATM   20  C15 UNK     1      17.834   1.928  28.604  1.00  0.00     0.210 C 
ENDBRANCH   8  19
TORSDOF 4
ENDMDL
MODEL 2
REMARK VINA RESULT:      -7.6      6.781      8.888
REMARK  4 active torsions:
REMARK  status: ('A' for Active; 'I' for Inactive)
REMARK    1  A    between atoms: C11_16  and  O3_3 
REMARK    2  A    between atoms: C1_6  and  N1_5 
REMARK    3  A    between atoms: C2_7  and  N1_5 
REMARK       I    between atoms: C4_9  and  N1_5 
REMARK    4  A    between atoms: C3_8  and  C4_9 
ROOT
HETATM    1  O1  UNK     1      16.817   7.988  32.918  1.00  0.00    -0.271 OA
HETATM    2  O4  UNK     1      15.816   6.111  32.084  1.00  0.00    -0.259 OA
HETATM    3  C3  UNK     1      18.077   5.899  32.757  1.00  0.00     0.108 A 
HETATM    4  C5  UNK     1      19.136   7.891  33.640  1.00  0.00     0.002 A 
HETATM    5  C6  UNK     1      19.167   6.486  33.268  1.00  0.00     0.037 A 
HETATM    6  C7  UNK     1      17.960   8.611  33.456  1.00  0.00     0.123 A 
HETATM    7  C10 UNK     1      16.816   6.645  32.552  1.00  0.00     0.304 A 
HETATM    8  C11 UNK     1      17.864   9.960  33.791  1.00  0.00     0.102 A 
HETATM    9  C12 UNK     1      20.249   8.544  34.176  1.00  0.00     0.014 A 
HETATM   10  C13 UNK     1      18.979  10.604  34.325  1.00  0.00     0.040 A 
HETATM   11  C14 UNK     1      20.169   9.898  34.517  1.00  0.00     0.004 A 
ENDROOT
BRANCH   3  12
HETATM   12  C4  UNK     1      18.208   4.478  32.413  1.00  0.00     0.259 C 
HETATM   13  O2  UNK     1      17.955   3.639  33.284  1.00  0.00    -0.267 OA
HETATM   14  N1  UNK     1      18.601   4.161  31.108  1.00  0.00    -0.348 N 
BRANCH  14  15
HETATM   15  C1  UNK     1      18.748   2.781  30.653  1.00  0.00     0.121 C 
HETATM   16  C8  UNK     1      18.184   2.630  29.254  1.00  0.00     0.026 C 
ENDBRANCH  14  15
BRANCH  14  17
HETATM   17  C2  UNK     1      18.890   5.187  30.115  1.00  0.00     0.121 C 
HETATM   18  C9  UNK     1      20.333   5.638  30.234  1.00  0.00     0.026 C 
ENDBRANCH  14  17
ENDBRANCH   3  12
BRANCH   8  19
HETATM   19  O3  UNK     1      16.708  10.651  33.604  1.00  0.00    -0.353 OA
HETATM   20  C15 UNK     1      15.952  10.980  34.770  1.00  0.00     0.210 C 
ENDBRANCH   8  19
TORSDOF 4
ENDMDL
MODEL 3
REMARK VINA RESULT:      -7.4     23.710     26.358
REMARK  4 active torsions:
REMARK  status: ('A' for Active; 'I' for Inactive)
REMARK    1  A    between atoms: C11_16  and  O3_3 
REMARK    2  A    between atoms: C1_6  and  N1_5 
REMARK    3  A    between atoms: C2_7  and  N1_5 
REMARK       I    between atoms: C4_9  and  N1_5 
REMARK    4  A    between atoms: C3_8  and  C4_9 
ROOT
HETATM    1  O1  UNK     1      10.667   7.780   9.432  1.00  0.00    -0.271 OA
HETATM    2  O4  UNK     1      12.239   8.613  10.866  1.00  0.00    -0.259 OA
HETATM    3  C3  UNK     1      13.023   7.811   8.779  1.00  0.00     0.108 A 
HETATM    4  C5  UNK     1      11.355   6.927   7.262  1.00  0.00     0.002 A 
HETATM    5  C6  UNK     1      12.731   7.257   7.597  1.00  0.00     0.037 A 
HETATM    6  C7  UNK     1      10.354   7.196   8.189  1.00  0.00     0.123 A 
HETATM    7  C10 UNK     1      11.975   8.106   9.781  1.00  0.00     0.304 A 
HETATM    8  C11 UNK     1       9.015   6.905   7.931  1.00  0.00     0.102 A 
HETATM    9  C12 UNK     1      11.004   6.348   6.040  1.00  0.00     0.014 A 
HETATM   10  C13 UNK     1       8.674   6.326   6.710  1.00  0.00     0.040 A 
HETATM   11  C14 UNK     1       9.665   6.048   5.767  1.00  0.00     0.004 A 
ENDROOT
BRANCH   3  12
HETATM   12  C4  UNK     1      14.441   8.106   9.024  1.00  0.00     0.259 C 
HETATM   13  O2  UNK     1      14.886   9.195   8.644  1.00  0.00    -0.267 OA
HETATM   14  N1  UNK     1      15.199   7.136   9.688  1.00  0.00    -0.348 N 
BRANCH  14  15
HETATM   15  C1  UNK     1      16.614   7.331   9.996  1.00  0.00     0.121 C 
HETATM   16  C8  UNK     1      16.766   8.015  11.340  1.00  0.00     0.026 C 
ENDBRANCH  14  15
BRANCH  14  17
HETATM   17  C2  UNK     1      14.630   5.866  10.116  1.00  0.00     0.121 C 
HETATM   18  C9  UNK     1      15.552   4.724   9.735  1.00  0.00     0.026 C 
ENDBRANCH  14  17
ENDBRANCH   3  12
BRANCH   8  19
HETATM   19  O3  UNK     1       8.047   7.173   8.848  1.00  0.00    -0.353 OA
HETATM   20  C15 UNK     1       7.556   6.074   9.615  1.00  0.00     0.210 C 
ENDBRANCH   8  19
TORSDOF 4
ENDMDL
MODEL 4
REMARK VINA RESULT:      -7.3      3.969      5.761
REMARK  4 active torsions:
REMARK  status: ('A' for Active; 'I' for Inactive)
REMARK    1  A    between atoms: C11_16  and  O3_3 
REMARK    2  A    between atoms: C1_6  and  N1_5 
REMARK    3  A    between atoms: C2_7  and  N1_5 
REMARK       I    between atoms: C4_9  and  N1_5 
REMARK    4  A    between atoms: C3_8  and  C4_9 
ROOT
HETATM    1  O1  UNK     1      18.729   1.692  33.025  1.00  0.00    -0.271 OA
HETATM    2  O4  UNK     1      18.137   3.268  34.571  1.00  0.00    -0.259 OA
HETATM    3  C3  UNK     1      18.152   3.956  32.304  1.00  0.00     0.108 A 
HETATM    4  C5  UNK     1      18.780   2.284  30.668  1.00  0.00     0.002 A 
HETATM    5  C6  UNK     1      18.364   3.632  31.023  1.00  0.00     0.037 A 
HETATM    6  C7  UNK     1      18.953   1.345  31.679  1.00  0.00     0.123 A 
HETATM    7  C10 UNK     1      18.330   2.973  33.396  1.00  0.00     0.304 A 
HETATM    8  C11 UNK     1      19.350   0.037  31.406  1.00  0.00     0.102 A 
HETATM    9  C12 UNK     1      19.013   1.901  29.345  1.00  0.00     0.014 A 
HETATM   10  C13 UNK     1      19.581  -0.337  30.084  1.00  0.00     0.040 A 
HETATM   11  C14 UNK     1      19.413   0.593  29.055  1.00  0.00     0.004 A 
ENDROOT
BRANCH   3  12
HETATM   12  C4  UNK     1      17.736   5.341  32.561  1.00  0.00     0.259 C 
HETATM   13  O2  UNK     1      16.551   5.640  32.373  1.00  0.00    -0.267 OA
HETATM   14  N1  UNK     1      18.709   6.235  33.019  1.00  0.00    -0.348 N 
BRANCH  14  15
HETATM   15  C1  UNK     1      18.401   7.632  33.320  1.00  0.00     0.121 C 
HETATM   16  C8  UNK     1      18.961   8.007  34.678  1.00  0.00     0.026 C 
ENDBRANCH  14  15
BRANCH  14  17
HETATM   17  C2  UNK     1      20.094   5.836  33.225  1.00  0.00     0.121 C 
HETATM   18  C9  UNK     1      20.933   6.216  32.020  1.00  0.00     0.026 C 
ENDBRANCH  14  17
ENDBRANCH   3  12
BRANCH   8  19
HETATM   19  O3  UNK     1      19.516  -0.871  32.405  1.00  0.00    -0.353 OA
HETATM   20  C15 UNK     1      20.361  -1.989  32.134  1.00  0.00     0.210 C 
ENDBRANCH   8  19
TORSDOF 4
ENDMDL
MODEL 5
REMARK VINA RESULT:      -7.3      6.733      8.945
REMARK  4 active torsions:
REMARK  status: ('A' for Active; 'I' for Inactive)
REMARK    1  A    between atoms: C11_16  and  O3_3 
REMARK    2  A    between atoms: C1_6  and  N1_5 
REMARK    3  A    between atoms: C2_7  and  N1_5 
REMARK       I    between atoms: C4_9  and  N1_5 
REMARK    4  A    between atoms: C3_8  and  C4_9 
ROOT
HETATM    1  O1  UNK     1      18.460   7.901  33.633  1.00  0.00    -0.271 OA
HETATM    2  O4  UNK     1      20.017   6.236  33.487  1.00  0.00    -0.259 OA
HETATM    3  C3  UNK     1      17.870   5.763  32.605  1.00  0.00     0.108 A 
HETATM    4  C5  UNK     1      16.221   7.530  32.762  1.00  0.00     0.002 A 
HETATM    5  C6  UNK     1      16.623   6.190  32.368  1.00  0.00     0.037 A 
HETATM    6  C7  UNK     1      17.150   8.356  33.386  1.00  0.00     0.123 A 
HETATM    7  C10 UNK     1      18.875   6.624  33.268  1.00  0.00     0.304 A 
HETATM    8  C11 UNK     1      16.829   9.651  33.789  1.00  0.00     0.102 A 
HETATM    9  C12 UNK     1      14.931   8.018  32.535  1.00  0.00     0.014 A 
HETATM   10  C13 UNK     1      15.540  10.130  33.559  1.00  0.00     0.040 A 
HETATM   11  C14 UNK     1      14.593   9.315  32.934  1.00  0.00     0.004 A 
ENDROOT
BRANCH   3  12
HETATM   12  C4  UNK     1      18.179   4.395  32.171  1.00  0.00     0.259 C 
HETATM   13  O2  UNK     1      17.973   3.468  32.963  1.00  0.00    -0.267 OA
HETATM   14  N1  UNK     1      18.678   4.224  30.876  1.00  0.00    -0.348 N 
BRANCH  14  15
HETATM   15  C1  UNK     1      19.005   2.906  30.336  1.00  0.00     0.121 C 
HETATM   16  C8  UNK     1      17.931   2.460  29.363  1.00  0.00     0.026 C 
ENDBRANCH  14  15
BRANCH  14  17
HETATM   17  C2  UNK     1      18.906   5.348  29.978  1.00  0.00     0.121 C 
HETATM   18  C9  UNK     1      20.344   5.819  30.083  1.00  0.00     0.026 C 
ENDBRANCH  14  17
ENDBRANCH   3  12
BRANCH   8  19
HETATM   19  O3  UNK     1      17.747  10.447  34.398  1.00  0.00    -0.353 OA
HETATM   20  C15 UNK     1      17.675  11.848  34.130  1.00  0.00     0.210 C 
ENDBRANCH   8  19
TORSDOF 4
ENDMDL
MODEL 6
REMARK VINA RESULT:      -7.3      3.455      5.832
REMARK  4 active torsions:
REMARK  status: ('A' for Active; 'I' for Inactive)
REMARK    1  A    between atoms: C11_16  and  O3_3 
REMARK    2  A    between atoms: C1_6  and  N1_5 
REMARK    3  A    between atoms: C2_7  and  N1_5 
REMARK       I    between atoms: C4_9  and  N1_5 
REMARK    4  A    between atoms: C3_8  and  C4_9 
ROOT
HETATM    1  O1  UNK     1      19.247  -1.727  34.710  1.00  0.00    -0.271 OA
HETATM    2  O4  UNK     1      20.550  -3.552  34.270  1.00  0.00    -0.259 OA
HETATM    3  C3  UNK     1      19.846  -3.265  36.514  1.00  0.00     0.108 A 
HETATM    4  C5  UNK     1      18.466  -1.330  36.977  1.00  0.00     0.002 A 
HETATM    5  C6  UNK     1      19.161  -2.534  37.402  1.00  0.00     0.037 A 
HETATM    6  C7  UNK     1      18.525  -0.954  35.640  1.00  0.00     0.123 A 
HETATM    7  C10 UNK     1      19.923  -2.885  35.086  1.00  0.00     0.304 A 
HETATM    8  C11 UNK     1      17.881   0.189  35.168  1.00  0.00     0.102 A 
HETATM    9  C12 UNK     1      17.739  -0.536  37.869  1.00  0.00     0.014 A 
HETATM   10  C13 UNK     1      17.160   0.976  36.063  1.00  0.00     0.040 A 
HETATM   11  C14 UNK     1      17.089   0.615  37.411  1.00  0.00     0.004 A 
ENDROOT
BRANCH   3  12
HETATM   12  C4  UNK     1      20.514  -4.463  37.040  1.00  0.00     0.259 C 
HETATM   13  O2  UNK     1      21.682  -4.357  37.430  1.00  0.00    -0.267 OA
HETATM   14  N1  UNK     1      19.778  -5.651  37.078  1.00  0.00    -0.348 N 
BRANCH  14  15
HETATM   15  C1  UNK     1      20.338  -6.897  37.595  1.00  0.00     0.121 C 
HETATM   16  C8  UNK     1      20.084  -7.005  39.086  1.00  0.00     0.026 C 
ENDBRANCH  14  15
BRANCH  14  17
HETATM   17  C2  UNK     1      18.402  -5.726  36.605  1.00  0.00     0.121 C 
HETATM   18  C9  UNK     1      18.182  -7.017  35.839  1.00  0.00     0.026 C 
ENDBRANCH  14  17
ENDBRANCH   3  12
BRANCH   8  19
HETATM   19  O3  UNK     1      17.949   0.544  33.857  1.00  0.00    -0.353 OA
HETATM   20  C15 UNK     1      18.178   1.924  33.568  1.00  0.00     0.210 C 
ENDBRANCH   8  19
TORSDOF 4
ENDMDL
MODEL 7
REMARK VINA RESULT:      -7.3     23.634     26.455
REMARK  4 active torsions:
REMARK  status: ('A' for Active; 'I' for Inactive)
REMARK    1  A    between atoms: C11_16  and  O3_3 
REMARK    2  A    between atoms: C1_6  and  N1_5 
REMARK    3  A    between atoms: C2_7  and  N1_5 
REMARK       I    between atoms: C4_9  and  N1_5 
REMARK    4  A    between atoms: C3_8  and  C4_9 
ROOT
HETATM    1  O1  UNK     1      10.837   5.674   9.311  1.00  0.00    -0.271 OA
HETATM    2  O4  UNK     1      12.563   5.420  10.787  1.00  0.00    -0.259 OA
HETATM    3  C3  UNK     1      13.133   6.106   8.592  1.00  0.00     0.108 A 
HETATM    4  C5  UNK     1      11.302   6.374   7.030  1.00  0.00     0.002 A 
HETATM    5  C6  UNK     1      12.717   6.419   7.359  1.00  0.00     0.037 A 
HETATM    6  C7  UNK     1      10.393   6.002   8.015  1.00  0.00     0.123 A 
HETATM    7  C10 UNK     1      12.185   5.708   9.656  1.00  0.00     0.304 A 
HETATM    8  C11 UNK     1       9.023   5.939   7.765  1.00  0.00     0.102 A 
HETATM    9  C12 UNK     1      10.823   6.692   5.757  1.00  0.00     0.014 A 
HETATM   10  C13 UNK     1       8.554   6.257   6.493  1.00  0.00     0.040 A 
HETATM   11  C14 UNK     1       9.451   6.632   5.490  1.00  0.00     0.004 A 
ENDROOT
BRANCH   3  12
HETATM   12  C4  UNK     1      14.581   6.181   8.826  1.00  0.00     0.259 C 
HETATM   13  O2  UNK     1      15.276   5.207   8.515  1.00  0.00    -0.267 OA
HETATM   14  N1  UNK     1      15.088   7.363   9.376  1.00  0.00    -0.348 N 
BRANCH  14  15
HETATM   15  C1  UNK     1      16.513   7.551   9.636  1.00  0.00     0.121 C 
HETATM   16  C8  UNK     1      16.753   7.725  11.123  1.00  0.00     0.026 C 
ENDBRANCH  14  15
BRANCH  14  17
HETATM   17  C2  UNK     1      14.229   8.486   9.727  1.00  0.00     0.121 C 
HETATM   18  C9  UNK     1      14.481   9.651   8.789  1.00  0.00     0.026 C 
ENDBRANCH  14  17
ENDBRANCH   3  12
BRANCH   8  19
HETATM   19  O3  UNK     1       8.147   5.573   8.739  1.00  0.00    -0.353 OA
HETATM   20  C15 UNK     1       7.496   6.622   9.455  1.00  0.00     0.210 C 
ENDBRANCH   8  19
TORSDOF 4
ENDMDL
MODEL 8
REMARK VINA RESULT:      -7.2      4.139      5.931
REMARK  4 active torsions:
REMARK  status: ('A' for Active; 'I' for Inactive)
REMARK    1  A    between atoms: C11_16  and  O3_3 
REMARK    2  A    between atoms: C1_6  and  N1_5 
REMARK    3  A    between atoms: C2_7  and  N1_5 
REMARK       I    between atoms: C4_9  and  N1_5 
REMARK    4  A    between atoms: C3_8  and  C4_9 
ROOT
HETATM    1  O1  UNK     1      19.128   2.944  30.346  1.00  0.00    -0.271 OA
HETATM    2  O4  UNK     1      18.866   5.165  29.881  1.00  0.00    -0.259 OA
HETATM    3  C3  UNK     1      18.140   4.433  32.014  1.00  0.00     0.108 A 
HETATM    4  C5  UNK     1      18.419   2.077  32.504  1.00  0.00     0.002 A 
HETATM    5  C6  UNK     1      17.994   3.417  32.874  1.00  0.00     0.037 A 
HETATM    6  C7  UNK     1      18.977   1.871  31.246  1.00  0.00     0.123 A 
HETATM    7  C10 UNK     1      18.731   4.237  30.671  1.00  0.00     0.304 A 
HETATM    8  C11 UNK     1      19.405   0.612  30.829  1.00  0.00     0.102 A 
HETATM    9  C12 UNK     1      18.286   0.988  33.368  1.00  0.00     0.014 A 
HETATM   10  C13 UNK     1      19.268  -0.470  31.698  1.00  0.00     0.040 A 
HETATM   11  C14 UNK     1      18.709  -0.283  32.964  1.00  0.00     0.004 A 
ENDROOT
BRANCH   3  12
HETATM   12  C4  UNK     1      17.680   5.747  32.480  1.00  0.00     0.259 C 
HETATM   13  O2  UNK     1      16.559   6.133  32.131  1.00  0.00    -0.267 OA
HETATM   14  N1  UNK     1      18.540   6.478  33.307  1.00  0.00    -0.348 N 
BRANCH  14  15
HETATM   15  C1  UNK     1      18.178   7.789  33.840  1.00  0.00     0.121 C 
HETATM   16  C8  UNK     1      17.353   7.630  35.102  1.00  0.00     0.026 C 
ENDBRANCH  14  15
BRANCH  14  17
HETATM   17  C2  UNK     1      19.854   5.981  33.692  1.00  0.00     0.121 C 
HETATM   18  C9  UNK     1      20.924   6.592  32.807  1.00  0.00     0.026 C 
ENDBRANCH  14  17
ENDBRANCH   3  12
BRANCH   8  19
HETATM   19  O3  UNK     1      19.948   0.425  29.597  1.00  0.00    -0.353 OA
HETATM   20  C15 UNK     1      20.640  -0.803  29.370  1.00  0.00     0.210 C 
ENDBRANCH   8  19
TORSDOF 4
ENDMDL
MODEL 9
REMARK VINA RESULT:      -7.1     24.859     26.493
REMARK  4 active torsions:
REMARK  status: ('A' for Active; 'I' for Inactive)
REMARK    1  A    between atoms: C11_16  and  O3_3 
REMARK    2  A    between atoms: C1_6  and  N1_5 
REMARK    3  A    between atoms: C2_7  and  N1_5 
REMARK       I    between atoms: C4_9  and  N1_5 
REMARK    4  A    between atoms: C3_8  and  C4_9 
ROOT
HETATM    1  O1  UNK     1      11.475   7.654   9.805  1.00  0.00    -0.271 OA
HETATM    2  O4  UNK     1      13.017   8.379  11.328  1.00  0.00    -0.259 OA
HETATM    3  C3  UNK     1      13.843   7.734   9.203  1.00  0.00     0.108 A 
HETATM    4  C5  UNK     1      12.206   6.966   7.591  1.00  0.00     0.002 A 
HETATM    5  C6  UNK     1      13.575   7.270   7.977  1.00  0.00     0.037 A 
HETATM    6  C7  UNK     1      11.187   7.165   8.516  1.00  0.00     0.123 A 
HETATM    7  C10 UNK     1      12.775   7.954  10.203  1.00  0.00     0.304 A 
HETATM    8  C11 UNK     1       9.854   6.893   8.211  1.00  0.00     0.102 A 
HETATM    9  C12 UNK     1      11.880   6.480   6.323  1.00  0.00     0.014 A 
HETATM   10  C13 UNK     1       9.537   6.408   6.944  1.00  0.00     0.040 A 
HETATM   11  C14 UNK     1      10.548   6.201   6.002  1.00  0.00     0.004 A 
ENDROOT
BRANCH   3  12
HETATM   12  C4  UNK     1      15.255   8.011   9.497  1.00  0.00     0.259 C 
HETATM   13  O2  UNK     1      15.962   7.081   9.900  1.00  0.00    -0.267 OA
HETATM   14  N1  UNK     1      15.717   9.314   9.286  1.00  0.00    -0.348 N 
BRANCH  14  15
HETATM   15  C1  UNK     1      17.105   9.697   9.531  1.00  0.00     0.121 C 
HETATM   16  C8  UNK     1      17.164  10.838  10.528  1.00  0.00     0.026 C 
ENDBRANCH  14  15
BRANCH  14  17
HETATM   17  C2  UNK     1      14.844  10.379   8.810  1.00  0.00     0.121 C 
HETATM   18  C9  UNK     1      15.424  11.011   7.559  1.00  0.00     0.026 C 
ENDBRANCH  14  17
ENDBRANCH   3  12
BRANCH   8  19
HETATM   19  O3  UNK     1       8.868   7.092   9.126  1.00  0.00    -0.353 OA
HETATM   20  C15 UNK     1       7.573   7.426   8.624  1.00  0.00     0.210 C 
ENDBRANCH   8  19
TORSDOF 4
ENDMDL
MODEL 10
REMARK VINA RESULT:      -7.1      2.182      3.461
REMARK  4 active torsions:
REMARK  status: ('A' for Active; 'I' for Inactive)
REMARK    1  A    between atoms: C11_16  and  O3_3 
REMARK    2  A    between atoms: C1_6  and  N1_5 
REMARK    3  A    between atoms: C2_7  and  N1_5 
REMARK       I    between atoms: C4_9  and  N1_5 
REMARK    4  A    between atoms: C3_8  and  C4_9 
ROOT
HETATM    1  O1  UNK     1      18.748   1.305  31.885  1.00  0.00    -0.271 OA
HETATM    2  O4  UNK     1      18.809  -0.448  33.350  1.00  0.00    -0.259 OA
HETATM    3  C3  UNK     1      18.399   1.696  34.274  1.00  0.00     0.108 A 
HETATM    4  C5  UNK     1      18.336   3.552  32.719  1.00  0.00     0.002 A 
HETATM    5  C6  UNK     1      18.245   3.008  34.064  1.00  0.00     0.037 A 
HETATM    6  C7  UNK     1      18.587   2.686  31.659  1.00  0.00     0.123 A 
HETATM    7  C10 UNK     1      18.666   0.756  33.162  1.00  0.00     0.304 A 
HETATM    8  C11 UNK     1      18.687   3.142  30.346  1.00  0.00     0.102 A 
HETATM    9  C12 UNK     1      18.182   4.915  32.453  1.00  0.00     0.014 A 
HETATM   10  C13 UNK     1      18.532   4.503  30.090  1.00  0.00     0.040 A 
HETATM   11  C14 UNK     1      18.280   5.388  31.141  1.00  0.00     0.004 A 
ENDROOT
BRANCH   3  12
HETATM   12  C4  UNK     1      18.290   1.244  35.667  1.00  0.00     0.259 C 
HETATM   13  O2  UNK     1      19.239   1.460  36.428  1.00  0.00    -0.267 OA
HETATM   14  N1  UNK     1      17.105   0.608  36.049  1.00  0.00    -0.348 N 
BRANCH  14  15
HETATM   15  C1  UNK     1      16.882   0.132  37.413  1.00  0.00     0.121 C 
HETATM   16  C8  UNK     1      17.797  -1.039  37.712  1.00  0.00     0.026 C 
ENDBRANCH  14  15
BRANCH  14  17
HETATM   17  C2  UNK     1      16.012   0.375  35.114  1.00  0.00     0.121 C 
HETATM   18  C9  UNK     1      15.883  -1.108  34.819  1.00  0.00     0.026 C 
ENDBRANCH  14  17
ENDBRANCH   3  12
BRANCH   8  19
HETATM   19  O3  UNK     1      18.932   2.284  29.319  1.00  0.00    -0.353 OA
HETATM   20  C15 UNK     1      17.808   1.843  28.558  1.00  0.00     0.210 C 
ENDBRANCH   8  19
TORSDOF 4
ENDMDL
