MODEL 1
REMARK VINA RESULT:      -9.1      0.000      0.000
REMARK  3 active torsions:
REMARK  status: ('A' for Active; 'I' for Inactive)
REMARK    1  A    between atoms: C1_7  and  N1_5 
REMARK    2  A    between atoms: C3_9  and  N1_5 
REMARK    3  A    between atoms: C6_12  and  N2_6 
ROOT
HETATM    1  O1  UNK     1      19.724  -1.605  32.853  1.00  0.00    -0.273 OA
HETATM    2  O2  UNK     1      18.893  -1.633  34.978  1.00  0.00    -0.257 OA
HETATM    3  C1  UNK     1      18.368   0.886  32.437  1.00  0.00     0.085 A 
HETATM    4  C2  UNK     1      19.170   0.258  31.357  1.00  0.00     0.027 A 
HETATM    5  C5  UNK     1      19.817  -0.959  31.605  1.00  0.00     0.092 A 
HETATM    6  C6  UNK     1      18.322   0.211  33.598  1.00  0.00     0.205 A 
HETATM    7  C10 UNK     1      19.331   0.806  30.073  1.00  0.00     0.017 A 
HETATM    8  C12 UNK     1      18.983  -1.070  33.893  1.00  0.00     0.324 A 
HETATM    9  C13 UNK     1      20.590  -1.613  30.640  1.00  0.00     0.038 A 
HETATM   10  C16 UNK     1      20.102   0.162  29.097  1.00  0.00     0.001 A 
HETATM   11  C17 UNK     1      20.732  -1.047  29.380  1.00  0.00     0.003 A 
ENDROOT
BRANCH   3  12
HETATM   12  N1  UNK     1      17.751   2.082  32.171  1.00  0.00    -0.353 N 
HETATM   13  H1  UNK     1      16.969   2.027  31.526  1.00  0.00     0.166 HD
BRANCH  12  14
HETATM   14  C3  UNK     1      18.282   3.357  32.359  1.00  0.00     0.033 A 
HETATM   15  C8  UNK     1      18.828   4.069  31.281  1.00  0.00     0.036 A 
HETATM   16  C4  UNK     1      19.358   5.345  31.468  1.00  0.00    -0.054 A 
HETATM   17  C14 UNK     1      19.933   6.072  30.297  1.00  0.00     0.049 C 
HETATM   18  C7  UNK     1      19.348   5.925  32.738  1.00  0.00    -0.056 A 
HETATM   19  C11 UNK     1      18.807   5.228  33.818  1.00  0.00     0.009 A 
HETATM   20  C15 UNK     1      19.910   7.290  32.964  1.00  0.00     0.049 C 
HETATM   21  C9  UNK     1      18.277   3.951  33.630  1.00  0.00     0.030 A 
ENDBRANCH  12  14
ENDBRANCH   3  12
BRANCH   6  22
HETATM   22  N2  UNK     1      17.560   0.783  34.662  1.00  0.00    -0.107 N 
HETATM   23  O3  UNK     1      16.332   0.802  34.523  1.00  0.00    -0.531 OA
HETATM   24  O4  UNK     1      18.188   1.213  35.635  1.00  0.00    -0.531 OA
ENDBRANCH   6  22
TORSDOF 3
ENDMDL
MODEL 2
REMARK VINA RESULT:      -8.6      4.478      8.477
REMARK  3 active torsions:
REMARK  status: ('A' for Active; 'I' for Inactive)
REMARK    1  A    between atoms: C1_7  and  N1_5 
REMARK    2  A    between atoms: C3_9  and  N1_5 
REMARK    3  A    between atoms: C6_12  and  N2_6 
ROOT
HETATM    1  O1  UNK     1      17.943  -0.578  33.307  1.00  0.00    -0.273 OA
HETATM    2  O2  UNK     1      19.290  -1.443  31.682  1.00  0.00    -0.257 OA
HETATM    3  C1  UNK     1      19.608  -1.856  35.261  1.00  0.00     0.085 A 
HETATM    4  C2  UNK     1      18.424  -1.055  35.665  1.00  0.00     0.027 A 
HETATM    5  C5  UNK     1      17.640  -0.447  34.677  1.00  0.00     0.092 A 
HETATM    6  C6  UNK     1      19.831  -1.939  33.939  1.00  0.00     0.205 A 
HETATM    7  C10 UNK     1      18.023  -0.858  36.997  1.00  0.00     0.017 A 
HETATM    8  C12 UNK     1      19.028  -1.320  32.873  1.00  0.00     0.324 A 
HETATM    9  C13 UNK     1      16.511   0.323  34.977  1.00  0.00     0.038 A 
HETATM   10  C16 UNK     1      16.894  -0.089  37.312  1.00  0.00     0.001 A 
HETATM   11  C17 UNK     1      16.139   0.501  36.303  1.00  0.00     0.003 A 
ENDROOT
BRANCH   3  12
HETATM   12  N1  UNK     1      20.364  -2.434  36.248  1.00  0.00    -0.353 N 
HETATM   13  H1  UNK     1      21.262  -1.991  36.416  1.00  0.00     0.166 HD
BRANCH  12  14
HETATM   14  C3  UNK     1      20.231  -3.726  36.755  1.00  0.00     0.033 A 
HETATM   15  C8  UNK     1      19.137  -4.525  36.394  1.00  0.00     0.036 A 
HETATM   16  C4  UNK     1      19.005  -5.819  36.900  1.00  0.00    -0.054 A 
HETATM   17  C14 UNK     1      17.826  -6.640  36.494  1.00  0.00     0.049 C 
HETATM   18  C7  UNK     1      19.966  -6.327  37.774  1.00  0.00    -0.056 A 
HETATM   19  C11 UNK     1      21.060  -5.542  38.141  1.00  0.00     0.009 A 
HETATM   20  C15 UNK     1      19.847  -7.708  38.329  1.00  0.00     0.049 C 
HETATM   21  C9  UNK     1      21.191  -4.249  37.634  1.00  0.00     0.030 A 
ENDBRANCH  12  14
ENDBRANCH   3  12
BRANCH   6  22
HETATM   22  N2  UNK     1      20.960  -2.702  33.510  1.00  0.00    -0.107 N 
HETATM   23  O3  UNK     1      20.768  -3.898  33.266  1.00  0.00    -0.531 OA
HETATM   24  O4  UNK     1      22.039  -2.106  33.416  1.00  0.00    -0.531 OA
ENDBRANCH   6  22
TORSDOF 3
ENDMDL
MODEL 3
REMARK VINA RESULT:      -8.5      2.687      4.213
REMARK  3 active torsions:
REMARK  status: ('A' for Active; 'I' for Inactive)
REMARK    1  A    between atoms: C1_7  and  N1_5 
REMARK    2  A    between atoms: C3_9  and  N1_5 
REMARK    3  A    between atoms: C6_12  and  N2_6 
ROOT
HETATM    1  O1  UNK     1      19.293   0.126  31.267  1.00  0.00    -0.273 OA
HETATM    2  O2  UNK     1      19.632   0.556  29.053  1.00  0.00    -0.257 OA
HETATM    3  C1  UNK     1      18.156   2.745  31.523  1.00  0.00     0.085 A 
HETATM    4  C2  UNK     1      18.267   1.838  32.693  1.00  0.00     0.027 A 
HETATM    5  C5  UNK     1      18.828   0.566  32.522  1.00  0.00     0.092 A 
HETATM    6  C6  UNK     1      18.622   2.258  30.361  1.00  0.00     0.205 A 
HETATM    7  C10 UNK     1      17.843   2.169  33.991  1.00  0.00     0.017 A 
HETATM    8  C12 UNK     1      19.222   0.933  30.144  1.00  0.00     0.324 A 
HETATM    9  C13 UNK     1      18.968  -0.345  33.574  1.00  0.00     0.038 A 
HETATM   10  C16 UNK     1      17.976   1.266  35.054  1.00  0.00     0.001 A 
HETATM   11  C17 UNK     1      18.538   0.010  34.846  1.00  0.00     0.003 A 
ENDROOT
BRANCH   3  12
HETATM   12  N1  UNK     1      17.595   3.982  31.716  1.00  0.00    -0.353 N 
HETATM   13  H1  UNK     1      16.836   4.213  31.083  1.00  0.00     0.166 HD
BRANCH  12  14
HETATM   14  C3  UNK     1      18.168   5.065  32.382  1.00  0.00     0.033 A 
HETATM   15  C8  UNK     1      17.426   5.803  33.315  1.00  0.00     0.036 A 
HETATM   16  C4  UNK     1      17.999   6.885  33.982  1.00  0.00    -0.054 A 
HETATM   17  C14 UNK     1      17.178   7.649  34.969  1.00  0.00     0.049 C 
HETATM   18  C7  UNK     1      19.323   7.242  33.723  1.00  0.00    -0.056 A 
HETATM   19  C11 UNK     1      20.072   6.516  32.797  1.00  0.00     0.009 A 
HETATM   20  C15 UNK     1      19.959   8.397  34.424  1.00  0.00     0.049 C 
HETATM   21  C9  UNK     1      19.498   5.433  32.130  1.00  0.00     0.030 A 
ENDBRANCH  12  14
ENDBRANCH   3  12
BRANCH   6  22
HETATM   22  N2  UNK     1      18.534   3.102  29.212  1.00  0.00    -0.107 N 
HETATM   23  O3  UNK     1      17.922   2.655  28.235  1.00  0.00    -0.531 OA
HETATM   24  O4  UNK     1      19.075   4.210  29.285  1.00  0.00    -0.531 OA
ENDBRANCH   6  22
TORSDOF 3
ENDMDL
MODEL 4
REMARK VINA RESULT:      -8.3      1.887      3.813
REMARK  3 active torsions:
REMARK  status: ('A' for Active; 'I' for Inactive)
REMARK    1  A    between atoms: C1_7  and  N1_5 
REMARK    2  A    between atoms: C3_9  and  N1_5 
REMARK    3  A    between atoms: C6_12  and  N2_6 
ROOT
HETATM    1  O1  UNK     1      19.395  -1.605  34.281  1.00  0.00    -0.273 OA
HETATM    2  O2  UNK     1      20.446  -1.847  32.271  1.00  0.00    -0.257 OA
HETATM    3  C1  UNK     1      18.230   0.821  33.294  1.00  0.00     0.085 A 
HETATM    4  C2  UNK     1      17.951   0.339  34.671  1.00  0.00     0.027 A 
HETATM    5  C5  UNK     1      18.541  -0.852  35.111  1.00  0.00     0.092 A 
HETATM    6  C6  UNK     1      19.055   0.053  32.563  1.00  0.00     0.205 A 
HETATM    7  C10 UNK     1      17.121   1.006  35.587  1.00  0.00     0.017 A 
HETATM    8  C12 UNK     1      19.697  -1.199  32.992  1.00  0.00     0.324 A 
HETATM    9  C13 UNK     1      18.328  -1.373  36.392  1.00  0.00     0.038 A 
HETATM   10  C16 UNK     1      16.899   0.497  36.874  1.00  0.00     0.001 A 
HETATM   11  C17 UNK     1      17.502  -0.691  37.276  1.00  0.00     0.003 A 
ENDROOT
BRANCH   3  12
HETATM   12  N1  UNK     1      17.633   1.986  32.885  1.00  0.00    -0.353 N 
HETATM   13  H1  UNK     1      16.842   1.867  32.260  1.00  0.00     0.166 HD
BRANCH  12  14
HETATM   14  C3  UNK     1      18.192   3.263  32.905  1.00  0.00     0.033 A 
HETATM   15  C8  UNK     1      18.437   3.954  31.710  1.00  0.00     0.036 A 
HETATM   16  C4  UNK     1      18.995   5.232  31.730  1.00  0.00    -0.054 A 
HETATM   17  C14 UNK     1      19.244   5.937  30.437  1.00  0.00     0.049 C 
HETATM   18  C7  UNK     1      19.314   5.835  32.947  1.00  0.00    -0.056 A 
HETATM   19  C11 UNK     1      19.073   5.159  34.144  1.00  0.00     0.009 A 
HETATM   20  C15 UNK     1      19.911   7.203  32.995  1.00  0.00     0.049 C 
HETATM   21  C9  UNK     1      18.516   3.880  34.123  1.00  0.00     0.030 A 
ENDBRANCH  12  14
ENDBRANCH   3  12
BRANCH   6  22
HETATM   22  N2  UNK     1      19.348   0.484  31.233  1.00  0.00    -0.107 N 
HETATM   23  O3  UNK     1      20.540   0.633  30.943  1.00  0.00    -0.531 OA
HETATM   24  O4  UNK     1      18.388   0.674  30.480  1.00  0.00    -0.531 OA
ENDBRANCH   6  22
TORSDOF 3
ENDMDL
MODEL 5
REMARK VINA RESULT:      -8.1      4.217      7.755
REMARK  3 active torsions:
REMARK  status: ('A' for Active; 'I' for Inactive)
REMARK    1  A    between atoms: C1_7  and  N1_5 
REMARK    2  A    between atoms: C3_9  and  N1_5 
REMARK    3  A    between atoms: C6_12  and  N2_6 
ROOT
HETATM    1  O1  UNK     1      17.728  -0.427  33.559  1.00  0.00    -0.273 OA
HETATM    2  O2  UNK     1      16.439   0.390  35.255  1.00  0.00    -0.257 OA
HETATM    3  C1  UNK     1      19.366  -1.715  35.528  1.00  0.00     0.085 A 
HETATM    4  C2  UNK     1      19.671  -1.831  34.079  1.00  0.00     0.027 A 
HETATM    5  C5  UNK     1      18.843  -1.187  33.152  1.00  0.00     0.092 A 
HETATM    6  C6  UNK     1      18.292  -0.972  35.840  1.00  0.00     0.205 A 
HETATM    7  C10 UNK     1      20.755  -2.557  33.556  1.00  0.00     0.017 A 
HETATM    8  C12 UNK     1      17.403  -0.277  34.897  1.00  0.00     0.324 A 
HETATM    9  C13 UNK     1      19.062  -1.249  31.772  1.00  0.00     0.038 A 
HETATM   10  C16 UNK     1      20.987  -2.628  32.176  1.00  0.00     0.001 A 
HETATM   11  C17 UNK     1      20.141  -1.974  31.285  1.00  0.00     0.003 A 
ENDROOT
BRANCH   3  12
HETATM   12  N1  UNK     1      20.189  -2.363  36.414  1.00  0.00    -0.353 N 
HETATM   13  H1  UNK     1      21.089  -1.919  36.568  1.00  0.00     0.166 HD
BRANCH  12  14
HETATM   14  C3  UNK     1      20.105  -3.696  36.811  1.00  0.00     0.033 A 
HETATM   15  C8  UNK     1      19.023  -4.494  36.411  1.00  0.00     0.036 A 
HETATM   16  C4  UNK     1      18.941  -5.829  36.807  1.00  0.00    -0.054 A 
HETATM   17  C14 UNK     1      17.772  -6.647  36.364  1.00  0.00     0.049 C 
HETATM   18  C7  UNK     1      19.941  -6.382  37.608  1.00  0.00    -0.056 A 
HETATM   19  C11 UNK     1      21.023  -5.600  38.011  1.00  0.00     0.009 A 
HETATM   20  C15 UNK     1      19.875  -7.809  38.044  1.00  0.00     0.049 C 
HETATM   21  C9  UNK     1      21.105  -4.265  37.615  1.00  0.00     0.030 A 
ENDBRANCH  12  14
ENDBRANCH   3  12
BRANCH   6  22
HETATM   22  N2  UNK     1      17.967  -0.835  37.224  1.00  0.00    -0.107 N 
HETATM   23  O3  UNK     1      18.335   0.201  37.787  1.00  0.00    -0.531 OA
HETATM   24  O4  UNK     1      17.343  -1.764  37.749  1.00  0.00    -0.531 OA
ENDBRANCH   6  22
TORSDOF 3
ENDMDL
MODEL 6
REMARK VINA RESULT:      -8.0      1.194      2.076
REMARK  3 active torsions:
REMARK  status: ('A' for Active; 'I' for Inactive)
REMARK    1  A    between atoms: C1_7  and  N1_5 
REMARK    2  A    between atoms: C3_9  and  N1_5 
REMARK    3  A    between atoms: C6_12  and  N2_6 
ROOT
HETATM    1  O1  UNK     1      19.765  -1.760  34.769  1.00  0.00    -0.273 OA
HETATM    2  O2  UNK     1      19.006  -1.258  36.860  1.00  0.00    -0.257 OA
HETATM    3  C1  UNK     1      18.225   0.439  33.764  1.00  0.00     0.085 A 
HETATM    4  C2  UNK     1      19.035  -0.411  32.855  1.00  0.00     0.027 A 
HETATM    5  C5  UNK     1      19.774  -1.474  33.389  1.00  0.00     0.092 A 
HETATM    6  C6  UNK     1      18.264   0.104  35.064  1.00  0.00     0.205 A 
HETATM    7  C10 UNK     1      19.117  -0.225  31.464  1.00  0.00     0.017 A 
HETATM    8  C12 UNK     1      19.021  -1.007  35.661  1.00  0.00     0.324 A 
HETATM    9  C13 UNK     1      20.560  -2.319  32.600  1.00  0.00     0.038 A 
HETATM   10  C16 UNK     1      19.901  -1.063  30.661  1.00  0.00     0.001 A 
HETATM   11  C17 UNK     1      20.622  -2.110  31.229  1.00  0.00     0.003 A 
ENDROOT
BRANCH   3  12
HETATM   12  N1  UNK     1      17.518   1.479  33.216  1.00  0.00    -0.353 N 
HETATM   13  H1  UNK     1      16.579   1.244  32.908  1.00  0.00     0.166 HD
BRANCH  12  14
HETATM   14  C3  UNK     1      18.039   2.661  32.694  1.00  0.00     0.033 A 
HETATM   15  C8  UNK     1      18.349   3.738  33.537  1.00  0.00     0.036 A 
HETATM   16  C4  UNK     1      18.872   4.921  33.015  1.00  0.00    -0.054 A 
HETATM   17  C14 UNK     1      19.188   6.048  33.943  1.00  0.00     0.049 C 
HETATM   18  C7  UNK     1      19.091   5.041  31.642  1.00  0.00    -0.056 A 
HETATM   19  C11 UNK     1      18.788   3.976  30.792  1.00  0.00     0.009 A 
HETATM   20  C15 UNK     1      19.650   6.297  31.059  1.00  0.00     0.049 C 
HETATM   21  C9  UNK     1      18.265   2.794  31.315  1.00  0.00     0.030 A 
ENDBRANCH  12  14
ENDBRANCH   3  12
BRANCH   6  22
HETATM   22  N2  UNK     1      17.496   0.898  35.971  1.00  0.00    -0.107 N 
HETATM   23  O3  UNK     1      18.072   1.850  36.507  1.00  0.00    -0.531 OA
HETATM   24  O4  UNK     1      16.318   0.569  36.147  1.00  0.00    -0.531 OA
ENDBRANCH   6  22
TORSDOF 3
ENDMDL
MODEL 7
REMARK VINA RESULT:      -8.0     12.699     14.588
REMARK  3 active torsions:
REMARK  status: ('A' for Active; 'I' for Inactive)
REMARK    1  A    between atoms: C1_7  and  N1_5 
REMARK    2  A    between atoms: C3_9  and  N1_5 
REMARK    3  A    between atoms: C6_12  and  N2_6 
ROOT
HETATM    1  O1  UNK     1      28.466  -5.832  39.774  1.00  0.00    -0.273 OA
HETATM    2  O2  UNK     1      29.525  -3.815  39.896  1.00  0.00    -0.257 OA
HETATM    3  C1  UNK     1      29.972  -6.394  37.401  1.00  0.00     0.085 A 
HETATM    4  C2  UNK     1      28.988  -7.369  37.936  1.00  0.00     0.027 A 
HETATM    5  C5  UNK     1      28.275  -7.054  39.099  1.00  0.00     0.092 A 
HETATM    6  C6  UNK     1      30.097  -5.251  38.095  1.00  0.00     0.205 A 
HETATM    7  C10 UNK     1      28.711  -8.615  37.347  1.00  0.00     0.017 A 
HETATM    8  C12 UNK     1      29.363  -4.882  39.315  1.00  0.00     0.324 A 
HETATM    9  C13 UNK     1      27.333  -7.918  39.665  1.00  0.00     0.038 A 
HETATM   10  C16 UNK     1      27.769  -9.491  37.902  1.00  0.00     0.001 A 
HETATM   11  C17 UNK     1      27.081  -9.143  39.061  1.00  0.00     0.003 A 
ENDROOT
BRANCH   3  12
HETATM   12  N1  UNK     1      30.663  -6.732  36.265  1.00  0.00    -0.353 N 
HETATM   13  H1  UNK     1      31.598  -7.094  36.423  1.00  0.00     0.166 HD
BRANCH  12  14
HETATM   14  C3  UNK     1      30.403  -6.293  34.967  1.00  0.00     0.033 A 
HETATM   15  C8  UNK     1      29.137  -6.475  34.392  1.00  0.00     0.036 A 
HETATM   16  C4  UNK     1      28.877  -6.034  33.094  1.00  0.00    -0.054 A 
HETATM   17  C14 UNK     1      27.518  -6.247  32.514  1.00  0.00     0.049 C 
HETATM   18  C7  UNK     1      29.882  -5.407  32.357  1.00  0.00    -0.056 A 
HETATM   19  C11 UNK     1      31.145  -5.219  32.918  1.00  0.00     0.009 A 
HETATM   20  C15 UNK     1      29.627  -4.926  30.965  1.00  0.00     0.049 C 
HETATM   21  C9  UNK     1      31.404  -5.660  34.216  1.00  0.00     0.030 A 
ENDBRANCH  12  14
ENDBRANCH   3  12
BRANCH   6  22
HETATM   22  N2  UNK     1      31.033  -4.287  37.612  1.00  0.00    -0.107 N 
HETATM   23  O3  UNK     1      32.231  -4.576  37.701  1.00  0.00    -0.531 OA
HETATM   24  O4  UNK     1      30.571  -3.241  37.143  1.00  0.00    -0.531 OA
ENDBRANCH   6  22
TORSDOF 3
ENDMDL
MODEL 8
REMARK VINA RESULT:      -8.0      4.531      8.168
REMARK  3 active torsions:
REMARK  status: ('A' for Active; 'I' for Inactive)
REMARK    1  A    between atoms: C1_7  and  N1_5 
REMARK    2  A    between atoms: C3_9  and  N1_5 
REMARK    3  A    between atoms: C6_12  and  N2_6 
ROOT
HETATM    1  O1  UNK     1      16.691  10.529  33.471  1.00  0.00    -0.273 OA
HETATM    2  O2  UNK     1      14.527  10.088  32.901  1.00  0.00    -0.257 OA
HETATM    3  C1  UNK     1      17.104   7.709  33.781  1.00  0.00     0.085 A 
HETATM    4  C2  UNK     1      18.201   8.678  34.029  1.00  0.00     0.027 A 
HETATM    5  C5  UNK     1      17.955  10.046  33.864  1.00  0.00     0.092 A 
HETATM    6  C6  UNK     1      15.927   8.242  33.413  1.00  0.00     0.205 A 
HETATM    7  C10 UNK     1      19.499   8.315  34.428  1.00  0.00     0.017 A 
HETATM    8  C12 UNK     1      15.629   9.671  33.235  1.00  0.00     0.324 A 
HETATM    9  C13 UNK     1      18.935  11.021  34.077  1.00  0.00     0.038 A 
HETATM   10  C16 UNK     1      20.491   9.280  34.645  1.00  0.00     0.001 A 
HETATM   11  C17 UNK     1      20.209  10.633  34.470  1.00  0.00     0.003 A 
ENDROOT
BRANCH   3  12
HETATM   12  N1  UNK     1      17.373   6.373  33.942  1.00  0.00    -0.353 N 
HETATM   13  H1  UNK     1      17.550   6.084  34.899  1.00  0.00     0.166 HD
BRANCH  12  14
HETATM   14  C3  UNK     1      17.801   5.482  32.959  1.00  0.00     0.033 A 
HETATM   15  C8  UNK     1      18.251   5.951  31.717  1.00  0.00     0.036 A 
HETATM   16  C4  UNK     1      18.680   5.059  30.734  1.00  0.00    -0.054 A 
HETATM   17  C14 UNK     1      19.152   5.596  29.422  1.00  0.00     0.049 C 
HETATM   18  C7  UNK     1      18.664   3.687  30.983  1.00  0.00    -0.056 A 
HETATM   19  C11 UNK     1      18.219   3.207  32.215  1.00  0.00     0.009 A 
HETATM   20  C15 UNK     1      19.119   2.712  29.947  1.00  0.00     0.049 C 
HETATM   21  C9  UNK     1      17.790   4.100  33.198  1.00  0.00     0.030 A 
ENDBRANCH  12  14
ENDBRANCH   3  12
BRANCH   6  22
HETATM   22  N2  UNK     1      14.845   7.341  33.166  1.00  0.00    -0.107 N 
HETATM   23  O3  UNK     1      14.115   7.067  34.125  1.00  0.00    -0.531 OA
HETATM   24  O4  UNK     1      14.726   6.909  32.015  1.00  0.00    -0.531 OA
ENDBRANCH   6  22
TORSDOF 3
ENDMDL
MODEL 9
REMARK VINA RESULT:      -7.9      2.053      4.178
REMARK  3 active torsions:
REMARK  status: ('A' for Active; 'I' for Inactive)
REMARK    1  A    between atoms: C1_7  and  N1_5 
REMARK    2  A    between atoms: C3_9  and  N1_5 
REMARK    3  A    between atoms: C6_12  and  N2_6 
ROOT
HETATM    1  O1  UNK     1      19.829  -1.845  34.984  1.00  0.00    -0.273 OA
HETATM    2  O2  UNK     1      21.342  -2.600  33.453  1.00  0.00    -0.257 OA
HETATM    3  C1  UNK     1      18.650  -0.246  32.917  1.00  0.00     0.085 A 
HETATM    4  C2  UNK     1      18.116  -0.227  34.303  1.00  0.00     0.027 A 
HETATM    5  C5  UNK     1      18.722  -1.026  35.281  1.00  0.00     0.092 A 
HETATM    6  C6  UNK     1      19.708  -1.048  32.711  1.00  0.00     0.205 A 
HETATM    7  C10 UNK     1      17.021   0.552  34.716  1.00  0.00     0.017 A 
HETATM    8  C12 UNK     1      20.374  -1.895  33.712  1.00  0.00     0.324 A 
HETATM    9  C13 UNK     1      18.278  -1.064  36.607  1.00  0.00     0.038 A 
HETATM   10  C16 UNK     1      16.566   0.524  36.041  1.00  0.00     0.001 A 
HETATM   11  C17 UNK     1      17.193  -0.284  36.986  1.00  0.00     0.003 A 
ENDROOT
BRANCH   3  12
HETATM   12  N1  UNK     1      18.032   0.539  31.977  1.00  0.00    -0.353 N 
HETATM   13  H1  UNK     1      17.560   0.030  31.236  1.00  0.00     0.166 HD
BRANCH  12  14
HETATM   14  C3  UNK     1      18.293   1.882  31.708  1.00  0.00     0.033 A 
HETATM   15  C8  UNK     1      18.124   2.855  32.703  1.00  0.00     0.036 A 
HETATM   16  C4  UNK     1      18.386   4.199  32.434  1.00  0.00    -0.054 A 
HETATM   17  C14 UNK     1      18.193   5.208  33.518  1.00  0.00     0.049 C 
HETATM   18  C7  UNK     1      18.820   4.584  31.165  1.00  0.00    -0.056 A 
HETATM   19  C11 UNK     1      18.993   3.625  30.166  1.00  0.00     0.009 A 
HETATM   20  C15 UNK     1      19.107   6.016  30.852  1.00  0.00     0.049 C 
HETATM   21  C9  UNK     1      18.731   2.282  30.436  1.00  0.00     0.030 A 
ENDBRANCH  12  14
ENDBRANCH   3  12
BRANCH   6  22
HETATM   22  N2  UNK     1      20.251  -1.092  31.391  1.00  0.00    -0.107 N 
HETATM   23  O3  UNK     1      19.820  -1.971  30.637  1.00  0.00    -0.531 OA
HETATM   24  O4  UNK     1      21.109  -0.249  31.108  1.00  0.00    -0.531 OA
ENDBRANCH   6  22
TORSDOF 3
ENDMDL
MODEL 10
REMARK VINA RESULT:      -7.8     12.146     14.306
REMARK  3 active torsions:
REMARK  status: ('A' for Active; 'I' for Inactive)
REMARK    1  A    between atoms: C1_7  and  N1_5 
REMARK    2  A    between atoms: C3_9  and  N1_5 
REMARK    3  A    between atoms: C6_12  and  N2_6 
ROOT
HETATM    1  O1  UNK     1      30.277  -4.630  38.077  1.00  0.00    -0.273 OA
HETATM    2  O2  UNK     1      28.569  -5.468  39.335  1.00  0.00    -0.257 OA
HETATM    3  C1  UNK     1      29.726  -6.650  36.119  1.00  0.00     0.085 A 
HETATM    4  C2  UNK     1      30.825  -5.671  35.925  1.00  0.00     0.027 A 
HETATM    5  C5  UNK     1      31.058  -4.700  36.906  1.00  0.00     0.092 A 
HETATM    6  C6  UNK     1      29.027  -6.523  37.259  1.00  0.00     0.205 A 
HETATM    7  C10 UNK     1      31.670  -5.647  34.802  1.00  0.00     0.017 A 
HETATM    8  C12 UNK     1      29.245  -5.522  38.314  1.00  0.00     0.324 A 
HETATM    9  C13 UNK     1      32.073  -3.744  36.796  1.00  0.00     0.038 A 
HETATM   10  C16 UNK     1      32.691  -4.695  34.679  1.00  0.00     0.001 A 
HETATM   11  C17 UNK     1      32.892  -3.744  35.675  1.00  0.00     0.003 A 
ENDROOT
BRANCH   3  12
HETATM   12  N1  UNK     1      29.513  -7.586  35.139  1.00  0.00    -0.353 N 
HETATM   13  H1  UNK     1      30.138  -8.386  35.167  1.00  0.00     0.166 HD
BRANCH  12  14
HETATM   14  C3  UNK     1      28.841  -7.396  33.933  1.00  0.00     0.033 A 
HETATM   15  C8  UNK     1      28.966  -8.326  32.891  1.00  0.00     0.036 A 
HETATM   16  C4  UNK     1      28.291  -8.137  31.685  1.00  0.00    -0.054 A 
HETATM   17  C14 UNK     1      28.450  -9.148  30.597  1.00  0.00     0.049 C 
HETATM   18  C7  UNK     1      27.483  -7.013  31.507  1.00  0.00    -0.056 A 
HETATM   19  C11 UNK     1      27.350  -6.080  32.536  1.00  0.00     0.009 A 
HETATM   20  C15 UNK     1      26.751  -6.788  30.225  1.00  0.00     0.049 C 
HETATM   21  C9  UNK     1      28.025  -6.271  33.742  1.00  0.00     0.030 A 
ENDBRANCH  12  14
ENDBRANCH   3  12
BRANCH   6  22
HETATM   22  N2  UNK     1      27.961  -7.448  37.484  1.00  0.00    -0.107 N 
HETATM   23  O3  UNK     1      28.239  -8.486  38.093  1.00  0.00    -0.531 OA
HETATM   24  O4  UNK     1      26.847  -7.136  37.051  1.00  0.00    -0.531 OA
ENDBRANCH   6  22
TORSDOF 3
ENDMDL
