MODEL 1
REMARK VINA RESULT:      -9.1      0.000      0.000
REMARK  2 active torsions:
REMARK  status: ('A' for Active; 'I' for Inactive)
REMARK       I    between atoms: C6_11  and  N1_4 
REMARK    1  A    between atoms: C9_14  and  N1_4 
REMARK    2  A    between atoms: C3_8  and  C6_11 
ROOT
HETATM    1  O1  UNK     1      19.129   1.415  28.778  1.00  0.00    -0.274 OA
HETATM    2  O3  UNK     1      18.324   3.547  28.957  1.00  0.00    -0.259 OA
HETATM    3  C1  UNK     1      19.589   0.132  30.791  1.00  0.00    -0.001 A 
HETATM    4  C2  UNK     1      19.568   0.233  29.403  1.00  0.00     0.089 A 
HETATM    5  C3  UNK     1      18.737   2.392  30.985  1.00  0.00     0.108 A 
HETATM    6  C4  UNK     1      19.153   1.270  31.586  1.00  0.00     0.037 A 
HETATM    7  C5  UNK     1      20.032  -1.057  31.375  1.00  0.00     0.014 A 
HETATM    8  C7  UNK     1      18.704   2.521  29.511  1.00  0.00     0.304 A 
HETATM    9  C8  UNK     1      19.973  -0.820  28.586  1.00  0.00     0.038 A 
HETATM   10  C10 UNK     1      20.442  -2.121  30.567  1.00  0.00     0.001 A 
HETATM   11  C11 UNK     1      20.413  -2.003  29.176  1.00  0.00     0.003 A 
ENDROOT
BRANCH   5  12
HETATM   12  C6  UNK     1      18.316   3.483  31.872  1.00  0.00     0.263 C 
HETATM   13  O2  UNK     1      17.608   3.239  32.847  1.00  0.00    -0.267 OA
HETATM   14  N1  UNK     1      18.807   4.714  31.457  1.00  0.00    -0.307 N 
HETATM   15  H4  UNK     1      19.401   4.761  30.634  1.00  0.00     0.170 HD
BRANCH  14  16
HETATM   16  C9  UNK     1      18.601   5.977  32.066  1.00  0.00     0.130 A 
HETATM   17  C13 UNK     1      19.600   6.437  32.895  1.00  0.00     0.051 A 
HETATM   18  C14 UNK     1      19.409   7.677  33.497  1.00  0.00     0.012 A 
HETATM   19  C12 UNK     1      18.243   8.391  33.247  1.00  0.00    -0.044 A 
HETATM   20  C15 UNK     1      17.307   7.828  32.395  1.00  0.00     0.125 A 
HETATM   21  C16 UNK     1      18.010   9.720  33.874  1.00  0.00     0.049 C 
HETATM   22  N2  UNK     1      17.457   6.627  31.792  1.00  0.00    -0.243 NA
ENDBRANCH  14  16
ENDBRANCH   5  12
TORSDOF 2
ENDMDL
MODEL 2
REMARK VINA RESULT:      -9.0      8.039     11.704
REMARK  2 active torsions:
REMARK  status: ('A' for Active; 'I' for Inactive)
REMARK       I    between atoms: C6_11  and  N1_4 
REMARK    1  A    between atoms: C9_14  and  N1_4 
REMARK    2  A    between atoms: C3_8  and  C6_11 
ROOT
HETATM    1  O1  UNK     1      19.509  -1.159  34.777  1.00  0.00    -0.274 OA
HETATM    2  O3  UNK     1      20.623  -3.073  34.212  1.00  0.00    -0.259 OA
HETATM    3  C1  UNK     1      18.522  -0.952  36.989  1.00  0.00    -0.001 A 
HETATM    4  C2  UNK     1      18.782  -0.420  35.730  1.00  0.00     0.089 A 
HETATM    5  C3  UNK     1      19.702  -2.983  36.394  1.00  0.00     0.108 A 
HETATM    6  C4  UNK     1      19.012  -2.285  37.305  1.00  0.00     0.037 A 
HETATM    7  C5  UNK     1      17.797  -0.190  37.907  1.00  0.00     0.014 A 
HETATM    8  C7  UNK     1      19.991  -2.437  35.049  1.00  0.00     0.304 A 
HETATM    9  C8  UNK     1      18.340   0.850  35.365  1.00  0.00     0.038 A 
HETATM   10  C10 UNK     1      17.347   1.087  37.555  1.00  0.00     0.001 A 
HETATM   11  C11 UNK     1      17.618   1.605  36.287  1.00  0.00     0.003 A 
ENDROOT
BRANCH   5  12
HETATM   12  C6  UNK     1      20.154  -4.317  36.806  1.00  0.00     0.263 C 
HETATM   13  O2  UNK     1      21.351  -4.524  36.994  1.00  0.00    -0.267 OA
HETATM   14  N1  UNK     1      19.100  -5.211  36.933  1.00  0.00    -0.307 N 
HETATM   15  H4  UNK     1      18.151  -4.890  36.761  1.00  0.00     0.170 HD
BRANCH  14  16
HETATM   16  C9  UNK     1      19.165  -6.576  37.309  1.00  0.00     0.130 A 
HETATM   17  C13 UNK     1      19.586  -6.849  38.591  1.00  0.00     0.051 A 
HETATM   18  C14 UNK     1      19.651  -8.185  38.971  1.00  0.00     0.012 A 
HETATM   19  C12 UNK     1      19.298  -9.178  38.063  1.00  0.00    -0.044 A 
HETATM   20  C15 UNK     1      18.888  -8.784  36.799  1.00  0.00     0.125 A 
HETATM   21  C16 UNK     1      19.355 -10.615  38.439  1.00  0.00     0.049 C 
HETATM   22  N2  UNK     1      18.812  -7.497  36.394  1.00  0.00    -0.243 NA
ENDBRANCH  14  16
ENDBRANCH   5  12
TORSDOF 2
ENDMDL
MODEL 3
REMARK VINA RESULT:      -8.7      8.462     10.289
REMARK  2 active torsions:
REMARK  status: ('A' for Active; 'I' for Inactive)
REMARK       I    between atoms: C6_11  and  N1_4 
REMARK    1  A    between atoms: C9_14  and  N1_4 
REMARK    2  A    between atoms: C3_8  and  C6_11 
ROOT
HETATM    1  O1  UNK     1      20.002  -7.856  35.690  1.00  0.00    -0.274 OA
HETATM    2  O3  UNK     1      20.189  -5.913  34.501  1.00  0.00    -0.259 OA
HETATM    3  C1  UNK     1      19.886  -7.772  38.117  1.00  0.00    -0.001 A 
HETATM    4  C2  UNK     1      19.898  -8.506  36.935  1.00  0.00     0.089 A 
HETATM    5  C3  UNK     1      20.085  -5.710  36.859  1.00  0.00     0.108 A 
HETATM    6  C4  UNK     1      19.985  -6.322  38.046  1.00  0.00     0.037 A 
HETATM    7  C5  UNK     1      19.781  -8.452  39.332  1.00  0.00     0.014 A 
HETATM    8  C7  UNK     1      20.098  -6.470  35.590  1.00  0.00     0.304 A 
HETATM    9  C8  UNK     1      19.807  -9.896  36.934  1.00  0.00     0.038 A 
HETATM   10  C10 UNK     1      19.689  -9.847  39.347  1.00  0.00     0.001 A 
HETATM   11  C11 UNK     1      19.702 -10.567  38.150  1.00  0.00     0.003 A 
ENDROOT
BRANCH   5  12
HETATM   12  C6  UNK     1      20.179  -4.246  36.891  1.00  0.00     0.263 C 
HETATM   13  O2  UNK     1      21.260  -3.709  37.124  1.00  0.00    -0.267 OA
HETATM   14  N1  UNK     1      18.957  -3.637  36.640  1.00  0.00    -0.307 N 
HETATM   15  H4  UNK     1      18.144  -4.215  36.443  1.00  0.00     0.170 HD
BRANCH  14  16
HETATM   16  C9  UNK     1      18.676  -2.249  36.594  1.00  0.00     0.130 A 
HETATM   17  C13 UNK     1      18.118  -1.690  37.722  1.00  0.00     0.051 A 
HETATM   18  C14 UNK     1      17.841  -0.327  37.688  1.00  0.00     0.012 A 
HETATM   19  C12 UNK     1      18.128   0.407  36.542  1.00  0.00    -0.044 A 
HETATM   20  C15 UNK     1      18.689  -0.263  35.467  1.00  0.00     0.125 A 
HETATM   21  C16 UNK     1      17.844   1.865  36.476  1.00  0.00     0.049 C 
HETATM   22  N2  UNK     1      18.973  -1.585  35.463  1.00  0.00    -0.243 NA
ENDBRANCH  14  16
ENDBRANCH   5  12
TORSDOF 2
ENDMDL
MODEL 4
REMARK VINA RESULT:      -8.6     13.680     16.225
REMARK  2 active torsions:
REMARK  status: ('A' for Active; 'I' for Inactive)
REMARK       I    between atoms: C6_11  and  N1_4 
REMARK    1  A    between atoms: C9_14  and  N1_4 
REMARK    2  A    between atoms: C3_8  and  C6_11 
ROOT
HETATM    1  O1  UNK     1      19.277  -2.438  13.013  1.00  0.00    -0.274 OA
HETATM    2  O3  UNK     1      19.310  -0.469  14.173  1.00  0.00    -0.259 OA
HETATM    3  C1  UNK     1      18.337  -4.427  14.048  1.00  0.00    -0.001 A 
HETATM    4  C2  UNK     1      18.945  -3.806  12.962  1.00  0.00     0.089 A 
HETATM    5  C3  UNK     1      18.371  -2.342  15.281  1.00  0.00     0.108 A 
HETATM    6  C4  UNK     1      18.052  -3.641  15.239  1.00  0.00     0.037 A 
HETATM    7  C5  UNK     1      18.023  -5.785  13.960  1.00  0.00     0.014 A 
HETATM    8  C7  UNK     1      19.016  -1.660  14.138  1.00  0.00     0.304 A 
HETATM    9  C8  UNK     1      19.245  -4.502  11.793  1.00  0.00     0.038 A 
HETATM   10  C10 UNK     1      18.319  -6.496  12.794  1.00  0.00     0.001 A 
HETATM   11  C11 UNK     1      18.928  -5.856  11.712  1.00  0.00     0.003 A 
ENDROOT
BRANCH   5  12
HETATM   12  C6  UNK     1      18.042  -1.635  16.525  1.00  0.00     0.263 C 
HETATM   13  O2  UNK     1      16.935  -1.784  17.039  1.00  0.00    -0.267 OA
HETATM   14  N1  UNK     1      19.094  -0.847  16.973  1.00  0.00    -0.307 N 
HETATM   15  H4  UNK     1      19.965  -0.836  16.450  1.00  0.00     0.170 HD
BRANCH  14  16
HETATM   16  C9  UNK     1      19.131  -0.030  18.130  1.00  0.00     0.130 A 
HETATM   17  C13 UNK     1      19.141   1.332  17.930  1.00  0.00     0.051 A 
HETATM   18  C14 UNK     1      19.175   2.143  19.060  1.00  0.00     0.012 A 
HETATM   19  C12 UNK     1      19.198   1.563  20.324  1.00  0.00    -0.044 A 
HETATM   20  C15 UNK     1      19.184   0.180  20.403  1.00  0.00     0.125 A 
HETATM   21  C16 UNK     1      19.232   2.402  21.551  1.00  0.00     0.049 C 
HETATM   22  N2  UNK     1      19.151  -0.640  19.328  1.00  0.00    -0.243 NA
ENDBRANCH  14  16
ENDBRANCH   5  12
TORSDOF 2
ENDMDL
MODEL 5
REMARK VINA RESULT:      -8.6      1.412      2.291
REMARK  2 active torsions:
REMARK  status: ('A' for Active; 'I' for Inactive)
REMARK       I    between atoms: C6_11  and  N1_4 
REMARK    1  A    between atoms: C9_14  and  N1_4 
REMARK    2  A    between atoms: C3_8  and  C6_11 
ROOT
HETATM    1  O1  UNK     1      18.731   0.470  32.655  1.00  0.00    -0.274 OA
HETATM    2  O3  UNK     1      17.880   2.339  33.658  1.00  0.00    -0.259 OA
HETATM    3  C1  UNK     1      19.555   0.602  30.372  1.00  0.00    -0.001 A 
HETATM    4  C2  UNK     1      19.309  -0.138  31.524  1.00  0.00     0.089 A 
HETATM    5  C3  UNK     1      18.654   2.585  31.432  1.00  0.00     0.108 A 
HETATM    6  C4  UNK     1      19.204   2.014  30.354  1.00  0.00     0.037 A 
HETATM    7  C5  UNK     1      20.130  -0.036  29.270  1.00  0.00     0.014 A 
HETATM    8  C7  UNK     1      18.384   1.818  32.668  1.00  0.00     0.304 A 
HETATM    9  C8  UNK     1      19.622  -1.493  31.606  1.00  0.00     0.038 A 
HETATM   10  C10 UNK     1      20.449  -1.395  29.338  1.00  0.00     0.001 A 
HETATM   11  C11 UNK     1      20.195  -2.122  30.503  1.00  0.00     0.003 A 
ENDROOT
BRANCH   5  12
HETATM   12  C6  UNK     1      18.335   4.014  31.317  1.00  0.00     0.263 C 
HETATM   13  O2  UNK     1      18.638   4.626  30.294  1.00  0.00    -0.267 OA
HETATM   14  N1  UNK     1      17.699   4.501  32.450  1.00  0.00    -0.307 N 
HETATM   15  H4  UNK     1      17.495   3.867  33.218  1.00  0.00     0.170 HD
BRANCH  14  16
HETATM   16  C9  UNK     1      17.251   5.824  32.688  1.00  0.00     0.130 A 
HETATM   17  C13 UNK     1      18.119   6.666  33.347  1.00  0.00     0.051 A 
HETATM   18  C14 UNK     1      17.689   7.968  33.583  1.00  0.00     0.012 A 
HETATM   19  C12 UNK     1      16.427   8.365  33.157  1.00  0.00    -0.044 A 
HETATM   20  C15 UNK     1      15.639   7.431  32.503  1.00  0.00     0.125 A 
HETATM   21  C16 UNK     1      15.940   9.750  33.393  1.00  0.00     0.049 C 
HETATM   22  N2  UNK     1      16.022   6.158  32.255  1.00  0.00    -0.243 NA
ENDBRANCH  14  16
ENDBRANCH   5  12
TORSDOF 2
ENDMDL
MODEL 6
REMARK VINA RESULT:      -8.5      7.952     11.372
REMARK  2 active torsions:
REMARK  status: ('A' for Active; 'I' for Inactive)
REMARK       I    between atoms: C6_11  and  N1_4 
REMARK    1  A    between atoms: C9_14  and  N1_4 
REMARK    2  A    between atoms: C3_8  and  C6_11 
ROOT
HETATM    1  O1  UNK     1      19.581  -0.902  34.572  1.00  0.00    -0.274 OA
HETATM    2  O3  UNK     1      20.706  -2.788  33.938  1.00  0.00    -0.259 OA
HETATM    3  C1  UNK     1      18.476  -0.833  36.736  1.00  0.00    -0.001 A 
HETATM    4  C2  UNK     1      18.810  -0.219  35.532  1.00  0.00     0.089 A 
HETATM    5  C3  UNK     1      19.666  -2.834  36.067  1.00  0.00     0.108 A 
HETATM    6  C4  UNK     1      18.934  -2.191  36.985  1.00  0.00     0.037 A 
HETATM    7  C5  UNK     1      17.709  -0.124  37.664  1.00  0.00     0.014 A 
HETATM    8  C7  UNK     1      20.035  -2.201  34.781  1.00  0.00     0.304 A 
HETATM    9  C8  UNK     1      18.402   1.078  35.232  1.00  0.00     0.038 A 
HETATM   10  C10 UNK     1      17.293   1.179  37.377  1.00  0.00     0.001 A 
HETATM   11  C11 UNK     1      17.638   1.779  36.164  1.00  0.00     0.003 A 
ENDROOT
BRANCH   5  12
HETATM   12  C6  UNK     1      20.082  -4.199  36.410  1.00  0.00     0.263 C 
HETATM   13  O2  UNK     1      19.890  -5.114  35.612  1.00  0.00    -0.267 OA
HETATM   14  N1  UNK     1      20.668  -4.268  37.667  1.00  0.00    -0.307 N 
HETATM   15  H4  UNK     1      20.778  -3.417  38.212  1.00  0.00     0.170 HD
BRANCH  14  16
HETATM   16  C9  UNK     1      21.182  -5.416  38.320  1.00  0.00     0.130 A 
HETATM   17  C13 UNK     1      20.262  -6.318  38.807  1.00  0.00     0.051 A 
HETATM   18  C14 UNK     1      20.756  -7.450  39.447  1.00  0.00     0.012 A 
HETATM   19  C12 UNK     1      22.129  -7.626  39.573  1.00  0.00    -0.044 A 
HETATM   20  C15 UNK     1      22.960  -6.652  39.043  1.00  0.00     0.125 A 
HETATM   21  C16 UNK     1      22.688  -8.826  40.251  1.00  0.00     0.049 C 
HETATM   22  N2  UNK     1      22.517  -5.540  38.414  1.00  0.00    -0.243 NA
ENDBRANCH  14  16
ENDBRANCH   5  12
TORSDOF 2
ENDMDL
MODEL 7
REMARK VINA RESULT:      -8.5      2.209      8.030
REMARK  2 active torsions:
REMARK  status: ('A' for Active; 'I' for Inactive)
REMARK       I    between atoms: C6_11  and  N1_4 
REMARK    1  A    between atoms: C9_14  and  N1_4 
REMARK    2  A    between atoms: C3_8  and  C6_11 
ROOT
HETATM    1  O1  UNK     1      17.837   7.142  34.398  1.00  0.00    -0.274 OA
HETATM    2  O3  UNK     1      19.696   5.863  34.035  1.00  0.00    -0.259 OA
HETATM    3  C1  UNK     1      16.057   7.170  32.743  1.00  0.00    -0.001 A 
HETATM    4  C2  UNK     1      16.580   7.599  33.959  1.00  0.00     0.089 A 
HETATM    5  C3  UNK     1      18.025   5.812  32.355  1.00  0.00     0.108 A 
HETATM    6  C4  UNK     1      16.830   6.242  31.932  1.00  0.00     0.037 A 
HETATM    7  C5  UNK     1      14.807   7.645  32.341  1.00  0.00     0.014 A 
HETATM    8  C7  UNK     1      18.601   6.255  33.644  1.00  0.00     0.304 A 
HETATM    9  C8  UNK     1      15.890   8.487  34.782  1.00  0.00     0.038 A 
HETATM   10  C10 UNK     1      14.102   8.536  33.157  1.00  0.00     0.001 A 
HETATM   11  C11 UNK     1      14.643   8.956  34.374  1.00  0.00     0.003 A 
ENDROOT
BRANCH   5  12
HETATM   12  C6  UNK     1      18.729   4.878  31.467  1.00  0.00     0.263 C 
HETATM   13  O2  UNK     1      19.752   5.239  30.889  1.00  0.00    -0.267 OA
HETATM   14  N1  UNK     1      18.099   3.643  31.402  1.00  0.00    -0.307 N 
HETATM   15  H4  UNK     1      17.262   3.481  31.956  1.00  0.00     0.170 HD
BRANCH  14  16
HETATM   16  C9  UNK     1      18.495   2.510  30.649  1.00  0.00     0.130 A 
HETATM   17  C13 UNK     1      18.106   2.475  29.328  1.00  0.00     0.051 A 
HETATM   18  C14 UNK     1      18.492   1.368  28.579  1.00  0.00     0.012 A 
HETATM   19  C12 UNK     1      19.237   0.357  29.176  1.00  0.00    -0.044 A 
HETATM   20  C15 UNK     1      19.570   0.501  30.513  1.00  0.00     0.125 A 
HETATM   21  C16 UNK     1      19.665  -0.838  28.401  1.00  0.00     0.049 C 
HETATM   22  N2  UNK     1      19.214   1.561  31.272  1.00  0.00    -0.243 NA
ENDBRANCH  14  16
ENDBRANCH   5  12
TORSDOF 2
ENDMDL
MODEL 8
REMARK VINA RESULT:      -8.4      5.770      9.208
REMARK  2 active torsions:
REMARK  status: ('A' for Active; 'I' for Inactive)
REMARK       I    between atoms: C6_11  and  N1_4 
REMARK    1  A    between atoms: C9_14  and  N1_4 
REMARK    2  A    between atoms: C3_8  and  C6_11 
ROOT
HETATM    1  O1  UNK     1      18.681   0.406  32.782  1.00  0.00    -0.274 OA
HETATM    2  O3  UNK     1      18.111   0.376  34.995  1.00  0.00    -0.259 OA
HETATM    3  C1  UNK     1      19.929  -1.455  31.838  1.00  0.00    -0.001 A 
HETATM    4  C2  UNK     1      19.307  -0.220  31.686  1.00  0.00     0.089 A 
HETATM    5  C3  UNK     1      19.328  -1.489  34.185  1.00  0.00     0.108 A 
HETATM    6  C4  UNK     1      19.924  -2.089  33.147  1.00  0.00     0.037 A 
HETATM    7  C5  UNK     1      20.540  -2.043  30.729  1.00  0.00     0.014 A 
HETATM    8  C7  UNK     1      18.659  -0.176  34.047  1.00  0.00     0.304 A 
HETATM    9  C8  UNK     1      19.276   0.441  30.460  1.00  0.00     0.038 A 
HETATM   10  C10 UNK     1      20.518  -1.393  29.491  1.00  0.00     0.001 A 
HETATM   11  C11 UNK     1      19.887  -0.154  29.357  1.00  0.00     0.003 A 
ENDROOT
BRANCH   5  12
HETATM   12  C6  UNK     1      19.376  -2.208  35.464  1.00  0.00     0.263 C 
HETATM   13  O2  UNK     1      19.035  -1.636  36.498  1.00  0.00    -0.267 OA
HETATM   14  N1  UNK     1      19.827  -3.512  35.315  1.00  0.00    -0.307 N 
HETATM   15  H4  UNK     1      20.057  -3.856  34.387  1.00  0.00     0.170 HD
BRANCH  14  16
HETATM   16  C9  UNK     1      20.001  -4.487  36.328  1.00  0.00     0.130 A 
HETATM   17  C13 UNK     1      19.026  -5.455  36.433  1.00  0.00     0.051 A 
HETATM   18  C14 UNK     1      19.189  -6.419  37.423  1.00  0.00     0.012 A 
HETATM   19  C12 UNK     1      20.302  -6.372  38.254  1.00  0.00    -0.044 A 
HETATM   20  C15 UNK     1      21.218  -5.352  38.055  1.00  0.00     0.125 A 
HETATM   21  C16 UNK     1      20.505  -7.389  39.321  1.00  0.00     0.049 C 
HETATM   22  N2  UNK     1      21.095  -4.399  37.105  1.00  0.00    -0.243 NA
ENDBRANCH  14  16
ENDBRANCH   5  12
TORSDOF 2
ENDMDL
MODEL 9
REMARK VINA RESULT:      -8.3     13.967     16.592
REMARK  2 active torsions:
REMARK  status: ('A' for Active; 'I' for Inactive)
REMARK       I    between atoms: C6_11  and  N1_4 
REMARK    1  A    between atoms: C9_14  and  N1_4 
REMARK    2  A    between atoms: C3_8  and  C6_11 
ROOT
HETATM    1  O1  UNK     1      18.361  -4.431  13.676  1.00  0.00    -0.274 OA
HETATM    2  O3  UNK     1      17.386  -4.544  15.740  1.00  0.00    -0.259 OA
HETATM    3  C1  UNK     1      19.381  -2.351  12.942  1.00  0.00    -0.001 A 
HETATM    4  C2  UNK     1      19.049  -3.681  12.704  1.00  0.00     0.089 A 
HETATM    5  C3  UNK     1      18.348  -2.466  15.130  1.00  0.00     0.108 A 
HETATM    6  C4  UNK     1      19.003  -1.747  14.210  1.00  0.00     0.037 A 
HETATM    7  C5  UNK     1      20.064  -1.639  11.953  1.00  0.00     0.014 A 
HETATM    8  C7  UNK     1      17.986  -3.882  14.900  1.00  0.00     0.304 A 
HETATM    9  C8  UNK     1      19.381  -4.317  11.510  1.00  0.00     0.038 A 
HETATM   10  C10 UNK     1      20.404  -2.264  10.750  1.00  0.00     0.001 A 
HETATM   11  C11 UNK     1      20.063  -3.600  10.529  1.00  0.00     0.003 A 
ENDROOT
BRANCH   5  12
HETATM   12  C6  UNK     1      18.012  -1.770  16.378  1.00  0.00     0.263 C 
HETATM   13  O2  UNK     1      16.911  -1.946  16.897  1.00  0.00    -0.267 OA
HETATM   14  N1  UNK     1      19.048  -0.960  16.821  1.00  0.00    -0.307 N 
HETATM   15  H4  UNK     1      19.916  -0.928  16.293  1.00  0.00     0.170 HD
BRANCH  14  16
HETATM   16  C9  UNK     1      19.073  -0.145  17.981  1.00  0.00     0.130 A 
HETATM   17  C13 UNK     1      19.085   1.218  17.783  1.00  0.00     0.051 A 
HETATM   18  C14 UNK     1      19.107   2.026  18.916  1.00  0.00     0.012 A 
HETATM   19  C12 UNK     1      19.119   1.443  20.178  1.00  0.00    -0.044 A 
HETATM   20  C15 UNK     1      19.106   0.060  20.254  1.00  0.00     0.125 A 
HETATM   21  C16 UNK     1      19.142   2.280  21.407  1.00  0.00     0.049 C 
HETATM   22  N2  UNK     1      19.084  -0.757  19.178  1.00  0.00    -0.243 NA
ENDBRANCH  14  16
ENDBRANCH   5  12
TORSDOF 2
ENDMDL
MODEL 10
REMARK VINA RESULT:      -8.3      1.964      7.873
REMARK  2 active torsions:
REMARK  status: ('A' for Active; 'I' for Inactive)
REMARK       I    between atoms: C6_11  and  N1_4 
REMARK    1  A    between atoms: C9_14  and  N1_4 
REMARK    2  A    between atoms: C3_8  and  C6_11 
ROOT
HETATM    1  O1  UNK     1      16.824   7.897  32.886  1.00  0.00    -0.274 OA
HETATM    2  O3  UNK     1      15.764   6.060  32.034  1.00  0.00    -0.259 OA
HETATM    3  C1  UNK     1      19.148   7.728  33.581  1.00  0.00    -0.001 A 
HETATM    4  C2  UNK     1      17.988   8.480  33.422  1.00  0.00     0.089 A 
HETATM    5  C3  UNK     1      18.027   5.778  32.679  1.00  0.00     0.108 A 
HETATM    6  C4  UNK     1      19.137   6.327  33.187  1.00  0.00     0.037 A 
HETATM    7  C5  UNK     1      20.282   8.341  34.116  1.00  0.00     0.014 A 
HETATM    8  C7  UNK     1      16.783   6.559  32.499  1.00  0.00     0.304 A 
HETATM    9  C8  UNK     1      17.932   9.826  33.780  1.00  0.00     0.038 A 
HETATM   10  C10 UNK     1      20.241   9.691  34.480  1.00  0.00     0.001 A 
HETATM   11  C11 UNK     1      19.068  10.431  34.312  1.00  0.00     0.003 A 
ENDROOT
BRANCH   5  12
HETATM   12  C6  UNK     1      18.116   4.360  32.310  1.00  0.00     0.263 C 
HETATM   13  O2  UNK     1      17.886   3.495  33.153  1.00  0.00    -0.267 OA
HETATM   14  N1  UNK     1      18.470   4.186  30.980  1.00  0.00    -0.307 N 
HETATM   15  H4  UNK     1      18.611   5.003  30.391  1.00  0.00     0.170 HD
BRANCH  14  16
HETATM   16  C9  UNK     1      18.648   2.964  30.285  1.00  0.00     0.130 A 
HETATM   17  C13 UNK     1      18.003   2.835  29.076  1.00  0.00     0.051 A 
HETATM   18  C14 UNK     1      18.174   1.640  28.385  1.00  0.00     0.012 A 
HETATM   19  C12 UNK     1      18.971   0.638  28.928  1.00  0.00    -0.044 A 
HETATM   20  C15 UNK     1      19.572   0.880  30.153  1.00  0.00     0.125 A 
HETATM   21  C16 UNK     1      19.174  -0.650  28.213  1.00  0.00     0.049 C 
HETATM   22  N2  UNK     1      19.429   2.028  30.853  1.00  0.00    -0.243 NA
ENDBRANCH  14  16
ENDBRANCH   5  12
TORSDOF 2
ENDMDL
