MODEL 1
REMARK VINA RESULT:      -9.2      0.000      0.000
REMARK  6 active torsions:
REMARK  status: ('A' for Active; 'I' for Inactive)
REMARK    1  A    between atoms: C1_8  and  O1_2 
REMARK    2  A    between atoms: C6_13  and  N1_7 
REMARK    3  A    between atoms: C1_8  and  C5_12 
REMARK    4  A    between atoms: C5_12  and  C9_16 
REMARK    5  A    between atoms: C10_17  and  C6_13 
REMARK    6  A    between atoms: C13_20  and  C9_16 
ROOT
HETATM    1  O2  UNK     1      34.219  -4.825  35.844  1.00  0.00    -0.269 OA
HETATM    2  N1  UNK     1      33.076  -6.822  35.318  1.00  0.00    -0.310 N 
HETATM    3  C1  UNK     1      33.308  -6.270  37.610  1.00  0.00     0.175 A 
HETATM    4  C2  UNK     1      32.579  -7.570  37.417  1.00  0.00     0.013 A 
HETATM    5  C3  UNK     1      32.468  -7.849  36.053  1.00  0.00     0.047 A 
HETATM    6  C4  UNK     1      33.609  -5.836  36.161  1.00  0.00     0.264 A 
HETATM    7  C7  UNK     1      32.059  -8.439  38.362  1.00  0.00     0.013 A 
HETATM    8  C8  UNK     1      31.838  -8.992  35.592  1.00  0.00     0.030 A 
HETATM    9  C11 UNK     1      31.419  -9.597  37.913  1.00  0.00     0.001 A 
HETATM   10  C12 UNK     1      31.310  -9.871  36.540  1.00  0.00     0.002 A 
ENDROOT
BRANCH   3  11
HETATM   11  O1  UNK     1      34.536  -6.500  38.272  1.00  0.00    -0.375 OA
HETATM   12  H7  UNK     1      34.369  -7.034  39.066  1.00  0.00     0.211 HD
ENDBRANCH   3  11
BRANCH   3  13
HETATM   13  C5  UNK     1      32.485  -5.218  38.340  1.00  0.00     0.137 C 
BRANCH  13  14
HETATM   14  C9  UNK     1      31.276  -4.780  37.540  1.00  0.00     0.169 C 
HETATM   15  O3  UNK     1      31.321  -3.961  36.627  1.00  0.00    -0.292 OA
BRANCH  14  16
HETATM   16  C13 UNK     1      29.987  -5.395  37.914  1.00  0.00     0.086 A 
HETATM   17  C16 UNK     1      29.570  -6.407  37.143  1.00  0.00     0.035 A 
HETATM   18  C18 UNK     1      28.312  -7.077  37.432  1.00  0.00    -0.001 A 
HETATM   19  C21 UNK     1      27.554  -6.649  38.518  1.00  0.00     0.089 A 
HETATM   20  C23 UNK     1      27.837  -8.137  36.656  1.00  0.00     0.014 A 
HETATM   21  C24 UNK     1      26.340  -7.248  38.848  1.00  0.00     0.038 A 
HETATM   22  O4  UNK     1      27.999  -5.583  39.325  1.00  0.00    -0.274 OA
HETATM   23  C26 UNK     1      25.874  -8.304  38.068  1.00  0.00     0.003 A 
HETATM   24  C25 UNK     1      26.620  -8.749  36.975  1.00  0.00     0.001 A 
HETATM   25  C17 UNK     1      29.198  -4.923  39.074  1.00  0.00     0.302 A 
HETATM   26  O5  UNK     1      29.578  -3.995  39.781  1.00  0.00    -0.259 OA
ENDBRANCH  14  16
ENDBRANCH  13  14
ENDBRANCH   3  13
BRANCH   2  27
HETATM   27  C6  UNK     1      33.140  -6.811  33.876  1.00  0.00     0.170 C 
BRANCH  27  28
HETATM   28  C10 UNK     1      31.775  -6.747  33.254  1.00  0.00    -0.040 A 
HETATM   29  C15 UNK     1      31.450  -7.615  32.218  1.00  0.00     0.010 A 
HETATM   30  C20 UNK     1      30.181  -7.557  31.642  1.00  0.00     0.024 A 
HETATM   31  C22 UNK     1      29.247  -6.630  32.105  1.00  0.00     0.034 A 
HETATM   32  C19 UNK     1      29.580  -5.762  33.144  1.00  0.00     0.024 A 
HETATM   33 Cl1  UNK     1      27.681  -6.559  31.393  1.00  0.00    -0.084 Cl
HETATM   34  C14 UNK     1      30.849  -5.821  33.721  1.00  0.00     0.010 A 
ENDBRANCH  27  28
ENDBRANCH   2  27
TORSDOF 6
ENDMDL
MODEL 2
REMARK VINA RESULT:      -9.0      2.649      4.409
REMARK  6 active torsions:
REMARK  status: ('A' for Active; 'I' for Inactive)
REMARK    1  A    between atoms: C1_8  and  O1_2 
REMARK    2  A    between atoms: C6_13  and  N1_7 
REMARK    3  A    between atoms: C1_8  and  C5_12 
REMARK    4  A    between atoms: C5_12  and  C9_16 
REMARK    5  A    between atoms: C10_17  and  C6_13 
REMARK    6  A    between atoms: C13_20  and  C9_16 
ROOT
HETATM    1  O2  UNK     1      27.541  -6.794  34.920  1.00  0.00    -0.269 OA
HETATM    2  N1  UNK     1      29.630  -6.261  33.959  1.00  0.00    -0.310 N 
HETATM    3  C1  UNK     1      29.642  -7.304  36.085  1.00  0.00     0.175 A 
HETATM    4  C2  UNK     1      31.032  -7.005  35.598  1.00  0.00     0.013 A 
HETATM    5  C3  UNK     1      30.970  -6.393  34.345  1.00  0.00     0.047 A 
HETATM    6  C4  UNK     1      28.763  -6.773  34.935  1.00  0.00     0.264 A 
HETATM    7  C7  UNK     1      32.252  -7.246  36.209  1.00  0.00     0.013 A 
HETATM    8  C8  UNK     1      32.112  -6.008  33.664  1.00  0.00     0.030 A 
HETATM    9  C11 UNK     1      33.415  -6.865  35.535  1.00  0.00     0.001 A 
HETATM   10  C12 UNK     1      33.345  -6.251  34.274  1.00  0.00     0.002 A 
ENDROOT
BRANCH   3  11
HETATM   11  O1  UNK     1      29.365  -6.547  37.246  1.00  0.00    -0.375 OA
HETATM   12  H7  UNK     1      29.026  -7.142  37.935  1.00  0.00     0.211 HD
ENDBRANCH   3  11
BRANCH   3  13
HETATM   13  C5  UNK     1      29.394  -8.786  36.330  1.00  0.00     0.137 C 
BRANCH  13  14
HETATM   14  C9  UNK     1      28.533  -9.028  37.553  1.00  0.00     0.169 C 
HETATM   15  O3  UNK     1      28.973  -9.095  38.696  1.00  0.00    -0.292 OA
BRANCH  14  16
HETATM   16  C13 UNK     1      27.086  -9.190  37.311  1.00  0.00     0.086 A 
HETATM   17  C16 UNK     1      26.705 -10.349  36.759  1.00  0.00     0.035 A 
HETATM   18  C18 UNK     1      25.300 -10.601  36.482  1.00  0.00    -0.001 A 
HETATM   19  C21 UNK     1      24.363  -9.622  36.800  1.00  0.00     0.089 A 
HETATM   20  C23 UNK     1      24.856 -11.795  35.908  1.00  0.00     0.014 A 
HETATM   21  C24 UNK     1      23.003  -9.801  36.560  1.00  0.00     0.038 A 
HETATM   22  O4  UNK     1      24.771  -8.405  37.381  1.00  0.00    -0.274 OA
HETATM   23  C26 UNK     1      22.569 -10.994  35.986  1.00  0.00     0.003 A 
HETATM   24  C25 UNK     1      23.493 -11.990  35.661  1.00  0.00     0.001 A 
HETATM   25  C17 UNK     1      26.109  -8.134  37.658  1.00  0.00     0.302 A 
HETATM   26  O5  UNK     1      26.455  -7.072  38.163  1.00  0.00    -0.259 OA
ENDBRANCH  14  16
ENDBRANCH  13  14
ENDBRANCH   3  13
BRANCH   2  27
HETATM   27  C6  UNK     1      29.220  -5.660  32.711  1.00  0.00     0.170 C 
BRANCH  27  28
HETATM   28  C10 UNK     1      28.875  -6.692  31.678  1.00  0.00    -0.040 A 
HETATM   29  C15 UNK     1      29.891  -7.311  30.958  1.00  0.00     0.010 A 
HETATM   30  C20 UNK     1      29.571  -8.272  29.999  1.00  0.00     0.024 A 
HETATM   31  C22 UNK     1      28.237  -8.606  29.765  1.00  0.00     0.034 A 
HETATM   32  C19 UNK     1      27.223  -7.981  30.491  1.00  0.00     0.024 A 
HETATM   33 Cl1  UNK     1      27.842  -9.791  28.581  1.00  0.00    -0.084 Cl
HETATM   34  C14 UNK     1      27.543  -7.020  31.451  1.00  0.00     0.010 A 
ENDBRANCH  27  28
ENDBRANCH   2  27
TORSDOF 6
ENDMDL
MODEL 3
REMARK VINA RESULT:      -8.8      2.297      3.037
REMARK  6 active torsions:
REMARK  status: ('A' for Active; 'I' for Inactive)
REMARK    1  A    between atoms: C1_8  and  O1_2 
REMARK    2  A    between atoms: C6_13  and  N1_7 
REMARK    3  A    between atoms: C1_8  and  C5_12 
REMARK    4  A    between atoms: C5_12  and  C9_16 
REMARK    5  A    between atoms: C10_17  and  C6_13 
REMARK    6  A    between atoms: C13_20  and  C9_16 
ROOT
HETATM    1  O2  UNK     1      34.241  -4.814  35.879  1.00  0.00    -0.269 OA
HETATM    2  N1  UNK     1      33.066  -6.788  35.335  1.00  0.00    -0.310 N 
HETATM    3  C1  UNK     1      33.315  -6.266  37.632  1.00  0.00     0.175 A 
HETATM    4  C2  UNK     1      32.565  -7.552  37.426  1.00  0.00     0.013 A 
HETATM    5  C3  UNK     1      32.446  -7.814  36.060  1.00  0.00     0.047 A 
HETATM    6  C4  UNK     1      33.618  -5.820  36.187  1.00  0.00     0.264 A 
HETATM    7  C7  UNK     1      32.036  -8.424  38.363  1.00  0.00     0.013 A 
HETATM    8  C8  UNK     1      31.796  -8.941  35.588  1.00  0.00     0.030 A 
HETATM    9  C11 UNK     1      31.377  -9.567  37.904  1.00  0.00     0.001 A 
HETATM   10  C12 UNK     1      31.259  -9.823  36.528  1.00  0.00     0.002 A 
ENDROOT
BRANCH   3  11
HETATM   11  O1  UNK     1      34.542  -6.522  38.286  1.00  0.00    -0.375 OA
HETATM   12  H7  UNK     1      35.165  -5.810  38.073  1.00  0.00     0.211 HD
ENDBRANCH   3  11
BRANCH   3  13
HETATM   13  C5  UNK     1      32.511  -5.210  38.378  1.00  0.00     0.137 C 
BRANCH  13  14
HETATM   14  C9  UNK     1      31.304  -4.747  37.589  1.00  0.00     0.169 C 
HETATM   15  O3  UNK     1      31.354  -3.917  36.685  1.00  0.00    -0.292 OA
BRANCH  14  16
HETATM   16  C13 UNK     1      30.009  -5.351  37.961  1.00  0.00     0.086 A 
HETATM   17  C16 UNK     1      29.587  -6.363  37.195  1.00  0.00     0.035 A 
HETATM   18  C18 UNK     1      28.322  -7.022  37.483  1.00  0.00    -0.001 A 
HETATM   19  C21 UNK     1      27.564  -6.583  38.564  1.00  0.00     0.089 A 
HETATM   20  C23 UNK     1      27.842  -8.082  36.710  1.00  0.00     0.014 A 
HETATM   21  C24 UNK     1      26.344  -7.171  38.893  1.00  0.00     0.038 A 
HETATM   22  O4  UNK     1      28.015  -5.517  39.367  1.00  0.00    -0.274 OA
HETATM   23  C26 UNK     1      25.873  -8.227  38.117  1.00  0.00     0.003 A 
HETATM   24  C25 UNK     1      26.619  -8.683  37.028  1.00  0.00     0.001 A 
HETATM   25  C17 UNK     1      29.220  -4.867  39.117  1.00  0.00     0.302 A 
HETATM   26  O5  UNK     1      29.604  -3.939  39.820  1.00  0.00    -0.259 OA
ENDBRANCH  14  16
ENDBRANCH  13  14
ENDBRANCH   3  13
BRANCH   2  27
HETATM   27  C6  UNK     1      33.124  -6.760  33.892  1.00  0.00     0.170 C 
BRANCH  27  28
HETATM   28  C10 UNK     1      34.270  -7.572  33.362  1.00  0.00    -0.040 A 
HETATM   29  C15 UNK     1      35.566  -7.080  33.461  1.00  0.00     0.010 A 
HETATM   30  C20 UNK     1      36.631  -7.835  32.970  1.00  0.00     0.024 A 
HETATM   31  C22 UNK     1      36.392  -9.077  32.382  1.00  0.00     0.034 A 
HETATM   32  C19 UNK     1      35.089  -9.565  32.286  1.00  0.00     0.024 A 
HETATM   33 Cl1  UNK     1      37.706 -10.009  31.776  1.00  0.00    -0.084 Cl
HETATM   34  C14 UNK     1      34.024  -8.809  32.778  1.00  0.00     0.010 A 
ENDBRANCH  27  28
ENDBRANCH   2  27
TORSDOF 6
ENDMDL
MODEL 4
REMARK VINA RESULT:      -8.8     10.046     12.892
REMARK  6 active torsions:
REMARK  status: ('A' for Active; 'I' for Inactive)
REMARK    1  A    between atoms: C1_8  and  O1_2 
REMARK    2  A    between atoms: C6_13  and  N1_7 
REMARK    3  A    between atoms: C1_8  and  C5_12 
REMARK    4  A    between atoms: C5_12  and  C9_16 
REMARK    5  A    between atoms: C10_17  and  C6_13 
REMARK    6  A    between atoms: C13_20  and  C9_16 
ROOT
HETATM    1  O2  UNK     1      18.577  -1.155  36.712  1.00  0.00    -0.269 OA
HETATM    2  N1  UNK     1      18.474  -0.814  34.378  1.00  0.00    -0.310 N 
HETATM    3  C1  UNK     1      20.101  -2.334  35.187  1.00  0.00     0.175 A 
HETATM    4  C2  UNK     1      20.155  -2.197  33.692  1.00  0.00     0.013 A 
HETATM    5  C3  UNK     1      19.180  -1.293  33.267  1.00  0.00     0.047 A 
HETATM    6  C4  UNK     1      18.955  -1.375  35.571  1.00  0.00     0.264 A 
HETATM    7  C7  UNK     1      20.996  -2.812  32.780  1.00  0.00     0.013 A 
HETATM    8  C8  UNK     1      19.010  -0.979  31.929  1.00  0.00     0.030 A 
HETATM    9  C11 UNK     1      20.838  -2.508  31.425  1.00  0.00     0.001 A 
HETATM   10  C12 UNK     1      19.853  -1.598  31.004  1.00  0.00     0.002 A 
ENDROOT
BRANCH   3  11
HETATM   11  O1  UNK     1      21.299  -1.849  35.759  1.00  0.00    -0.375 OA
HETATM   12  H7  UNK     1      21.695  -1.201  35.154  1.00  0.00     0.211 HD
ENDBRANCH   3  11
BRANCH   3  13
HETATM   13  C5  UNK     1      19.811  -3.753  35.654  1.00  0.00     0.137 C 
BRANCH  13  14
HETATM   14  C9  UNK     1      20.354  -4.022  37.042  1.00  0.00     0.169 C 
HETATM   15  O3  UNK     1      20.588  -3.144  37.867  1.00  0.00    -0.292 OA
BRANCH  14  16
HETATM   16  C13 UNK     1      20.606  -5.437  37.382  1.00  0.00     0.086 A 
HETATM   17  C16 UNK     1      19.629  -6.300  37.077  1.00  0.00     0.035 A 
HETATM   18  C18 UNK     1      19.785  -7.716  37.374  1.00  0.00    -0.001 A 
HETATM   19  C21 UNK     1      20.960  -8.153  37.977  1.00  0.00     0.089 A 
HETATM   20  C23 UNK     1      18.793  -8.653  37.074  1.00  0.00     0.014 A 
HETATM   21  C24 UNK     1      21.171  -9.495  38.288  1.00  0.00     0.038 A 
HETATM   22  O4  UNK     1      21.983  -7.239  38.295  1.00  0.00    -0.274 OA
HETATM   23  C26 UNK     1      20.176 -10.423  37.985  1.00  0.00     0.003 A 
HETATM   24  C25 UNK     1      18.990 -10.004  37.379  1.00  0.00     0.001 A 
HETATM   25  C17 UNK     1      21.864  -5.879  38.023  1.00  0.00     0.302 A 
HETATM   26  O5  UNK     1      22.760  -5.090  38.304  1.00  0.00    -0.259 OA
ENDBRANCH  14  16
ENDBRANCH  13  14
ENDBRANCH   3  13
BRANCH   2  27
HETATM   27  C6  UNK     1      17.399   0.145  34.282  1.00  0.00     0.170 C 
BRANCH  27  28
HETATM   28  C10 UNK     1      17.909   1.553  34.189  1.00  0.00    -0.040 A 
HETATM   29  C15 UNK     1      17.840   2.231  32.977  1.00  0.00     0.010 A 
HETATM   30  C20 UNK     1      18.313   3.541  32.890  1.00  0.00     0.024 A 
HETATM   31  C22 UNK     1      18.852   4.162  34.016  1.00  0.00     0.034 A 
HETATM   32  C19 UNK     1      18.919   3.476  35.228  1.00  0.00     0.024 A 
HETATM   33 Cl1  UNK     1      19.436   5.778  33.909  1.00  0.00    -0.084 Cl
HETATM   34  C14 UNK     1      18.446   2.167  35.315  1.00  0.00     0.010 A 
ENDBRANCH  27  28
ENDBRANCH   2  27
TORSDOF 6
ENDMDL
MODEL 5
REMARK VINA RESULT:      -8.7      2.107      3.535
REMARK  6 active torsions:
REMARK  status: ('A' for Active; 'I' for Inactive)
REMARK    1  A    between atoms: C1_8  and  O1_2 
REMARK    2  A    between atoms: C6_13  and  N1_7 
REMARK    3  A    between atoms: C1_8  and  C5_12 
REMARK    4  A    between atoms: C5_12  and  C9_16 
REMARK    5  A    between atoms: C10_17  and  C6_13 
REMARK    6  A    between atoms: C13_20  and  C9_16 
ROOT
HETATM    1  O2  UNK     1      32.826  -8.965  32.169  1.00  0.00    -0.269 OA
HETATM    2  N1  UNK     1      31.508  -9.512  34.049  1.00  0.00    -0.310 N 
HETATM    3  C1  UNK     1      33.462  -8.226  34.424  1.00  0.00     0.175 A 
HETATM    4  C2  UNK     1      32.728  -8.517  35.702  1.00  0.00     0.013 A 
HETATM    5  C3  UNK     1      31.588  -9.275  35.428  1.00  0.00     0.047 A 
HETATM    6  C4  UNK     1      32.586  -8.928  33.367  1.00  0.00     0.264 A 
HETATM    7  C7  UNK     1      33.038  -8.151  37.001  1.00  0.00     0.013 A 
HETATM    8  C8  UNK     1      30.725  -9.685  36.431  1.00  0.00     0.030 A 
HETATM    9  C11 UNK     1      32.179  -8.555  38.026  1.00  0.00     0.001 A 
HETATM   10  C12 UNK     1      31.033  -9.316  37.742  1.00  0.00     0.002 A 
ENDROOT
BRANCH   3  11
HETATM   11  O1  UNK     1      34.729  -8.853  34.442  1.00  0.00    -0.375 OA
HETATM   12  H7  UNK     1      34.622  -9.782  34.178  1.00  0.00     0.211 HD
ENDBRANCH   3  11
BRANCH   3  13
HETATM   13  C5  UNK     1      33.596  -6.739  34.129  1.00  0.00     0.137 C 
BRANCH  13  14
HETATM   14  C9  UNK     1      32.250  -6.064  33.963  1.00  0.00     0.169 C 
HETATM   15  O3  UNK     1      31.649  -5.989  32.896  1.00  0.00    -0.292 OA
BRANCH  14  16
HETATM   16  C13 UNK     1      31.661  -5.473  35.182  1.00  0.00     0.086 A 
HETATM   17  C16 UNK     1      30.555  -6.064  35.649  1.00  0.00     0.035 A 
HETATM   18  C18 UNK     1      29.901  -5.554  36.844  1.00  0.00    -0.001 A 
HETATM   19  C21 UNK     1      30.445  -4.447  37.489  1.00  0.00     0.089 A 
HETATM   20  C23 UNK     1      28.746  -6.138  37.369  1.00  0.00     0.014 A 
HETATM   21  C24 UNK     1      29.867  -3.909  38.638  1.00  0.00     0.038 A 
HETATM   22  O4  UNK     1      31.609  -3.830  36.991  1.00  0.00    -0.274 OA
HETATM   23  C26 UNK     1      28.715  -4.497  39.153  1.00  0.00     0.003 A 
HETATM   24  C25 UNK     1      28.155  -5.610  38.522  1.00  0.00     0.001 A 
HETATM   25  C17 UNK     1      32.257  -4.295  35.850  1.00  0.00     0.302 A 
HETATM   26  O5  UNK     1      33.270  -3.752  35.423  1.00  0.00    -0.259 OA
ENDBRANCH  14  16
ENDBRANCH  13  14
ENDBRANCH   3  13
BRANCH   2  27
HETATM   27  C6  UNK     1      30.446 -10.273  33.435  1.00  0.00     0.170 C 
BRANCH  27  28
HETATM   28  C10 UNK     1      29.498  -9.397  32.669  1.00  0.00    -0.040 A 
HETATM   29  C15 UNK     1      29.219  -9.686  31.338  1.00  0.00     0.010 A 
HETATM   30  C20 UNK     1      28.336  -8.873  30.626  1.00  0.00     0.024 A 
HETATM   31  C22 UNK     1      27.741  -7.777  31.250  1.00  0.00     0.034 A 
HETATM   32  C19 UNK     1      28.026  -7.493  32.586  1.00  0.00     0.024 A 
HETATM   33 Cl1  UNK     1      26.652  -6.774  30.371  1.00  0.00    -0.084 Cl
HETATM   34  C14 UNK     1      28.908  -8.307  33.298  1.00  0.00     0.010 A 
ENDBRANCH  27  28
ENDBRANCH   2  27
TORSDOF 6
ENDMDL
MODEL 6
REMARK VINA RESULT:      -8.6      2.510      5.973
REMARK  6 active torsions:
REMARK  status: ('A' for Active; 'I' for Inactive)
REMARK    1  A    between atoms: C1_8  and  O1_2 
REMARK    2  A    between atoms: C6_13  and  N1_7 
REMARK    3  A    between atoms: C1_8  and  C5_12 
REMARK    4  A    between atoms: C5_12  and  C9_16 
REMARK    5  A    between atoms: C10_17  and  C6_13 
REMARK    6  A    between atoms: C13_20  and  C9_16 
ROOT
HETATM    1  O2  UNK     1      33.619  -7.627  37.824  1.00  0.00    -0.269 OA
HETATM    2  N1  UNK     1      31.284  -7.655  38.173  1.00  0.00    -0.310 N 
HETATM    3  C1  UNK     1      32.349  -5.540  38.091  1.00  0.00     0.175 A 
HETATM    4  C2  UNK     1      30.871  -5.416  38.335  1.00  0.00     0.013 A 
HETATM    5  C3  UNK     1      30.292  -6.685  38.375  1.00  0.00     0.047 A 
HETATM    6  C4  UNK     1      32.546  -7.067  37.999  1.00  0.00     0.264 A 
HETATM    7  C7  UNK     1      30.099  -4.280  38.513  1.00  0.00     0.013 A 
HETATM    8  C8  UNK     1      28.936  -6.862  38.588  1.00  0.00     0.030 A 
HETATM    9  C11 UNK     1      28.728  -4.440  38.729  1.00  0.00     0.001 A 
HETATM   10  C12 UNK     1      28.152  -5.721  38.766  1.00  0.00     0.002 A 
ENDROOT
BRANCH   3  11
HETATM   11  O1  UNK     1      33.065  -5.064  39.213  1.00  0.00    -0.375 OA
HETATM   12  H7  UNK     1      33.648  -4.342  38.929  1.00  0.00     0.211 HD
ENDBRANCH   3  11
BRANCH   3  13
HETATM   13  C5  UNK     1      32.811  -4.847  36.817  1.00  0.00     0.137 C 
BRANCH  13  14
HETATM   14  C9  UNK     1      32.355  -5.577  35.570  1.00  0.00     0.169 C 
HETATM   15  O3  UNK     1      31.184  -5.654  35.212  1.00  0.00    -0.292 OA
BRANCH  14  16
HETATM   16  C13 UNK     1      33.414  -6.222  34.767  1.00  0.00     0.086 A 
HETATM   17  C16 UNK     1      33.280  -7.537  34.562  1.00  0.00     0.035 A 
HETATM   18  C18 UNK     1      34.273  -8.261  33.783  1.00  0.00    -0.001 A 
HETATM   19  C21 UNK     1      35.357  -7.565  33.259  1.00  0.00     0.089 A 
HETATM   20  C23 UNK     1      34.175  -9.634  33.543  1.00  0.00     0.014 A 
HETATM   21  C24 UNK     1      36.343  -8.199  32.505  1.00  0.00     0.038 A 
HETATM   22  O4  UNK     1      35.491  -6.180  33.479  1.00  0.00    -0.274 OA
HETATM   23  C26 UNK     1      36.237  -9.568  32.271  1.00  0.00     0.003 A 
HETATM   24  C25 UNK     1      35.156 -10.285  32.788  1.00  0.00     0.001 A 
HETATM   25  C17 UNK     1      34.558  -5.460  34.219  1.00  0.00     0.302 A 
HETATM   26  O5  UNK     1      34.683  -4.254  34.407  1.00  0.00    -0.259 OA
ENDBRANCH  14  16
ENDBRANCH  13  14
ENDBRANCH   3  13
BRANCH   2  27
HETATM   27  C6  UNK     1      31.016  -9.074  38.163  1.00  0.00     0.170 C 
BRANCH  27  28
HETATM   28  C10 UNK     1      30.871  -9.607  36.767  1.00  0.00    -0.040 A 
HETATM   29  C15 UNK     1      31.613 -10.714  36.373  1.00  0.00     0.010 A 
HETATM   30  C20 UNK     1      31.476 -11.211  35.077  1.00  0.00     0.024 A 
HETATM   31  C22 UNK     1      30.600 -10.596  34.184  1.00  0.00     0.034 A 
HETATM   32  C19 UNK     1      29.859  -9.485  34.586  1.00  0.00     0.024 A 
HETATM   33 Cl1  UNK     1      30.432 -11.209  32.584  1.00  0.00    -0.084 Cl
HETATM   34  C14 UNK     1      29.995  -8.988  35.883  1.00  0.00     0.010 A 
ENDBRANCH  27  28
ENDBRANCH   2  27
TORSDOF 6
ENDMDL
MODEL 7
REMARK VINA RESULT:      -8.6      3.217      5.106
REMARK  6 active torsions:
REMARK  status: ('A' for Active; 'I' for Inactive)
REMARK    1  A    between atoms: C1_8  and  O1_2 
REMARK    2  A    between atoms: C6_13  and  N1_7 
REMARK    3  A    between atoms: C1_8  and  C5_12 
REMARK    4  A    between atoms: C5_12  and  C9_16 
REMARK    5  A    between atoms: C10_17  and  C6_13 
REMARK    6  A    between atoms: C13_20  and  C9_16 
ROOT
HETATM    1  O2  UNK     1      31.650  -8.098  33.201  1.00  0.00    -0.269 OA
HETATM    2  N1  UNK     1      31.145  -9.750  31.592  1.00  0.00    -0.310 N 
HETATM    3  C1  UNK     1      31.511 -10.473  33.818  1.00  0.00     0.175 A 
HETATM    4  C2  UNK     1      31.217 -11.622  32.895  1.00  0.00     0.013 A 
HETATM    5  C3  UNK     1      31.010 -11.145  31.600  1.00  0.00     0.047 A 
HETATM    6  C4  UNK     1      31.448  -9.258  32.870  1.00  0.00     0.264 A 
HETATM    7  C7  UNK     1      31.144 -12.977  33.171  1.00  0.00     0.013 A 
HETATM    8  C8  UNK     1      30.720 -11.995  30.547  1.00  0.00     0.030 A 
HETATM    9  C11 UNK     1      30.852 -13.850  32.120  1.00  0.00     0.001 A 
HETATM   10  C12 UNK     1      30.643 -13.363  30.819  1.00  0.00     0.002 A 
ENDROOT
BRANCH   3  11
HETATM   11  O1  UNK     1      32.829 -10.581  34.319  1.00  0.00    -0.375 OA
HETATM   12  H7  UNK     1      33.404  -9.981  33.817  1.00  0.00     0.211 HD
ENDBRANCH   3  11
BRANCH   3  13
HETATM   13  C5  UNK     1      30.507 -10.338  34.954  1.00  0.00     0.137 C 
BRANCH  13  14
HETATM   14  C9  UNK     1      31.182 -10.131  36.294  1.00  0.00     0.169 C 
HETATM   15  O3  UNK     1      31.694 -11.034  36.948  1.00  0.00    -0.292 OA
BRANCH  14  16
HETATM   16  C13 UNK     1      31.201  -8.747  36.809  1.00  0.00     0.086 A 
HETATM   17  C16 UNK     1      30.092  -8.335  37.435  1.00  0.00     0.035 A 
HETATM   18  C18 UNK     1      30.016  -6.987  37.977  1.00  0.00    -0.001 A 
HETATM   19  C21 UNK     1      31.110  -6.140  37.833  1.00  0.00     0.089 A 
HETATM   20  C23 UNK     1      28.880  -6.514  38.639  1.00  0.00     0.014 A 
HETATM   21  C24 UNK     1      31.100  -4.838  38.329  1.00  0.00     0.038 A 
HETATM   22  O4  UNK     1      32.273  -6.580  37.173  1.00  0.00    -0.274 OA
HETATM   23  C26 UNK     1      29.963  -4.373  38.987  1.00  0.00     0.003 A 
HETATM   24  C25 UNK     1      28.856  -5.209  39.143  1.00  0.00     0.001 A 
HETATM   25  C17 UNK     1      32.377  -7.864  36.644  1.00  0.00     0.302 A 
HETATM   26  O5  UNK     1      33.393  -8.239  36.070  1.00  0.00    -0.259 OA
ENDBRANCH  14  16
ENDBRANCH  13  14
ENDBRANCH   3  13
BRANCH   2  27
HETATM   27  C6  UNK     1      30.996  -8.946  30.402  1.00  0.00     0.170 C 
BRANCH  27  28
HETATM   28  C10 UNK     1      29.646  -8.293  30.331  1.00  0.00    -0.040 A 
HETATM   29  C15 UNK     1      29.544  -6.911  30.435  1.00  0.00     0.010 A 
HETATM   30  C20 UNK     1      28.290  -6.304  30.367  1.00  0.00     0.024 A 
HETATM   31  C22 UNK     1      27.147  -7.085  30.196  1.00  0.00     0.034 A 
HETATM   32  C19 UNK     1      27.257  -8.471  30.092  1.00  0.00     0.024 A 
HETATM   33 Cl1  UNK     1      25.599  -6.335  30.112  1.00  0.00    -0.084 Cl
HETATM   34  C14 UNK     1      28.511  -9.078  30.160  1.00  0.00     0.010 A 
ENDBRANCH  27  28
ENDBRANCH   2  27
TORSDOF 6
ENDMDL
MODEL 8
REMARK VINA RESULT:      -8.6     11.990     14.755
REMARK  6 active torsions:
REMARK  status: ('A' for Active; 'I' for Inactive)
REMARK    1  A    between atoms: C1_8  and  O1_2 
REMARK    2  A    between atoms: C6_13  and  N1_7 
REMARK    3  A    between atoms: C1_8  and  C5_12 
REMARK    4  A    between atoms: C5_12  and  C9_16 
REMARK    5  A    between atoms: C10_17  and  C6_13 
REMARK    6  A    between atoms: C13_20  and  C9_16 
ROOT
HETATM    1  O2  UNK     1      18.860  -1.485  37.350  1.00  0.00    -0.269 OA
HETATM    2  N1  UNK     1      20.182  -2.378  35.611  1.00  0.00    -0.310 N 
HETATM    3  C1  UNK     1      18.429  -0.907  35.001  1.00  0.00     0.175 A 
HETATM    4  C2  UNK     1      19.179  -1.415  33.802  1.00  0.00     0.013 A 
HETATM    5  C3  UNK     1      20.198  -2.275  34.214  1.00  0.00     0.047 A 
HETATM    6  C4  UNK     1      19.158  -1.600  36.170  1.00  0.00     0.264 A 
HETATM    7  C7  UNK     1      18.978  -1.147  32.458  1.00  0.00     0.013 A 
HETATM    8  C8  UNK     1      21.046  -2.888  33.308  1.00  0.00     0.030 A 
HETATM    9  C11 UNK     1      19.826  -1.757  31.529  1.00  0.00     0.001 A 
HETATM   10  C12 UNK     1      20.850  -2.621  31.951  1.00  0.00     0.002 A 
ENDROOT
BRANCH   3  11
HETATM   11  O1  UNK     1      17.095  -1.372  34.968  1.00  0.00    -0.375 OA
HETATM   12  H7  UNK     1      17.100  -2.325  34.780  1.00  0.00     0.211 HD
ENDBRANCH   3  11
BRANCH   3  13
HETATM   13  C5  UNK     1      18.474   0.608  35.144  1.00  0.00     0.137 C 
BRANCH  13  14
HETATM   14  C9  UNK     1      17.499   1.300  34.215  1.00  0.00     0.169 C 
HETATM   15  O3  UNK     1      16.354   0.909  34.009  1.00  0.00    -0.292 OA
BRANCH  14  16
HETATM   16  C13 UNK     1      17.995   2.513  33.534  1.00  0.00     0.086 A 
HETATM   17  C16 UNK     1      18.185   3.589  34.307  1.00  0.00     0.035 A 
HETATM   18  C18 UNK     1      18.671   4.831  33.726  1.00  0.00    -0.001 A 
HETATM   19  C21 UNK     1      18.934   4.879  32.361  1.00  0.00     0.089 A 
HETATM   20  C23 UNK     1      18.885   5.978  34.494  1.00  0.00     0.014 A 
HETATM   21  C24 UNK     1      19.401   6.038  31.743  1.00  0.00     0.038 A 
HETATM   22  O4  UNK     1      18.732   3.743  31.553  1.00  0.00    -0.274 OA
HETATM   23  C26 UNK     1      19.610   7.178  32.516  1.00  0.00     0.003 A 
HETATM   24  C25 UNK     1      19.354   7.149  33.889  1.00  0.00     0.001 A 
HETATM   25  C17 UNK     1      18.268   2.540  32.079  1.00  0.00     0.302 A 
HETATM   26  O5  UNK     1      18.093   1.556  31.369  1.00  0.00    -0.259 OA
ENDBRANCH  14  16
ENDBRANCH  13  14
ENDBRANCH   3  13
BRANCH   2  27
HETATM   27  C6  UNK     1      21.109  -3.198  36.357  1.00  0.00     0.170 C 
BRANCH  27  28
HETATM   28  C10 UNK     1      20.493  -4.501  36.775  1.00  0.00    -0.040 A 
HETATM   29  C15 UNK     1      19.709  -5.213  35.874  1.00  0.00     0.010 A 
HETATM   30  C20 UNK     1      19.138  -6.425  36.263  1.00  0.00     0.024 A 
HETATM   31  C22 UNK     1      19.354  -6.916  37.550  1.00  0.00     0.034 A 
HETATM   32  C19 UNK     1      20.141  -6.197  38.449  1.00  0.00     0.024 A 
HETATM   33 Cl1  UNK     1      18.649  -8.411  38.029  1.00  0.00    -0.084 Cl
HETATM   34  C14 UNK     1      20.712  -4.985  38.060  1.00  0.00     0.010 A 
ENDBRANCH  27  28
ENDBRANCH   2  27
TORSDOF 6
ENDMDL
MODEL 9
REMARK VINA RESULT:      -8.5      2.779      6.834
REMARK  6 active torsions:
REMARK  status: ('A' for Active; 'I' for Inactive)
REMARK    1  A    between atoms: C1_8  and  O1_2 
REMARK    2  A    between atoms: C6_13  and  N1_7 
REMARK    3  A    between atoms: C1_8  and  C5_12 
REMARK    4  A    between atoms: C5_12  and  C9_16 
REMARK    5  A    between atoms: C10_17  and  C6_13 
REMARK    6  A    between atoms: C13_20  and  C9_16 
ROOT
HETATM    1  O2  UNK     1      33.230  -8.325  36.586  1.00  0.00    -0.269 OA
HETATM    2  N1  UNK     1      31.300  -7.671  37.777  1.00  0.00    -0.310 N 
HETATM    3  C1  UNK     1      32.517  -5.974  36.659  1.00  0.00     0.175 A 
HETATM    4  C2  UNK     1      31.326  -5.422  37.391  1.00  0.00     0.013 A 
HETATM    5  C3  UNK     1      30.645  -6.458  38.031  1.00  0.00     0.047 A 
HETATM    6  C4  UNK     1      32.432  -7.483  36.971  1.00  0.00     0.264 A 
HETATM    7  C7  UNK     1      30.881  -4.114  37.489  1.00  0.00     0.013 A 
HETATM    8  C8  UNK     1      29.504  -6.228  38.780  1.00  0.00     0.030 A 
HETATM    9  C11 UNK     1      29.731  -3.863  38.242  1.00  0.00     0.001 A 
HETATM   10  C12 UNK     1      29.049  -4.911  38.882  1.00  0.00     0.002 A 
ENDROOT
BRANCH   3  11
HETATM   11  O1  UNK     1      33.709  -5.468  37.227  1.00  0.00    -0.375 OA
HETATM   12  H7  UNK     1      34.444  -6.057  36.990  1.00  0.00     0.211 HD
ENDBRANCH   3  11
BRANCH   3  13
HETATM   13  C5  UNK     1      32.478  -5.719  35.159  1.00  0.00     0.137 C 
BRANCH  13  14
HETATM   14  C9  UNK     1      33.810  -5.234  34.625  1.00  0.00     0.169 C 
HETATM   15  O3  UNK     1      34.133  -4.052  34.563  1.00  0.00    -0.292 OA
BRANCH  14  16
HETATM   16  C13 UNK     1      34.745  -6.278  34.159  1.00  0.00     0.086 A 
HETATM   17  C16 UNK     1      34.470  -6.830  32.971  1.00  0.00     0.035 A 
HETATM   18  C18 UNK     1      35.333  -7.867  32.428  1.00  0.00    -0.001 A 
HETATM   19  C21 UNK     1      36.444  -8.272  33.162  1.00  0.00     0.089 A 
HETATM   20  C23 UNK     1      35.086  -8.470  31.192  1.00  0.00     0.014 A 
HETATM   21  C24 UNK     1      37.310  -9.260  32.698  1.00  0.00     0.038 A 
HETATM   22  O4  UNK     1      36.727  -7.686  34.411  1.00  0.00    -0.274 OA
HETATM   23  C26 UNK     1      37.055  -9.857  31.466  1.00  0.00     0.003 A 
HETATM   24  C25 UNK     1      35.946  -9.463  30.714  1.00  0.00     0.001 A 
HETATM   25  C17 UNK     1      35.920  -6.692  34.957  1.00  0.00     0.302 A 
HETATM   26  O5  UNK     1      36.174  -6.188  36.046  1.00  0.00    -0.259 OA
ENDBRANCH  14  16
ENDBRANCH  13  14
ENDBRANCH   3  13
BRANCH   2  27
HETATM   27  C6  UNK     1      30.851  -8.939  38.302  1.00  0.00     0.170 C 
BRANCH  27  28
HETATM   28  C10 UNK     1      29.453  -9.265  37.864  1.00  0.00    -0.040 A 
HETATM   29  C15 UNK     1      29.127  -9.216  36.513  1.00  0.00     0.010 A 
HETATM   30  C20 UNK     1      27.829  -9.521  36.105  1.00  0.00     0.024 A 
HETATM   31  C22 UNK     1      26.865  -9.871  37.051  1.00  0.00     0.034 A 
HETATM   32  C19 UNK     1      27.199  -9.918  38.404  1.00  0.00     0.024 A 
HETATM   33 Cl1  UNK     1      25.262 -10.247  36.547  1.00  0.00    -0.084 Cl
HETATM   34  C14 UNK     1      28.498  -9.613  38.812  1.00  0.00     0.010 A 
ENDBRANCH  27  28
ENDBRANCH   2  27
TORSDOF 6
ENDMDL
MODEL 10
REMARK VINA RESULT:      -8.5      1.727      2.318
REMARK  6 active torsions:
REMARK  status: ('A' for Active; 'I' for Inactive)
REMARK    1  A    between atoms: C1_8  and  O1_2 
REMARK    2  A    between atoms: C6_13  and  N1_7 
REMARK    3  A    between atoms: C1_8  and  C5_12 
REMARK    4  A    between atoms: C5_12  and  C9_16 
REMARK    5  A    between atoms: C10_17  and  C6_13 
REMARK    6  A    between atoms: C13_20  and  C9_16 
ROOT
HETATM    1  O2  UNK     1      34.169  -7.827  33.446  1.00  0.00    -0.269 OA
HETATM    2  N1  UNK     1      32.720  -9.193  34.713  1.00  0.00    -0.310 N 
HETATM    3  C1  UNK     1      33.689  -7.327  35.803  1.00  0.00     0.175 A 
HETATM    4  C2  UNK     1      32.805  -8.119  36.725  1.00  0.00     0.013 A 
HETATM    5  C3  UNK     1      32.260  -9.204  36.037  1.00  0.00     0.047 A 
HETATM    6  C4  UNK     1      33.582  -8.112  34.480  1.00  0.00     0.264 A 
HETATM    7  C7  UNK     1      32.507  -7.906  38.060  1.00  0.00     0.013 A 
HETATM    8  C8  UNK     1      31.404 -10.103  36.651  1.00  0.00     0.030 A 
HETATM    9  C11 UNK     1      31.645  -8.803  38.697  1.00  0.00     0.001 A 
HETATM   10  C12 UNK     1      31.099  -9.892  37.998  1.00  0.00     0.002 A 
ENDROOT
BRANCH   3  11
HETATM   11  O1  UNK     1      35.028  -7.386  36.251  1.00  0.00    -0.375 OA
HETATM   12  H7  UNK     1      35.619  -7.304  35.485  1.00  0.00     0.211 HD
ENDBRANCH   3  11
BRANCH   3  13
HETATM   13  C5  UNK     1      33.238  -5.884  35.625  1.00  0.00     0.137 C 
BRANCH  13  14
HETATM   14  C9  UNK     1      31.858  -5.786  35.007  1.00  0.00     0.169 C 
HETATM   15  O3  UNK     1      31.656  -5.591  33.813  1.00  0.00    -0.292 OA
BRANCH  14  16
HETATM   16  C13 UNK     1      30.717  -5.939  35.931  1.00  0.00     0.086 A 
HETATM   17  C16 UNK     1      29.901  -6.974  35.696  1.00  0.00     0.035 A 
HETATM   18  C18 UNK     1      28.748  -7.207  36.552  1.00  0.00    -0.001 A 
HETATM   19  C21 UNK     1      28.511  -6.339  37.614  1.00  0.00     0.089 A 
HETATM   20  C23 UNK     1      27.870  -8.274  36.346  1.00  0.00     0.014 A 
HETATM   21  C24 UNK     1      27.425  -6.506  38.471  1.00  0.00     0.038 A 
HETATM   22  O4  UNK     1      29.374  -5.252  37.855  1.00  0.00    -0.274 OA
HETATM   23  C26 UNK     1      26.554  -7.573  38.257  1.00  0.00     0.003 A 
HETATM   24  C25 UNK     1      26.776  -8.455  37.197  1.00  0.00     0.001 A 
HETATM   25  C17 UNK     1      30.485  -5.004  37.054  1.00  0.00     0.302 A 
HETATM   26  O5  UNK     1      31.230  -4.054  37.271  1.00  0.00    -0.259 OA
ENDBRANCH  14  16
ENDBRANCH  13  14
ENDBRANCH   3  13
BRANCH   2  27
HETATM   27  C6  UNK     1      32.346 -10.188  33.736  1.00  0.00     0.170 C 
BRANCH  27  28
HETATM   28  C10 UNK     1      31.164  -9.756  32.918  1.00  0.00    -0.040 A 
HETATM   29  C15 UNK     1      31.367  -9.135  31.690  1.00  0.00     0.010 A 
HETATM   30  C20 UNK     1      30.269  -8.734  30.929  1.00  0.00     0.024 A 
HETATM   31  C22 UNK     1      28.976  -8.956  31.402  1.00  0.00     0.034 A 
HETATM   32  C19 UNK     1      28.779  -9.579  32.634  1.00  0.00     0.024 A 
HETATM   33 Cl1  UNK     1      27.620  -8.462  30.462  1.00  0.00    -0.084 Cl
HETATM   34  C14 UNK     1      29.878  -9.980  33.395  1.00  0.00     0.010 A 
ENDBRANCH  27  28
ENDBRANCH   2  27
TORSDOF 6
ENDMDL
