MODEL 1
REMARK VINA RESULT:      -9.7      0.000      0.000
REMARK  5 active torsions:
REMARK  status: ('A' for Active; 'I' for Inactive)
REMARK    1  A    between atoms: C20_25  and  O2_2 
REMARK    2  A    between atoms: C7_12  and  O2_2 
REMARK    3  A    between atoms: C4_9  and  N1_5 
REMARK       I    between atoms: C9_14  and  N1_5 
REMARK    4  A    between atoms: C3_8  and  C8_13 
REMARK    5  A    between atoms: C5_10  and  C9_14 
ROOT
HETATM    1  O3  UNK     1      18.841   6.114  31.591  1.00  0.00    -0.267 OA
HETATM    2  N1  UNK     1      18.624   6.530  33.898  1.00  0.00    -0.322 N 
HETATM    3  C9  UNK     1      18.677   5.748  32.753  1.00  0.00     0.262 C 
HETATM    4  H2  UNK     1      18.457   6.057  34.782  1.00  0.00     0.169 HD
ENDROOT
BRANCH   3   5
HETATM    5  C5  UNK     1      18.506   4.320  33.049  1.00  0.00     0.108 A 
HETATM    6  C11 UNK     1      18.294   3.317  31.981  1.00  0.00     0.304 A 
HETATM    7  O1  UNK     1      18.146   1.994  32.387  1.00  0.00    -0.271 OA
HETATM    8  O4  UNK     1      18.250   3.631  30.796  1.00  0.00    -0.259 OA
HETATM    9  C2  UNK     1      18.195   1.623  33.745  1.00  0.00     0.123 A 
HETATM   10  C1  UNK     1      18.395   2.582  34.733  1.00  0.00     0.002 A 
HETATM   11  C7  UNK     1      18.036   0.274  34.053  1.00  0.00     0.103 A 
HETATM   12  C6  UNK     1      18.554   3.974  34.340  1.00  0.00     0.037 A 
HETATM   13  C10 UNK     1      18.436   2.176  36.068  1.00  0.00     0.014 A 
HETATM   14  C15 UNK     1      18.278   0.825  36.394  1.00  0.00     0.004 A 
HETATM   15  C14 UNK     1      18.080  -0.123  35.388  1.00  0.00     0.040 A 
BRANCH  11  16
HETATM   16  O2  UNK     1      17.842  -0.653  33.078  1.00  0.00    -0.349 OA
BRANCH  16  17
HETATM   17  C20 UNK     1      18.952  -1.485  32.740  1.00  0.00     0.171 C 
HETATM   18  C24 UNK     1      19.555  -0.998  31.440  1.00  0.00     0.034 C 
ENDBRANCH  16  17
ENDBRANCH  11  16
ENDBRANCH   3   5
BRANCH   2  19
HETATM   19  C4  UNK     1      18.751   7.938  33.989  1.00  0.00     0.046 A 
HETATM   20  C13 UNK     1      19.981   8.458  34.362  1.00  0.00     0.030 A 
HETATM   21  C17 UNK     1      20.138   9.841  34.458  1.00  0.00     0.002 A 
HETATM   22  C16 UNK     1      19.063  10.686  34.183  1.00  0.00     0.001 A 
HETATM   23  C12 UNK     1      17.831  10.148  33.810  1.00  0.00     0.014 A 
HETATM   24  C3  UNK     1      17.674   8.766  33.713  1.00  0.00     0.001 A 
BRANCH  24  25
HETATM   25  C8  UNK     1      16.382   8.237  33.321  1.00  0.00    -0.024 A 
HETATM   26  C18 UNK     1      16.073   8.089  31.971  1.00  0.00     0.012 A 
HETATM   27  C21 UNK     1      14.830   7.580  31.594  1.00  0.00     0.001 A 
HETATM   28  C23 UNK     1      13.898   7.221  32.569  1.00  0.00     0.000 A 
HETATM   29  C22 UNK     1      14.210   7.372  33.920  1.00  0.00     0.001 A 
HETATM   30  C19 UNK     1      15.454   7.880  34.297  1.00  0.00     0.012 A 
ENDBRANCH  24  25
ENDBRANCH   2  19
TORSDOF 5
ENDMDL
MODEL 2
REMARK VINA RESULT:      -9.0      2.001      7.886
REMARK  5 active torsions:
REMARK  status: ('A' for Active; 'I' for Inactive)
REMARK    1  A    between atoms: C20_25  and  O2_2 
REMARK    2  A    between atoms: C7_12  and  O2_2 
REMARK    3  A    between atoms: C4_9  and  N1_5 
REMARK       I    between atoms: C9_14  and  N1_5 
REMARK    4  A    between atoms: C3_8  and  C8_13 
REMARK    5  A    between atoms: C5_10  and  C9_14 
ROOT
HETATM    1  O3  UNK     1      19.554   4.835  31.463  1.00  0.00    -0.267 OA
HETATM    2  N1  UNK     1      17.982   3.383  32.447  1.00  0.00    -0.322 N 
HETATM    3  C9  UNK     1      18.546   4.611  32.131  1.00  0.00     0.262 C 
HETATM    4  H2  UNK     1      17.154   3.384  33.035  1.00  0.00     0.169 HD
ENDROOT
BRANCH   3   5
HETATM    5  C5  UNK     1      17.788   5.731  32.702  1.00  0.00     0.108 A 
HETATM    6  C11 UNK     1      18.345   6.591  33.772  1.00  0.00     0.304 A 
HETATM    7  O1  UNK     1      17.531   7.622  34.232  1.00  0.00    -0.271 OA
HETATM    8  O4  UNK     1      19.467   6.408  34.232  1.00  0.00    -0.259 OA
HETATM    9  C2  UNK     1      16.241   7.840  33.710  1.00  0.00     0.123 A 
HETATM   10  C1  UNK     1      15.737   7.020  32.706  1.00  0.00     0.002 A 
HETATM   11  C7  UNK     1      15.501   8.897  34.234  1.00  0.00     0.103 A 
HETATM   12  C6  UNK     1      16.564   5.934  32.203  1.00  0.00     0.037 A 
HETATM   13  C10 UNK     1      14.453   7.267  32.214  1.00  0.00     0.014 A 
HETATM   14  C15 UNK     1      13.698   8.324  32.731  1.00  0.00     0.004 A 
HETATM   15  C14 UNK     1      14.221   9.137  33.738  1.00  0.00     0.040 A 
BRANCH  11  16
HETATM   16  O2  UNK     1      16.006   9.692  35.215  1.00  0.00    -0.349 OA
BRANCH  16  17
HETATM   17  C20 UNK     1      16.050  11.096  34.958  1.00  0.00     0.171 C 
HETATM   18  C24 UNK     1      17.323  11.417  34.204  1.00  0.00     0.034 C 
ENDBRANCH  16  17
ENDBRANCH  11  16
ENDBRANCH   3   5
BRANCH   2  19
HETATM   19  C4  UNK     1      18.442   2.098  32.066  1.00  0.00     0.046 A 
HETATM   20  C13 UNK     1      18.880   1.923  30.762  1.00  0.00     0.030 A 
HETATM   21  C17 UNK     1      19.341   0.671  30.358  1.00  0.00     0.002 A 
HETATM   22  C16 UNK     1      19.357  -0.392  31.261  1.00  0.00     0.001 A 
HETATM   23  C12 UNK     1      18.912  -0.201  32.570  1.00  0.00     0.014 A 
HETATM   24  C3  UNK     1      18.452   1.051  32.975  1.00  0.00     0.001 A 
BRANCH  24  25
HETATM   25  C8  UNK     1      17.999   1.219  34.342  1.00  0.00    -0.024 A 
HETATM   26  C18 UNK     1      16.804   0.632  34.753  1.00  0.00     0.012 A 
HETATM   27  C21 UNK     1      16.367   0.793  36.068  1.00  0.00     0.001 A 
HETATM   28  C23 UNK     1      17.127   1.540  36.969  1.00  0.00     0.000 A 
HETATM   29  C22 UNK     1      18.322   2.127  36.553  1.00  0.00     0.001 A 
HETATM   30  C19 UNK     1      18.759   1.965  35.239  1.00  0.00     0.012 A 
ENDBRANCH  24  25
ENDBRANCH   2  19
TORSDOF 5
ENDMDL
MODEL 3
REMARK VINA RESULT:      -8.9     11.263     15.377
REMARK  5 active torsions:
REMARK  status: ('A' for Active; 'I' for Inactive)
REMARK    1  A    between atoms: C20_25  and  O2_2 
REMARK    2  A    between atoms: C7_12  and  O2_2 
REMARK    3  A    between atoms: C4_9  and  N1_5 
REMARK       I    between atoms: C9_14  and  N1_5 
REMARK    4  A    between atoms: C3_8  and  C8_13 
REMARK    5  A    between atoms: C5_10  and  C9_14 
ROOT
HETATM    1  O3  UNK     1      22.411  -8.266  40.158  1.00  0.00    -0.267 OA
HETATM    2  N1  UNK     1      22.378  -8.387  37.807  1.00  0.00    -0.322 N 
HETATM    3  C9  UNK     1      22.915  -8.088  39.051  1.00  0.00     0.262 C 
HETATM    4  H2  UNK     1      22.930  -8.148  36.988  1.00  0.00     0.169 HD
ENDROOT
BRANCH   3   5
HETATM    5  C5  UNK     1      24.250  -7.487  38.947  1.00  0.00     0.108 A 
HETATM    6  C11 UNK     1      24.451  -6.020  38.918  1.00  0.00     0.304 A 
HETATM    7  O1  UNK     1      25.765  -5.571  38.818  1.00  0.00    -0.271 OA
HETATM    8  O4  UNK     1      23.510  -5.236  38.978  1.00  0.00    -0.259 OA
HETATM    9  C2  UNK     1      26.852  -6.464  38.748  1.00  0.00     0.123 A 
HETATM   10  C1  UNK     1      26.641  -7.838  38.777  1.00  0.00     0.002 A 
HETATM   11  C7  UNK     1      28.131  -5.920  38.650  1.00  0.00     0.103 A 
HETATM   12  C6  UNK     1      25.279  -8.339  38.882  1.00  0.00     0.037 A 
HETATM   13  C10 UNK     1      27.744  -8.692  38.705  1.00  0.00     0.014 A 
HETATM   14  C15 UNK     1      29.034  -8.160  38.605  1.00  0.00     0.004 A 
HETATM   15  C14 UNK     1      29.226  -6.777  38.579  1.00  0.00     0.040 A 
BRANCH  11  16
HETATM   16  O2  UNK     1      28.323  -4.574  38.624  1.00  0.00    -0.349 OA
BRANCH  16  17
HETATM   17  C20 UNK     1      29.624  -4.095  38.965  1.00  0.00     0.171 C 
HETATM   18  C24 UNK     1      30.342  -3.676  37.700  1.00  0.00     0.034 C 
ENDBRANCH  16  17
ENDBRANCH  11  16
ENDBRANCH   3   5
BRANCH   2  19
HETATM   19  C4  UNK     1      21.118  -8.973  37.527  1.00  0.00     0.046 A 
HETATM   20  C13 UNK     1      20.999 -10.349  37.648  1.00  0.00     0.030 A 
HETATM   21  C17 UNK     1      19.771 -10.955  37.382  1.00  0.00     0.002 A 
HETATM   22  C16 UNK     1      18.678 -10.178  36.998  1.00  0.00     0.001 A 
HETATM   23  C12 UNK     1      18.814  -8.794  36.880  1.00  0.00     0.014 A 
HETATM   24  C3  UNK     1      20.041  -8.188  37.147  1.00  0.00     0.001 A 
BRANCH  24  25
HETATM   25  C8  UNK     1      20.150  -6.748  37.018  1.00  0.00    -0.024 A 
HETATM   26  C18 UNK     1      20.337  -5.961  38.152  1.00  0.00     0.012 A 
HETATM   27  C21 UNK     1      20.441  -4.576  38.028  1.00  0.00     0.001 A 
HETATM   28  C23 UNK     1      20.359  -3.980  36.769  1.00  0.00     0.000 A 
HETATM   29  C22 UNK     1      20.170  -4.770  35.635  1.00  0.00     0.001 A 
HETATM   30  C19 UNK     1      20.066  -6.156  35.759  1.00  0.00     0.012 A 
ENDBRANCH  24  25
ENDBRANCH   2  19
TORSDOF 5
ENDMDL
MODEL 4
REMARK VINA RESULT:      -8.9      6.554      9.385
REMARK  5 active torsions:
REMARK  status: ('A' for Active; 'I' for Inactive)
REMARK    1  A    between atoms: C20_25  and  O2_2 
REMARK    2  A    between atoms: C7_12  and  O2_2 
REMARK    3  A    between atoms: C4_9  and  N1_5 
REMARK       I    between atoms: C9_14  and  N1_5 
REMARK    4  A    between atoms: C3_8  and  C8_13 
REMARK    5  A    between atoms: C5_10  and  C9_14 
ROOT
HETATM    1  O3  UNK     1      21.408  -1.873  35.416  1.00  0.00    -0.267 OA
HETATM    2  N1  UNK     1      19.622  -2.576  34.051  1.00  0.00    -0.322 N 
HETATM    3  C9  UNK     1      20.508  -2.657  35.116  1.00  0.00     0.262 C 
HETATM    4  H2  UNK     1      18.952  -3.331  33.941  1.00  0.00     0.169 HD
ENDROOT
BRANCH   3   5
HETATM    5  C5  UNK     1      20.280  -3.851  35.938  1.00  0.00     0.108 A 
HETATM    6  C11 UNK     1      20.682  -3.913  37.361  1.00  0.00     0.304 A 
HETATM    7  O1  UNK     1      20.412  -5.100  38.036  1.00  0.00    -0.271 OA
HETATM    8  O4  UNK     1      21.227  -2.968  37.923  1.00  0.00    -0.259 OA
HETATM    9  C2  UNK     1      19.788  -6.191  37.400  1.00  0.00     0.123 A 
HETATM   10  C1  UNK     1      19.418  -6.112  36.062  1.00  0.00     0.002 A 
HETATM   11  C7  UNK     1      19.558  -7.337  38.158  1.00  0.00     0.103 A 
HETATM   12  C6  UNK     1      19.686  -4.883  35.329  1.00  0.00     0.037 A 
HETATM   13  C10 UNK     1      18.802  -7.214  35.466  1.00  0.00     0.014 A 
HETATM   14  C15 UNK     1      18.566  -8.372  36.213  1.00  0.00     0.004 A 
HETATM   15  C14 UNK     1      18.942  -8.433  37.557  1.00  0.00     0.040 A 
BRANCH  11  16
HETATM   16  O2  UNK     1      19.924  -7.401  39.467  1.00  0.00    -0.349 OA
BRANCH  16  17
HETATM   17  C20 UNK     1      20.960  -8.321  39.810  1.00  0.00     0.171 C 
HETATM   18  C24 UNK     1      22.291  -7.600  39.770  1.00  0.00     0.034 C 
ENDBRANCH  16  17
ENDBRANCH  11  16
ENDBRANCH   3   5
BRANCH   2  19
HETATM   19  C4  UNK     1      19.551  -1.565  33.061  1.00  0.00     0.046 A 
HETATM   20  C13 UNK     1      20.240  -1.767  31.874  1.00  0.00     0.030 A 
HETATM   21  C17 UNK     1      20.187  -0.791  30.879  1.00  0.00     0.002 A 
HETATM   22  C16 UNK     1      19.448   0.374  31.082  1.00  0.00     0.001 A 
HETATM   23  C12 UNK     1      18.760   0.563  32.282  1.00  0.00     0.014 A 
HETATM   24  C3  UNK     1      18.812  -0.413  33.276  1.00  0.00     0.001 A 
BRANCH  24  25
HETATM   25  C8  UNK     1      18.085  -0.188  34.511  1.00  0.00    -0.024 A 
HETATM   26  C18 UNK     1      16.757  -0.593  34.618  1.00  0.00     0.012 A 
HETATM   27  C21 UNK     1      16.057  -0.377  35.805  1.00  0.00     0.001 A 
HETATM   28  C23 UNK     1      16.689   0.243  36.884  1.00  0.00     0.000 A 
HETATM   29  C22 UNK     1      18.019   0.649  36.773  1.00  0.00     0.001 A 
HETATM   30  C19 UNK     1      18.719   0.432  35.586  1.00  0.00     0.012 A 
ENDBRANCH  24  25
ENDBRANCH   2  19
TORSDOF 5
ENDMDL
MODEL 5
REMARK VINA RESULT:      -8.7      6.856     10.434
REMARK  5 active torsions:
REMARK  status: ('A' for Active; 'I' for Inactive)
REMARK    1  A    between atoms: C20_25  and  O2_2 
REMARK    2  A    between atoms: C7_12  and  O2_2 
REMARK    3  A    between atoms: C4_9  and  N1_5 
REMARK       I    between atoms: C9_14  and  N1_5 
REMARK    4  A    between atoms: C3_8  and  C8_13 
REMARK    5  A    between atoms: C5_10  and  C9_14 
ROOT
HETATM    1  O3  UNK     1      20.556  -2.834  37.913  1.00  0.00    -0.267 OA
HETATM    2  N1  UNK     1      18.742  -3.047  36.426  1.00  0.00    -0.322 N 
HETATM    3  C9  UNK     1      19.810  -3.494  37.191  1.00  0.00     0.262 C 
HETATM    4  H2  UNK     1      18.245  -3.734  35.867  1.00  0.00     0.169 HD
ENDROOT
BRANCH   3   5
HETATM    5  C5  UNK     1      20.010  -4.943  37.068  1.00  0.00     0.108 A 
HETATM    6  C11 UNK     1      20.201  -5.601  35.756  1.00  0.00     0.304 A 
HETATM    7  O1  UNK     1      20.382  -6.981  35.769  1.00  0.00    -0.271 OA
HETATM    8  O4  UNK     1      20.201  -4.966  34.706  1.00  0.00    -0.259 OA
HETATM    9  C2  UNK     1      20.383  -7.719  36.969  1.00  0.00     0.123 A 
HETATM   10  C1  UNK     1      20.201  -7.081  38.191  1.00  0.00     0.002 A 
HETATM   11  C7  UNK     1      20.572  -9.096  36.881  1.00  0.00     0.103 A 
HETATM   12  C6  UNK     1      20.011  -5.638  38.211  1.00  0.00     0.037 A 
HETATM   13  C10 UNK     1      20.208  -7.846  39.359  1.00  0.00     0.014 A 
HETATM   14  C15 UNK     1      20.396  -9.230  39.287  1.00  0.00     0.004 A 
HETATM   15  C14 UNK     1      20.578  -9.853  38.051  1.00  0.00     0.040 A 
BRANCH  11  16
HETATM   16  O2  UNK     1      20.750  -9.708  35.679  1.00  0.00    -0.349 OA
BRANCH  16  17
HETATM   17  C20 UNK     1      21.392 -10.983  35.686  1.00  0.00     0.171 C 
HETATM   18  C24 UNK     1      22.891 -10.780  35.628  1.00  0.00     0.034 C 
ENDBRANCH  16  17
ENDBRANCH  11  16
ENDBRANCH   3   5
BRANCH   2  19
HETATM   19  C4  UNK     1      18.262  -1.719  36.304  1.00  0.00     0.046 A 
HETATM   20  C13 UNK     1      17.511  -1.200  37.348  1.00  0.00     0.030 A 
HETATM   21  C17 UNK     1      17.027   0.105  37.259  1.00  0.00     0.002 A 
HETATM   22  C16 UNK     1      17.299   0.875  36.127  1.00  0.00     0.001 A 
HETATM   23  C12 UNK     1      18.055   0.338  35.085  1.00  0.00     0.014 A 
HETATM   24  C3  UNK     1      18.540  -0.966  35.174  1.00  0.00     0.001 A 
BRANCH  24  25
HETATM   25  C8  UNK     1      19.326  -1.494  34.075  1.00  0.00    -0.024 A 
HETATM   26  C18 UNK     1      18.822  -1.448  32.778  1.00  0.00     0.012 A 
HETATM   27  C21 UNK     1      19.577  -1.956  31.720  1.00  0.00     0.001 A 
HETATM   28  C23 UNK     1      20.835  -2.510  31.964  1.00  0.00     0.000 A 
HETATM   29  C22 UNK     1      21.335  -2.556  33.265  1.00  0.00     0.001 A 
HETATM   30  C19 UNK     1      20.580  -2.047  34.322  1.00  0.00     0.012 A 
ENDBRANCH  24  25
ENDBRANCH   2  19
TORSDOF 5
ENDMDL
MODEL 6
REMARK VINA RESULT:      -8.7     14.043     17.428
REMARK  5 active torsions:
REMARK  status: ('A' for Active; 'I' for Inactive)
REMARK    1  A    between atoms: C20_25  and  O2_2 
REMARK    2  A    between atoms: C7_12  and  O2_2 
REMARK    3  A    between atoms: C4_9  and  N1_5 
REMARK       I    between atoms: C9_14  and  N1_5 
REMARK    4  A    between atoms: C3_8  and  C8_13 
REMARK    5  A    between atoms: C5_10  and  C9_14 
ROOT
HETATM    1  O3  UNK     1      27.708  -8.177  39.774  1.00  0.00    -0.267 OA
HETATM    2  N1  UNK     1      27.931  -6.879  37.822  1.00  0.00    -0.322 N 
HETATM    3  C9  UNK     1      27.352  -7.831  38.649  1.00  0.00     0.262 C 
HETATM    4  H2  UNK     1      27.514  -6.736  36.907  1.00  0.00     0.169 HD
ENDROOT
BRANCH   3   5
HETATM    5  C5  UNK     1      26.175  -8.456  38.034  1.00  0.00     0.108 A 
HETATM    6  C11 UNK     1      24.842  -7.812  38.057  1.00  0.00     0.304 A 
HETATM    7  O1  UNK     1      23.803  -8.504  37.440  1.00  0.00    -0.271 OA
HETATM    8  O4  UNK     1      24.657  -6.724  38.592  1.00  0.00    -0.259 OA
HETATM    9  C2  UNK     1      24.006  -9.754  36.824  1.00  0.00     0.123 A 
HETATM   10  C1  UNK     1      25.266 -10.341  36.814  1.00  0.00     0.002 A 
HETATM   11  C7  UNK     1      22.905 -10.369  36.232  1.00  0.00     0.103 A 
HETATM   12  C6  UNK     1      26.373  -9.643  37.450  1.00  0.00     0.037 A 
HETATM   13  C10 UNK     1      25.428 -11.582  36.193  1.00  0.00     0.014 A 
HETATM   14  C15 UNK     1      24.332 -12.213  35.596  1.00  0.00     0.004 A 
HETATM   15  C14 UNK     1      23.074 -11.607  35.614  1.00  0.00     0.040 A 
BRANCH  11  16
HETATM   16  O2  UNK     1      21.678  -9.784  36.247  1.00  0.00    -0.349 OA
BRANCH  16  17
HETATM   17  C20 UNK     1      21.310  -9.012  35.104  1.00  0.00     0.171 C 
HETATM   18  C24 UNK     1      20.741  -7.687  35.567  1.00  0.00     0.034 C 
ENDBRANCH  16  17
ENDBRANCH  11  16
ENDBRANCH   3   5
BRANCH   2  19
HETATM   19  C4  UNK     1      29.072  -6.082  38.088  1.00  0.00     0.046 A 
HETATM   20  C13 UNK     1      28.876  -4.835  38.663  1.00  0.00     0.030 A 
HETATM   21  C17 UNK     1      29.980  -4.029  38.940  1.00  0.00     0.002 A 
HETATM   22  C16 UNK     1      31.266  -4.477  38.637  1.00  0.00     0.001 A 
HETATM   23  C12 UNK     1      31.447  -5.734  38.058  1.00  0.00     0.014 A 
HETATM   24  C3  UNK     1      30.344  -6.541  37.782  1.00  0.00     0.001 A 
BRANCH  24  25
HETATM   25  C8  UNK     1      30.565  -7.842  37.182  1.00  0.00    -0.024 A 
HETATM   26  C18 UNK     1      30.348  -8.024  35.818  1.00  0.00     0.012 A 
HETATM   27  C21 UNK     1      30.560  -9.275  35.240  1.00  0.00     0.001 A 
HETATM   28  C23 UNK     1      30.990 -10.343  36.029  1.00  0.00     0.000 A 
HETATM   29  C22 UNK     1      31.206 -10.159  37.395  1.00  0.00     0.001 A 
HETATM   30  C19 UNK     1      30.994  -8.907  37.972  1.00  0.00     0.012 A 
ENDBRANCH  24  25
ENDBRANCH   2  19
TORSDOF 5
ENDMDL
MODEL 7
REMARK VINA RESULT:      -8.5     15.989     17.685
REMARK  5 active torsions:
REMARK  status: ('A' for Active; 'I' for Inactive)
REMARK    1  A    between atoms: C20_25  and  O2_2 
REMARK    2  A    between atoms: C7_12  and  O2_2 
REMARK    3  A    between atoms: C4_9  and  N1_5 
REMARK       I    between atoms: C9_14  and  N1_5 
REMARK    4  A    between atoms: C3_8  and  C8_13 
REMARK    5  A    between atoms: C5_10  and  C9_14 
ROOT
HETATM    1  O3  UNK     1      31.006  -5.059  33.258  1.00  0.00    -0.267 OA
HETATM    2  N1  UNK     1      30.993  -7.371  32.808  1.00  0.00    -0.322 N 
HETATM    3  C9  UNK     1      30.688  -6.218  33.518  1.00  0.00     0.262 C 
HETATM    4  H2  UNK     1      30.665  -8.255  33.185  1.00  0.00     0.169 HD
ENDROOT
BRANCH   3   5
HETATM    5  C5  UNK     1      29.885  -6.501  34.714  1.00  0.00     0.108 A 
HETATM    6  C11 UNK     1      28.743  -7.443  34.688  1.00  0.00     0.304 A 
HETATM    7  O1  UNK     1      28.058  -7.628  35.886  1.00  0.00    -0.271 OA
HETATM    8  O4  UNK     1      28.412  -8.033  33.665  1.00  0.00    -0.259 OA
HETATM    9  C2  UNK     1      28.430  -6.955  37.066  1.00  0.00     0.123 A 
HETATM   10  C1  UNK     1      29.506  -6.074  37.068  1.00  0.00     0.002 A 
HETATM   11  C7  UNK     1      27.684  -7.205  38.216  1.00  0.00     0.103 A 
HETATM   12  C6  UNK     1      30.242  -5.859  35.832  1.00  0.00     0.037 A 
HETATM   13  C10 UNK     1      29.843  -5.424  38.258  1.00  0.00     0.014 A 
HETATM   14  C15 UNK     1      29.104  -5.665  39.420  1.00  0.00     0.004 A 
HETATM   15  C14 UNK     1      28.027  -6.554  39.399  1.00  0.00     0.040 A 
BRANCH  11  16
HETATM   16  O2  UNK     1      26.635  -8.070  38.200  1.00  0.00    -0.349 OA
BRANCH  16  17
HETATM   17  C20 UNK     1      26.447  -8.888  39.355  1.00  0.00     0.171 C 
HETATM   18  C24 UNK     1      27.233 -10.170  39.183  1.00  0.00     0.034 C 
ENDBRANCH  16  17
ENDBRANCH  11  16
ENDBRANCH   3   5
BRANCH   2  19
HETATM   19  C4  UNK     1      31.745  -7.475  31.612  1.00  0.00     0.046 A 
HETATM   20  C13 UNK     1      33.128  -7.505  31.713  1.00  0.00     0.030 A 
HETATM   21  C17 UNK     1      33.896  -7.610  30.553  1.00  0.00     0.002 A 
HETATM   22  C16 UNK     1      33.273  -7.680  29.307  1.00  0.00     0.001 A 
HETATM   23  C12 UNK     1      31.881  -7.647  29.222  1.00  0.00     0.014 A 
HETATM   24  C3  UNK     1      31.112  -7.544  30.381  1.00  0.00     0.001 A 
BRANCH  24  25
HETATM   25  C8  UNK     1      29.668  -7.515  30.259  1.00  0.00    -0.024 A 
HETATM   26  C18 UNK     1      28.955  -8.707  30.160  1.00  0.00     0.012 A 
HETATM   27  C21 UNK     1      27.565  -8.679  30.043  1.00  0.00     0.001 A 
HETATM   28  C23 UNK     1      26.892  -7.457  30.025  1.00  0.00     0.000 A 
HETATM   29  C22 UNK     1      27.608  -6.265  30.123  1.00  0.00     0.001 A 
HETATM   30  C19 UNK     1      28.998  -6.293  30.241  1.00  0.00     0.012 A 
ENDBRANCH  24  25
ENDBRANCH   2  19
TORSDOF 5
ENDMDL
MODEL 8
REMARK VINA RESULT:      -8.5     16.253     18.306
REMARK  5 active torsions:
REMARK  status: ('A' for Active; 'I' for Inactive)
REMARK    1  A    between atoms: C20_25  and  O2_2 
REMARK    2  A    between atoms: C7_12  and  O2_2 
REMARK    3  A    between atoms: C4_9  and  N1_5 
REMARK       I    between atoms: C9_14  and  N1_5 
REMARK    4  A    between atoms: C3_8  and  C8_13 
REMARK    5  A    between atoms: C5_10  and  C9_14 
ROOT
HETATM    1  O3  UNK     1      27.392  -6.586  35.088  1.00  0.00    -0.267 OA
HETATM    2  N1  UNK     1      28.804  -8.277  35.920  1.00  0.00    -0.322 N 
HETATM    3  C9  UNK     1      28.342  -7.360  34.986  1.00  0.00     0.262 C 
HETATM    4  H2  UNK     1      29.595  -8.857  35.657  1.00  0.00     0.169 HD
ENDROOT
BRANCH   3   5
HETATM    5  C5  UNK     1      29.137  -7.379  33.753  1.00  0.00     0.108 A 
HETATM    6  C11 UNK     1      30.533  -6.886  33.710  1.00  0.00     0.304 A 
HETATM    7  O1  UNK     1      31.184  -6.955  32.482  1.00  0.00    -0.271 OA
HETATM    8  O4  UNK     1      31.092  -6.438  34.706  1.00  0.00    -0.259 OA
HETATM    9  C2  UNK     1      30.549  -7.467  31.333  1.00  0.00     0.123 A 
HETATM   10  C1  UNK     1      29.237  -7.925  31.395  1.00  0.00     0.002 A 
HETATM   11  C7  UNK     1      31.282  -7.496  30.149  1.00  0.00     0.103 A 
HETATM   12  C6  UNK     1      28.530  -7.866  32.665  1.00  0.00     0.037 A 
HETATM   13  C10 UNK     1      28.642  -8.425  30.234  1.00  0.00     0.014 A 
HETATM   14  C15 UNK     1      29.365  -8.460  29.037  1.00  0.00     0.004 A 
HETATM   15  C14 UNK     1      30.682  -7.998  28.995  1.00  0.00     0.040 A 
BRANCH  11  16
HETATM   16  O2  UNK     1      32.565  -7.047  30.103  1.00  0.00    -0.349 OA
BRANCH  16  17
HETATM   17  C20 UNK     1      33.473  -7.754  29.257  1.00  0.00     0.171 C 
HETATM   18  C24 UNK     1      34.796  -7.019  29.233  1.00  0.00     0.034 C 
ENDBRANCH  16  17
ENDBRANCH  11  16
ENDBRANCH   3   5
BRANCH   2  19
HETATM   19  C4  UNK     1      28.283  -8.529  37.214  1.00  0.00     0.046 A 
HETATM   20  C13 UNK     1      27.356  -9.551  37.354  1.00  0.00     0.030 A 
HETATM   21  C17 UNK     1      26.827  -9.826  38.615  1.00  0.00     0.002 A 
HETATM   22  C16 UNK     1      27.229  -9.075  39.719  1.00  0.00     0.001 A 
HETATM   23  C12 UNK     1      28.162  -8.049  39.563  1.00  0.00     0.014 A 
HETATM   24  C3  UNK     1      28.692  -7.775  38.302  1.00  0.00     0.001 A 
BRANCH  24  25
HETATM   25  C8  UNK     1      29.661  -6.704  38.172  1.00  0.00    -0.024 A 
HETATM   26  C18 UNK     1      31.022  -6.982  38.279  1.00  0.00     0.012 A 
HETATM   27  C21 UNK     1      31.954  -5.952  38.153  1.00  0.00     0.001 A 
HETATM   28  C23 UNK     1      31.523  -4.645  37.921  1.00  0.00     0.000 A 
HETATM   29  C22 UNK     1      30.159  -4.370  37.816  1.00  0.00     0.001 A 
HETATM   30  C19 UNK     1      29.227  -5.400  37.940  1.00  0.00     0.012 A 
ENDBRANCH  24  25
ENDBRANCH   2  19
TORSDOF 5
ENDMDL
MODEL 9
REMARK VINA RESULT:      -8.5      5.443     11.483
REMARK  5 active torsions:
REMARK  status: ('A' for Active; 'I' for Inactive)
REMARK    1  A    between atoms: C20_25  and  O2_2 
REMARK    2  A    between atoms: C7_12  and  O2_2 
REMARK    3  A    between atoms: C4_9  and  N1_5 
REMARK       I    between atoms: C9_14  and  N1_5 
REMARK    4  A    between atoms: C3_8  and  C8_13 
REMARK    5  A    between atoms: C5_10  and  C9_14 
ROOT
HETATM    1  O3  UNK     1      19.828  -2.653  37.784  1.00  0.00    -0.267 OA
HETATM    2  N1  UNK     1      20.673  -4.430  36.490  1.00  0.00    -0.322 N 
HETATM    3  C9  UNK     1      20.123  -3.175  36.710  1.00  0.00     0.262 C 
HETATM    4  H2  UNK     1      20.832  -4.710  35.527  1.00  0.00     0.169 HD
ENDROOT
BRANCH   3   5
HETATM    5  C5  UNK     1      19.894  -2.443  35.459  1.00  0.00     0.108 A 
HETATM    6  C11 UNK     1      19.107  -1.190  35.415  1.00  0.00     0.304 A 
HETATM    7  O1  UNK     1      18.960  -0.587  34.169  1.00  0.00    -0.271 OA
HETATM    8  O4  UNK     1      18.607  -0.703  36.424  1.00  0.00    -0.259 OA
HETATM    9  C2  UNK     1      19.529  -1.140  33.005  1.00  0.00     0.123 A 
HETATM   10  C1  UNK     1      20.265  -2.318  33.068  1.00  0.00     0.002 A 
HETATM   11  C7  UNK     1      19.328  -0.464  31.803  1.00  0.00     0.103 A 
HETATM   12  C6  UNK     1      20.438  -2.972  34.357  1.00  0.00     0.037 A 
HETATM   13  C10 UNK     1      20.814  -2.835  31.892  1.00  0.00     0.014 A 
HETATM   14  C15 UNK     1      20.619  -2.169  30.678  1.00  0.00     0.004 A 
HETATM   15  C14 UNK     1      19.879  -0.986  30.635  1.00  0.00     0.040 A 
BRANCH  11  16
HETATM   16  O2  UNK     1      18.608   0.688  31.755  1.00  0.00    -0.349 OA
BRANCH  16  17
HETATM   17  C20 UNK     1      18.931   1.616  30.720  1.00  0.00     0.171 C 
HETATM   18  C24 UNK     1      18.232   2.929  31.000  1.00  0.00     0.034 C 
ENDBRANCH  16  17
ENDBRANCH  11  16
ENDBRANCH   3   5
BRANCH   2  19
HETATM   19  C4  UNK     1      21.024  -5.402  37.460  1.00  0.00     0.046 A 
HETATM   20  C13 UNK     1      22.145  -5.166  38.241  1.00  0.00     0.030 A 
HETATM   21  C17 UNK     1      22.515  -6.103  39.206  1.00  0.00     0.002 A 
HETATM   22  C16 UNK     1      21.762  -7.264  39.377  1.00  0.00     0.001 A 
HETATM   23  C12 UNK     1      20.637  -7.488  38.582  1.00  0.00     0.014 A 
HETATM   24  C3  UNK     1      20.266  -6.551  37.618  1.00  0.00     0.001 A 
BRANCH  24  25
HETATM   25  C8  UNK     1      19.091  -6.812  36.809  1.00  0.00    -0.024 A 
HETATM   26  C18 UNK     1      17.862  -6.267  37.175  1.00  0.00     0.012 A 
HETATM   27  C21 UNK     1      16.731  -6.517  36.398  1.00  0.00     0.001 A 
HETATM   28  C23 UNK     1      16.833  -7.312  35.255  1.00  0.00     0.000 A 
HETATM   29  C22 UNK     1      18.064  -7.857  34.892  1.00  0.00     0.001 A 
HETATM   30  C19 UNK     1      19.195  -7.605  35.669  1.00  0.00     0.012 A 
ENDBRANCH  24  25
ENDBRANCH   2  19
TORSDOF 5
ENDMDL
MODEL 10
REMARK VINA RESULT:      -8.5     15.796     18.979
REMARK  5 active torsions:
REMARK  status: ('A' for Active; 'I' for Inactive)
REMARK    1  A    between atoms: C20_25  and  O2_2 
REMARK    2  A    between atoms: C7_12  and  O2_2 
REMARK    3  A    between atoms: C4_9  and  N1_5 
REMARK       I    between atoms: C9_14  and  N1_5 
REMARK    4  A    between atoms: C3_8  and  C8_13 
REMARK    5  A    between atoms: C5_10  and  C9_14 
ROOT
HETATM    1  O3  UNK     1      29.330  -5.695  30.990  1.00  0.00    -0.267 OA
HETATM    2  N1  UNK     1      29.752  -7.951  31.519  1.00  0.00    -0.322 N 
HETATM    3  C9  UNK     1      29.681  -6.587  31.762  1.00  0.00     0.262 C 
HETATM    4  H2  UNK     1      30.090  -8.544  32.271  1.00  0.00     0.169 HD
ENDROOT
BRANCH   3   5
HETATM    5  C5  UNK     1      30.093  -6.245  33.128  1.00  0.00     0.108 A 
HETATM    6  C11 UNK     1      29.236  -6.532  34.301  1.00  0.00     0.304 A 
HETATM    7  O1  UNK     1      29.735  -6.162  35.547  1.00  0.00    -0.271 OA
HETATM    8  O4  UNK     1      28.139  -7.069  34.186  1.00  0.00    -0.259 OA
HETATM    9  C2  UNK     1      30.993  -5.544  35.688  1.00  0.00     0.123 A 
HETATM   10  C1  UNK     1      31.782  -5.282  34.573  1.00  0.00     0.002 A 
HETATM   11  C7  UNK     1      31.408  -5.209  36.976  1.00  0.00     0.103 A 
HETATM   12  C6  UNK     1      31.288  -5.659  33.258  1.00  0.00     0.037 A 
HETATM   13  C10 UNK     1      33.023  -4.668  34.754  1.00  0.00     0.014 A 
HETATM   14  C15 UNK     1      33.453  -4.326  36.040  1.00  0.00     0.004 A 
HETATM   15  C14 UNK     1      32.647  -4.597  37.148  1.00  0.00     0.040 A 
BRANCH  11  16
HETATM   16  O2  UNK     1      30.627  -5.471  38.058  1.00  0.00    -0.349 OA
BRANCH  16  17
HETATM   17  C20 UNK     1      29.928  -4.370  38.639  1.00  0.00     0.171 C 
HETATM   18  C24 UNK     1      28.449  -4.690  38.676  1.00  0.00     0.034 C 
ENDBRANCH  16  17
ENDBRANCH  11  16
ENDBRANCH   3   5
BRANCH   2  19
HETATM   19  C4  UNK     1      29.432  -8.633  30.318  1.00  0.00     0.046 A 
HETATM   20  C13 UNK     1      28.103  -8.955  30.088  1.00  0.00     0.030 A 
HETATM   21  C17 UNK     1      27.756  -9.624  28.914  1.00  0.00     0.002 A 
HETATM   22  C16 UNK     1      28.741  -9.965  27.987  1.00  0.00     0.001 A 
HETATM   23  C12 UNK     1      30.074  -9.635  28.234  1.00  0.00     0.014 A 
HETATM   24  C3  UNK     1      30.421  -8.965  29.406  1.00  0.00     0.001 A 
BRANCH  24  25
HETATM   25  C8  UNK     1      31.815  -8.634  29.633  1.00  0.00    -0.024 A 
HETATM   26  C18 UNK     1      32.650  -9.547  30.272  1.00  0.00     0.012 A 
HETATM   27  C21 UNK     1      33.991  -9.230  30.490  1.00  0.00     0.001 A 
HETATM   28  C23 UNK     1      34.493  -7.998  30.068  1.00  0.00     0.000 A 
HETATM   29  C22 UNK     1      33.654  -7.085  29.430  1.00  0.00     0.001 A 
HETATM   30  C19 UNK     1      32.313  -7.403  29.211  1.00  0.00     0.012 A 
ENDBRANCH  24  25
ENDBRANCH   2  19
TORSDOF 5
ENDMDL
