MODEL 1
REMARK VINA RESULT:      -8.5      0.000      0.000
REMARK  4 active torsions:
REMARK  status: ('A' for Active; 'I' for Inactive)
REMARK    1  A    between atoms: N1_2  and  N2_3 
REMARK       I    between atoms: C19_23  and  N2_3 
REMARK       I    between atoms: C19_23  and  N3_4 
REMARK    2  A    between atoms: C1_5  and  C7_11 
REMARK    3  A    between atoms: C12_16  and  C8_12 
REMARK    4  A    between atoms: C15_19  and  C8_12 
ROOT
HETATM    1  C7  UNK     1      19.057   4.796  30.919  1.00  0.00     0.026 C 
HETATM    2  C8  UNK     1      18.756   3.515  31.206  1.00  0.00    -0.006 C 
ENDROOT
BRANCH   2   3
HETATM    3  C12 UNK     1      18.736   2.429  30.212  1.00  0.00    -0.025 A 
HETATM    4  C14 UNK     1      19.630   1.379  30.336  1.00  0.00     0.012 A 
HETATM    5  C17 UNK     1      19.612   0.351  29.394  1.00  0.00     0.001 A 
HETATM    6  C18 UNK     1      18.700   0.387  28.339  1.00  0.00     0.000 A 
HETATM    7  C16 UNK     1      17.806   1.451  28.228  1.00  0.00     0.001 A 
HETATM    8  C13 UNK     1      17.823   2.479  29.170  1.00  0.00     0.012 A 
ENDBRANCH   2   3
BRANCH   2   9
HETATM    9  C15 UNK     1      18.426   3.238  32.634  1.00  0.00     0.151 C 
HETATM   10  N1  UNK     1      17.856   2.143  33.026  1.00  0.00    -0.182 NA
BRANCH  10  11
HETATM   11  N2  UNK     1      17.639   2.084  34.359  1.00  0.00    -0.229 N 
HETATM   12  C19 UNK     1      18.262   1.092  35.098  1.00  0.00     0.334 C 
HETATM   13  O1  UNK     1      19.016   0.237  34.636  1.00  0.00    -0.246 OA
HETATM   14  N3  UNK     1      17.940   1.164  36.441  1.00  0.00    -0.351 N 
HETATM   15  H20 UNK     1      17.316   1.880  36.799  1.00  0.00     0.160 HD
HETATM   16  H21 UNK     1      18.321   0.503  37.108  1.00  0.00     0.160 HD
HETATM   17  H19 UNK     1      17.023   2.769  34.788  1.00  0.00     0.194 HD
ENDBRANCH  10  11
ENDBRANCH   2   9
BRANCH   1  18
HETATM   18  C1  UNK     1      19.087   5.906  31.883  1.00  0.00    -0.023 A 
HETATM   19  C2  UNK     1      17.899   6.514  32.269  1.00  0.00    -0.051 A 
HETATM   20  C5  UNK     1      17.928   7.567  33.184  1.00  0.00     0.014 A 
HETATM   21  C9  UNK     1      16.573   6.075  31.733  1.00  0.00     0.049 C 
HETATM   22  C4  UNK     1      19.146   8.003  33.706  1.00  0.00    -0.061 A 
HETATM   23  C11 UNK     1      19.178   9.129  34.684  1.00  0.00     0.048 C 
HETATM   24  C6  UNK     1      20.334   7.388  33.313  1.00  0.00     0.014 A 
HETATM   25  C3  UNK     1      20.304   6.336  32.398  1.00  0.00    -0.051 A 
HETATM   26  C10 UNK     1      21.600   5.702  32.001  1.00  0.00     0.049 C 
ENDBRANCH   1  18
TORSDOF 4
ENDMDL
MODEL 2
REMARK VINA RESULT:      -8.5      0.036      2.060
REMARK  4 active torsions:
REMARK  status: ('A' for Active; 'I' for Inactive)
REMARK    1  A    between atoms: N1_2  and  N2_3 
REMARK       I    between atoms: C19_23  and  N2_3 
REMARK       I    between atoms: C19_23  and  N3_4 
REMARK    2  A    between atoms: C1_5  and  C7_11 
REMARK    3  A    between atoms: C12_16  and  C8_12 
REMARK    4  A    between atoms: C15_19  and  C8_12 
ROOT
HETATM    1  C7  UNK     1      19.049   4.820  30.932  1.00  0.00     0.026 C 
HETATM    2  C8  UNK     1      18.745   3.539  31.220  1.00  0.00    -0.006 C 
ENDROOT
BRANCH   2   3
HETATM    3  C12 UNK     1      18.722   2.453  30.226  1.00  0.00    -0.025 A 
HETATM    4  C14 UNK     1      17.823   2.515  29.175  1.00  0.00     0.012 A 
HETATM    5  C17 UNK     1      17.799   1.486  28.234  1.00  0.00     0.001 A 
HETATM    6  C18 UNK     1      18.674   0.407  28.358  1.00  0.00     0.000 A 
HETATM    7  C16 UNK     1      19.574   0.359  29.421  1.00  0.00     0.001 A 
HETATM    8  C13 UNK     1      19.598   1.388  30.362  1.00  0.00     0.012 A 
ENDBRANCH   2   3
BRANCH   2   9
HETATM    9  C15 UNK     1      18.413   3.264  32.648  1.00  0.00     0.151 C 
HETATM   10  N1  UNK     1      17.860   2.162  33.043  1.00  0.00    -0.182 NA
BRANCH  10  11
HETATM   11  N2  UNK     1      17.638   2.107  34.375  1.00  0.00    -0.229 N 
HETATM   12  C19 UNK     1      18.261   1.119  35.120  1.00  0.00     0.334 C 
HETATM   13  O1  UNK     1      19.020   0.265  34.664  1.00  0.00    -0.246 OA
HETATM   14  N3  UNK     1      17.934   1.195  36.461  1.00  0.00    -0.351 N 
HETATM   15  H20 UNK     1      17.307   1.910  36.815  1.00  0.00     0.160 HD
HETATM   16  H21 UNK     1      18.314   0.537  37.133  1.00  0.00     0.160 HD
HETATM   17  H19 UNK     1      17.019   2.791  34.800  1.00  0.00     0.194 HD
ENDBRANCH  10  11
ENDBRANCH   2   9
BRANCH   1  18
HETATM   18  C1  UNK     1      19.082   5.930  31.894  1.00  0.00    -0.023 A 
HETATM   19  C2  UNK     1      20.299   6.346  32.423  1.00  0.00    -0.051 A 
HETATM   20  C5  UNK     1      20.331   7.400  33.336  1.00  0.00     0.014 A 
HETATM   21  C9  UNK     1      21.591   5.695  32.043  1.00  0.00     0.049 C 
HETATM   22  C4  UNK     1      19.145   8.031  33.713  1.00  0.00    -0.061 A 
HETATM   23  C11 UNK     1      19.178   9.158  34.690  1.00  0.00     0.048 C 
HETATM   24  C6  UNK     1      17.928   7.608  33.178  1.00  0.00     0.014 A 
HETATM   25  C3  UNK     1      17.897   6.554  32.265  1.00  0.00    -0.051 A 
HETATM   26  C10 UNK     1      16.573   6.129  31.715  1.00  0.00     0.049 C 
ENDBRANCH   1  18
TORSDOF 4
ENDMDL
MODEL 3
REMARK VINA RESULT:      -7.6     14.632     17.223
REMARK  4 active torsions:
REMARK  status: ('A' for Active; 'I' for Inactive)
REMARK    1  A    between atoms: N1_2  and  N2_3 
REMARK       I    between atoms: C19_23  and  N2_3 
REMARK       I    between atoms: C19_23  and  N3_4 
REMARK    2  A    between atoms: C1_5  and  C7_11 
REMARK    3  A    between atoms: C12_16  and  C8_12 
REMARK    4  A    between atoms: C15_19  and  C8_12 
ROOT
HETATM    1  C7  UNK     1      31.141  -6.645  37.634  1.00  0.00     0.026 C 
HETATM    2  C8  UNK     1      31.236  -6.227  36.357  1.00  0.00    -0.006 C 
ENDROOT
BRANCH   2   3
HETATM    3  C12 UNK     1      32.379  -5.471  35.818  1.00  0.00    -0.025 A 
HETATM    4  C14 UNK     1      32.481  -4.116  36.086  1.00  0.00     0.012 A 
HETATM    5  C17 UNK     1      33.562  -3.398  35.575  1.00  0.00     0.001 A 
HETATM    6  C18 UNK     1      34.527  -4.046  34.803  1.00  0.00     0.000 A 
HETATM    7  C16 UNK     1      34.410  -5.410  34.543  1.00  0.00     0.001 A 
HETATM    8  C13 UNK     1      33.329  -6.128  35.053  1.00  0.00     0.012 A 
ENDBRANCH   2   3
BRANCH   2   9
HETATM    9  C15 UNK     1      30.079  -6.575  35.480  1.00  0.00     0.151 C 
HETATM   10  N1  UNK     1      29.853  -5.990  34.348  1.00  0.00    -0.182 NA
BRANCH  10  11
HETATM   11  N2  UNK     1      28.755  -6.446  33.705  1.00  0.00    -0.229 N 
HETATM   12  C19 UNK     1      28.444  -5.931  32.458  1.00  0.00     0.334 C 
HETATM   13  O1  UNK     1      29.097  -5.072  31.866  1.00  0.00    -0.246 OA
HETATM   14  N3  UNK     1      27.296  -6.495  31.933  1.00  0.00    -0.351 N 
HETATM   15  H20 UNK     1      26.774  -7.203  32.439  1.00  0.00     0.160 HD
HETATM   16  H21 UNK     1      26.942  -6.218  31.024  1.00  0.00     0.160 HD
HETATM   17  H19 UNK     1      28.182  -7.155  34.152  1.00  0.00     0.194 HD
ENDBRANCH  10  11
ENDBRANCH   2   9
BRANCH   1  18
HETATM   18  C1  UNK     1      30.017  -7.400  38.208  1.00  0.00    -0.023 A 
HETATM   19  C2  UNK     1      30.022  -8.789  38.149  1.00  0.00    -0.051 A 
HETATM   20  C5  UNK     1      28.957  -9.506  38.694  1.00  0.00     0.014 A 
HETATM   21  C9  UNK     1      31.142  -9.552  37.516  1.00  0.00     0.049 C 
HETATM   22  C4  UNK     1      27.895  -8.828  39.294  1.00  0.00    -0.061 A 
HETATM   23  C11 UNK     1      26.755  -9.594  39.876  1.00  0.00     0.048 C 
HETATM   24  C6  UNK     1      27.898  -7.435  39.347  1.00  0.00     0.014 A 
HETATM   25  C3  UNK     1      28.963  -6.718  38.802  1.00  0.00    -0.051 A 
HETATM   26  C10 UNK     1      28.929  -5.225  38.879  1.00  0.00     0.049 C 
ENDBRANCH   1  18
TORSDOF 4
ENDMDL
MODEL 4
REMARK VINA RESULT:      -7.6     14.631     17.176
REMARK  4 active torsions:
REMARK  status: ('A' for Active; 'I' for Inactive)
REMARK    1  A    between atoms: N1_2  and  N2_3 
REMARK       I    between atoms: C19_23  and  N2_3 
REMARK       I    between atoms: C19_23  and  N3_4 
REMARK    2  A    between atoms: C1_5  and  C7_11 
REMARK    3  A    between atoms: C12_16  and  C8_12 
REMARK    4  A    between atoms: C15_19  and  C8_12 
ROOT
HETATM    1  C7  UNK     1      31.137  -6.645  37.639  1.00  0.00     0.026 C 
HETATM    2  C8  UNK     1      31.235  -6.230  36.361  1.00  0.00    -0.006 C 
ENDROOT
BRANCH   2   3
HETATM    3  C12 UNK     1      32.382  -5.480  35.822  1.00  0.00    -0.025 A 
HETATM    4  C14 UNK     1      32.481  -4.121  36.073  1.00  0.00     0.012 A 
HETATM    5  C17 UNK     1      33.566  -3.409  35.563  1.00  0.00     0.001 A 
HETATM    6  C18 UNK     1      34.537  -4.066  34.806  1.00  0.00     0.000 A 
HETATM    7  C16 UNK     1      34.424  -5.434  34.562  1.00  0.00     0.001 A 
HETATM    8  C13 UNK     1      33.339  -6.146  35.073  1.00  0.00     0.012 A 
ENDBRANCH   2   3
BRANCH   2   9
HETATM    9  C15 UNK     1      30.078  -6.574  35.484  1.00  0.00     0.151 C 
HETATM   10  N1  UNK     1      29.871  -6.010  34.337  1.00  0.00    -0.182 NA
BRANCH  10  11
HETATM   11  N2  UNK     1      28.768  -6.458  33.697  1.00  0.00    -0.229 N 
HETATM   12  C19 UNK     1      28.445  -5.924  32.460  1.00  0.00     0.334 C 
HETATM   13  O1  UNK     1      29.092  -5.054  31.877  1.00  0.00    -0.246 OA
HETATM   14  N3  UNK     1      27.294  -6.483  31.937  1.00  0.00    -0.351 N 
HETATM   15  H20 UNK     1      26.778  -7.200  32.436  1.00  0.00     0.160 HD
HETATM   16  H21 UNK     1      26.932  -6.192  31.036  1.00  0.00     0.160 HD
HETATM   17  H19 UNK     1      28.201  -7.176  34.138  1.00  0.00     0.194 HD
ENDBRANCH  10  11
ENDBRANCH   2   9
BRANCH   1  18
HETATM   18  C1  UNK     1      30.010  -7.395  38.213  1.00  0.00    -0.023 A 
HETATM   19  C2  UNK     1      28.953  -6.707  38.796  1.00  0.00    -0.051 A 
HETATM   20  C5  UNK     1      27.883  -7.417  39.340  1.00  0.00     0.014 A 
HETATM   21  C9  UNK     1      28.920  -5.213  38.862  1.00  0.00     0.049 C 
HETATM   22  C4  UNK     1      27.879  -8.812  39.296  1.00  0.00    -0.061 A 
HETATM   23  C11 UNK     1      26.736  -9.573  39.879  1.00  0.00     0.048 C 
HETATM   24  C6  UNK     1      28.944  -9.495  38.709  1.00  0.00     0.014 A 
HETATM   25  C3  UNK     1      30.013  -8.783  38.166  1.00  0.00    -0.051 A 
HETATM   26  C10 UNK     1      31.137  -9.552  37.545  1.00  0.00     0.049 C 
ENDBRANCH   1  18
TORSDOF 4
ENDMDL
MODEL 5
REMARK VINA RESULT:      -7.5     14.036     18.291
REMARK  4 active torsions:
REMARK  status: ('A' for Active; 'I' for Inactive)
REMARK    1  A    between atoms: N1_2  and  N2_3 
REMARK       I    between atoms: C19_23  and  N2_3 
REMARK       I    between atoms: C19_23  and  N3_4 
REMARK    2  A    between atoms: C1_5  and  C7_11 
REMARK    3  A    between atoms: C12_16  and  C8_12 
REMARK    4  A    between atoms: C15_19  and  C8_12 
ROOT
HETATM    1  C7  UNK     1      18.644  -1.587  15.666  1.00  0.00     0.026 C 
HETATM    2  C8  UNK     1      19.249  -1.445  16.861  1.00  0.00    -0.006 C 
ENDROOT
BRANCH   2   3
HETATM    3  C12 UNK     1      19.124  -0.251  17.713  1.00  0.00    -0.025 A 
HETATM    4  C14 UNK     1      19.022  -0.406  19.086  1.00  0.00     0.012 A 
HETATM    5  C17 UNK     1      18.902   0.724  19.894  1.00  0.00     0.001 A 
HETATM    6  C18 UNK     1      18.885   1.994  19.319  1.00  0.00     0.000 A 
HETATM    7  C16 UNK     1      18.990   2.134  17.936  1.00  0.00     0.001 A 
HETATM    8  C13 UNK     1      19.110   1.004  17.127  1.00  0.00     0.012 A 
ENDBRANCH   2   3
BRANCH   2   9
HETATM    9  C15 UNK     1      20.091  -2.598  17.294  1.00  0.00     0.151 C 
HETATM   10  N1  UNK     1      21.384  -2.550  17.338  1.00  0.00    -0.182 NA
BRANCH  10  11
HETATM   11  N2  UNK     1      21.962  -3.698  17.755  1.00  0.00    -0.229 N 
HETATM   12  C19 UNK     1      22.913  -4.302  16.950  1.00  0.00     0.334 C 
HETATM   13  O1  UNK     1      23.289  -3.874  15.859  1.00  0.00    -0.246 OA
HETATM   14  N3  UNK     1      23.408  -5.464  17.512  1.00  0.00    -0.351 N 
HETATM   15  H20 UNK     1      23.084  -5.797  18.414  1.00  0.00     0.160 HD
HETATM   16  H21 UNK     1      24.113  -6.018  17.038  1.00  0.00     0.160 HD
HETATM   17  H19 UNK     1      21.686  -4.092  18.649  1.00  0.00     0.194 HD
ENDBRANCH  10  11
ENDBRANCH   2   9
BRANCH   1  18
HETATM   18  C1  UNK     1      18.745  -2.761  14.787  1.00  0.00    -0.023 A 
HETATM   19  C2  UNK     1      19.639  -2.749  13.723  1.00  0.00    -0.051 A 
HETATM   20  C5  UNK     1      19.736  -3.863  12.890  1.00  0.00     0.014 A 
HETATM   21  C9  UNK     1      20.513  -1.569  13.436  1.00  0.00     0.049 C 
HETATM   22  C4  UNK     1      18.937  -4.982  13.127  1.00  0.00    -0.061 A 
HETATM   23  C11 UNK     1      19.039  -6.174  12.236  1.00  0.00     0.048 C 
HETATM   24  C6  UNK     1      18.042  -4.986  14.197  1.00  0.00     0.014 A 
HETATM   25  C3  UNK     1      17.946  -3.872  15.030  1.00  0.00    -0.051 A 
HETATM   26  C10 UNK     1      16.974  -3.914  16.166  1.00  0.00     0.049 C 
ENDBRANCH   1  18
TORSDOF 4
ENDMDL
MODEL 6
REMARK VINA RESULT:      -7.5     14.036     18.234
REMARK  4 active torsions:
REMARK  status: ('A' for Active; 'I' for Inactive)
REMARK    1  A    between atoms: N1_2  and  N2_3 
REMARK       I    between atoms: C19_23  and  N2_3 
REMARK       I    between atoms: C19_23  and  N3_4 
REMARK    2  A    between atoms: C1_5  and  C7_11 
REMARK    3  A    between atoms: C12_16  and  C8_12 
REMARK    4  A    between atoms: C15_19  and  C8_12 
ROOT
HETATM    1  C7  UNK     1      18.653  -1.585  15.663  1.00  0.00     0.026 C 
HETATM    2  C8  UNK     1      19.254  -1.444  16.860  1.00  0.00    -0.006 C 
ENDROOT
BRANCH   2   3
HETATM    3  C12 UNK     1      19.125  -0.251  17.713  1.00  0.00    -0.025 A 
HETATM    4  C14 UNK     1      19.013  -0.407  19.085  1.00  0.00     0.012 A 
HETATM    5  C17 UNK     1      18.889   0.722  19.894  1.00  0.00     0.001 A 
HETATM    6  C18 UNK     1      18.878   1.994  19.320  1.00  0.00     0.000 A 
HETATM    7  C16 UNK     1      18.992   2.135  17.937  1.00  0.00     0.001 A 
HETATM    8  C13 UNK     1      19.116   1.005  17.128  1.00  0.00     0.012 A 
ENDBRANCH   2   3
BRANCH   2   9
HETATM    9  C15 UNK     1      20.096  -2.596  17.295  1.00  0.00     0.151 C 
HETATM   10  N1  UNK     1      21.389  -2.542  17.352  1.00  0.00    -0.182 NA
BRANCH  10  11
HETATM   11  N2  UNK     1      21.968  -3.691  17.768  1.00  0.00    -0.229 N 
HETATM   12  C19 UNK     1      22.901  -4.307  16.951  1.00  0.00     0.334 C 
HETATM   13  O1  UNK     1      23.260  -3.890  15.850  1.00  0.00    -0.246 OA
HETATM   14  N3  UNK     1      23.399  -5.467  17.514  1.00  0.00    -0.351 N 
HETATM   15  H20 UNK     1      23.089  -5.791  18.424  1.00  0.00     0.160 HD
HETATM   16  H21 UNK     1      24.093  -6.029  17.033  1.00  0.00     0.160 HD
HETATM   17  H19 UNK     1      21.704  -4.076  18.670  1.00  0.00     0.194 HD
ENDBRANCH  10  11
ENDBRANCH   2   9
BRANCH   1  18
HETATM   18  C1  UNK     1      18.758  -2.759  14.784  1.00  0.00    -0.023 A 
HETATM   19  C2  UNK     1      17.959  -3.871  15.022  1.00  0.00    -0.051 A 
HETATM   20  C5  UNK     1      18.058  -4.984  14.188  1.00  0.00     0.014 A 
HETATM   21  C9  UNK     1      16.983  -3.916  16.156  1.00  0.00     0.049 C 
HETATM   22  C4  UNK     1      18.957  -4.977  13.121  1.00  0.00    -0.061 A 
HETATM   23  C11 UNK     1      19.064  -6.168  12.229  1.00  0.00     0.048 C 
HETATM   24  C6  UNK     1      19.756  -3.858  12.889  1.00  0.00     0.014 A 
HETATM   25  C3  UNK     1      19.656  -2.745  13.724  1.00  0.00    -0.051 A 
HETATM   26  C10 UNK     1      20.530  -1.564  13.442  1.00  0.00     0.049 C 
ENDBRANCH   1  18
TORSDOF 4
ENDMDL
MODEL 7
REMARK VINA RESULT:      -7.4     15.867     18.428
REMARK  4 active torsions:
REMARK  status: ('A' for Active; 'I' for Inactive)
REMARK    1  A    between atoms: N1_2  and  N2_3 
REMARK       I    between atoms: C19_23  and  N2_3 
REMARK       I    between atoms: C19_23  and  N3_4 
REMARK    2  A    between atoms: C1_5  and  C7_11 
REMARK    3  A    between atoms: C12_16  and  C8_12 
REMARK    4  A    between atoms: C15_19  and  C8_12 
ROOT
HETATM    1  C7  UNK     1      32.126  -8.244  37.073  1.00  0.00     0.026 C 
HETATM    2  C8  UNK     1      30.929  -7.626  37.043  1.00  0.00    -0.006 C 
ENDROOT
BRANCH   2   3
HETATM    3  C12 UNK     1      29.816  -7.937  37.956  1.00  0.00    -0.025 A 
HETATM    4  C14 UNK     1      29.461  -9.260  38.165  1.00  0.00     0.012 A 
HETATM    5  C17 UNK     1      28.406  -9.556  39.027  1.00  0.00     0.001 A 
HETATM    6  C18 UNK     1      27.720  -8.525  39.669  1.00  0.00     0.000 A 
HETATM    7  C16 UNK     1      28.090  -7.199  39.449  1.00  0.00     0.001 A 
HETATM    8  C13 UNK     1      29.145  -6.902  38.587  1.00  0.00     0.012 A 
ENDBRANCH   2   3
BRANCH   2   9
HETATM    9  C15 UNK     1      30.777  -6.574  35.997  1.00  0.00     0.151 C 
HETATM   10  N1  UNK     1      30.067  -6.741  34.927  1.00  0.00    -0.182 NA
BRANCH  10  11
HETATM   11  N2  UNK     1      30.057  -5.671  34.102  1.00  0.00    -0.229 N 
HETATM   12  C19 UNK     1      29.506  -5.802  32.838  1.00  0.00     0.334 C 
HETATM   13  O1  UNK     1      29.011  -6.835  32.387  1.00  0.00    -0.246 OA
HETATM   14  N3  UNK     1      29.572  -4.624  32.117  1.00  0.00    -0.351 N 
HETATM   15  H20 UNK     1      29.984  -3.784  32.510  1.00  0.00     0.160 HD
HETATM   16  H21 UNK     1      29.208  -4.565  31.173  1.00  0.00     0.160 HD
HETATM   17  H19 UNK     1      30.454  -4.795  34.428  1.00  0.00     0.194 HD
ENDBRANCH  10  11
ENDBRANCH   2   9
BRANCH   1  18
HETATM   18  C1  UNK     1      33.259  -7.962  36.180  1.00  0.00    -0.023 A 
HETATM   19  C2  UNK     1      34.188  -6.990  36.533  1.00  0.00    -0.051 A 
HETATM   20  C5  UNK     1      35.263  -6.723  35.687  1.00  0.00     0.014 A 
HETATM   21  C9  UNK     1      34.074  -6.212  37.806  1.00  0.00     0.049 C 
HETATM   22  C4  UNK     1      35.402  -7.430  34.492  1.00  0.00    -0.061 A 
HETATM   23  C11 UNK     1      36.552  -7.144  33.586  1.00  0.00     0.048 C 
HETATM   24  C6  UNK     1      34.466  -8.403  34.144  1.00  0.00     0.014 A 
HETATM   25  C3  UNK     1      33.390  -8.670  34.991  1.00  0.00    -0.051 A 
HETATM   26  C10 UNK     1      32.407  -9.721  34.583  1.00  0.00     0.049 C 
ENDBRANCH   1  18
TORSDOF 4
ENDMDL
MODEL 8
REMARK VINA RESULT:      -7.4     15.869     18.414
REMARK  4 active torsions:
REMARK  status: ('A' for Active; 'I' for Inactive)
REMARK    1  A    between atoms: N1_2  and  N2_3 
REMARK       I    between atoms: C19_23  and  N2_3 
REMARK       I    between atoms: C19_23  and  N3_4 
REMARK    2  A    between atoms: C1_5  and  C7_11 
REMARK    3  A    between atoms: C12_16  and  C8_12 
REMARK    4  A    between atoms: C15_19  and  C8_12 
ROOT
HETATM    1  C7  UNK     1      32.147  -8.231  37.052  1.00  0.00     0.026 C 
HETATM    2  C8  UNK     1      30.952  -7.611  37.019  1.00  0.00    -0.006 C 
ENDROOT
BRANCH   2   3
HETATM    3  C12 UNK     1      29.838  -7.916  37.933  1.00  0.00    -0.025 A 
HETATM    4  C14 UNK     1      29.180  -6.878  38.571  1.00  0.00     0.012 A 
HETATM    5  C17 UNK     1      28.126  -7.166  39.437  1.00  0.00     0.001 A 
HETATM    6  C18 UNK     1      27.745  -8.490  39.656  1.00  0.00     0.000 A 
HETATM    7  C16 UNK     1      28.416  -9.525  39.005  1.00  0.00     0.001 A 
HETATM    8  C13 UNK     1      29.470  -9.237  38.139  1.00  0.00     0.012 A 
ENDBRANCH   2   3
BRANCH   2   9
HETATM    9  C15 UNK     1      30.800  -6.564  35.968  1.00  0.00     0.151 C 
HETATM   10  N1  UNK     1      30.046  -6.714  34.926  1.00  0.00    -0.182 NA
BRANCH  10  11
HETATM   11  N2  UNK     1      30.046  -5.652  34.090  1.00  0.00    -0.229 N 
HETATM   12  C19 UNK     1      29.503  -5.794  32.824  1.00  0.00     0.334 C 
HETATM   13  O1  UNK     1      29.006  -6.829  32.381  1.00  0.00    -0.246 OA
HETATM   14  N3  UNK     1      29.579  -4.623  32.092  1.00  0.00    -0.351 N 
HETATM   15  H20 UNK     1      29.992  -3.781  32.479  1.00  0.00     0.160 HD
HETATM   16  H21 UNK     1      29.221  -4.572  31.145  1.00  0.00     0.160 HD
HETATM   17  H19 UNK     1      30.445  -4.775  34.410  1.00  0.00     0.194 HD
ENDBRANCH  10  11
ENDBRANCH   2   9
BRANCH   1  18
HETATM   18  C1  UNK     1      33.281  -7.954  36.158  1.00  0.00    -0.023 A 
HETATM   19  C2  UNK     1      33.411  -8.666  34.972  1.00  0.00    -0.051 A 
HETATM   20  C5  UNK     1      34.486  -8.404  34.123  1.00  0.00     0.014 A 
HETATM   21  C9  UNK     1      32.426  -9.717  34.567  1.00  0.00     0.049 C 
HETATM   22  C4  UNK     1      35.424  -7.430  34.467  1.00  0.00    -0.061 A 
HETATM   23  C11 UNK     1      36.575  -7.149  33.561  1.00  0.00     0.048 C 
HETATM   24  C6  UNK     1      35.287  -6.720  35.660  1.00  0.00     0.014 A 
HETATM   25  C3  UNK     1      34.211  -6.983  36.508  1.00  0.00    -0.051 A 
HETATM   26  C10 UNK     1      34.100  -6.201  37.778  1.00  0.00     0.049 C 
ENDBRANCH   1  18
TORSDOF 4
ENDMDL
MODEL 9
REMARK VINA RESULT:      -7.4     14.896     16.870
REMARK  4 active torsions:
REMARK  status: ('A' for Active; 'I' for Inactive)
REMARK    1  A    between atoms: N1_2  and  N2_3 
REMARK       I    between atoms: C19_23  and  N2_3 
REMARK       I    between atoms: C19_23  and  N3_4 
REMARK    2  A    between atoms: C1_5  and  C7_11 
REMARK    3  A    between atoms: C12_16  and  C8_12 
REMARK    4  A    between atoms: C15_19  and  C8_12 
ROOT
HETATM    1  C7  UNK     1      30.527  -6.949  37.967  1.00  0.00     0.026 C 
HETATM    2  C8  UNK     1      29.290  -7.309  37.575  1.00  0.00    -0.006 C 
ENDROOT
BRANCH   2   3
HETATM    3  C12 UNK     1      28.401  -8.190  38.351  1.00  0.00    -0.025 A 
HETATM    4  C14 UNK     1      28.909  -9.359  38.892  1.00  0.00     0.012 A 
HETATM    5  C17 UNK     1      28.068 -10.195  39.626  1.00  0.00     0.001 A 
HETATM    6  C18 UNK     1      26.729  -9.850  39.808  1.00  0.00     0.000 A 
HETATM    7  C16 UNK     1      26.232  -8.669  39.258  1.00  0.00     0.001 A 
HETATM    8  C13 UNK     1      27.073  -7.834  38.524  1.00  0.00     0.012 A 
ENDBRANCH   2   3
BRANCH   2   9
HETATM    9  C15 UNK     1      28.847  -6.756  36.262  1.00  0.00     0.151 C 
HETATM   10  N1  UNK     1      28.962  -7.407  35.149  1.00  0.00    -0.182 NA
BRANCH  10  11
HETATM   11  N2  UNK     1      28.505  -6.733  34.070  1.00  0.00    -0.229 N 
HETATM   12  C19 UNK     1      29.405  -6.036  33.282  1.00  0.00     0.334 C 
HETATM   13  O1  UNK     1      30.618  -5.974  33.482  1.00  0.00    -0.246 OA
HETATM   14  N3  UNK     1      28.786  -5.401  32.221  1.00  0.00    -0.351 N 
HETATM   15  H20 UNK     1      27.784  -5.467  32.076  1.00  0.00     0.160 HD
HETATM   16  H21 UNK     1      29.316  -4.850  31.556  1.00  0.00     0.160 HD
HETATM   17  H19 UNK     1      27.511  -6.753  33.862  1.00  0.00     0.194 HD
ENDBRANCH  10  11
ENDBRANCH   2   9
BRANCH   1  18
HETATM   18  C1  UNK     1      31.443  -6.074  37.221  1.00  0.00    -0.023 A 
HETATM   19  C2  UNK     1      31.282  -4.695  37.287  1.00  0.00    -0.051 A 
HETATM   20  C5  UNK     1      32.151  -3.864  36.580  1.00  0.00     0.014 A 
HETATM   21  C9  UNK     1      30.197  -4.062  38.099  1.00  0.00     0.049 C 
HETATM   22  C4  UNK     1      33.175  -4.419  35.812  1.00  0.00    -0.061 A 
HETATM   23  C11 UNK     1      34.104  -3.531  35.054  1.00  0.00     0.048 C 
HETATM   24  C6  UNK     1      33.329  -5.804  35.750  1.00  0.00     0.014 A 
HETATM   25  C3  UNK     1      32.460  -6.634  36.458  1.00  0.00    -0.051 A 
HETATM   26  C10 UNK     1      32.658  -8.114  36.367  1.00  0.00     0.049 C 
ENDBRANCH   1  18
TORSDOF 4
ENDMDL
MODEL 10
REMARK VINA RESULT:      -7.4     13.946     16.614
REMARK  4 active torsions:
REMARK  status: ('A' for Active; 'I' for Inactive)
REMARK    1  A    between atoms: N1_2  and  N2_3 
REMARK       I    between atoms: C19_23  and  N2_3 
REMARK       I    between atoms: C19_23  and  N3_4 
REMARK    2  A    between atoms: C1_5  and  C7_11 
REMARK    3  A    between atoms: C12_16  and  C8_12 
REMARK    4  A    between atoms: C15_19  and  C8_12 
ROOT
HETATM    1  C7  UNK     1      31.368  -6.557  33.029  1.00  0.00     0.026 C 
HETATM    2  C8  UNK     1      31.511  -6.263  34.336  1.00  0.00    -0.006 C 
ENDROOT
BRANCH   2   3
HETATM    3  C12 UNK     1      32.810  -6.096  35.007  1.00  0.00    -0.025 A 
HETATM    4  C14 UNK     1      33.488  -4.894  34.883  1.00  0.00     0.012 A 
HETATM    5  C17 UNK     1      34.720  -4.735  35.517  1.00  0.00     0.001 A 
HETATM    6  C18 UNK     1      35.258  -5.781  36.267  1.00  0.00     0.000 A 
HETATM    7  C16 UNK     1      34.564  -6.984  36.384  1.00  0.00     0.001 A 
HETATM    8  C13 UNK     1      33.332  -7.143  35.750  1.00  0.00     0.012 A 
ENDBRANCH   2   3
BRANCH   2   9
HETATM    9  C15 UNK     1      30.239  -6.115  35.103  1.00  0.00     0.151 C 
HETATM   10  N1  UNK     1      30.199  -5.691  36.326  1.00  0.00    -0.182 NA
BRANCH  10  11
HETATM   11  N2  UNK     1      28.953  -5.631  36.845  1.00  0.00    -0.229 N 
HETATM   12  C19 UNK     1      28.791  -5.216  38.156  1.00  0.00     0.334 C 
HETATM   13  O1  UNK     1      29.706  -4.888  38.911  1.00  0.00    -0.246 OA
HETATM   14  N3  UNK     1      27.462  -5.209  38.539  1.00  0.00    -0.351 N 
HETATM   15  H20 UNK     1      26.724  -5.482  37.898  1.00  0.00     0.160 HD
HETATM   16  H21 UNK     1      27.186  -4.927  39.473  1.00  0.00     0.160 HD
HETATM   17  H19 UNK     1      28.164  -5.892  36.262  1.00  0.00     0.194 HD
ENDBRANCH  10  11
ENDBRANCH   2   9
BRANCH   1  18
HETATM   18  C1  UNK     1      30.089  -6.732  32.325  1.00  0.00    -0.023 A 
HETATM   19  C2  UNK     1      29.488  -5.640  31.710  1.00  0.00    -0.051 A 
HETATM   20  C5  UNK     1      28.276  -5.806  31.041  1.00  0.00     0.014 A 
HETATM   21  C9  UNK     1      30.103  -4.276  31.740  1.00  0.00     0.049 C 
HETATM   22  C4  UNK     1      27.673  -7.063  30.991  1.00  0.00    -0.061 A 
HETATM   23  C11 UNK     1      26.376  -7.241  30.276  1.00  0.00     0.048 C 
HETATM   24  C6  UNK     1      28.283  -8.154  31.611  1.00  0.00     0.014 A 
HETATM   25  C3  UNK     1      29.495  -7.987  32.280  1.00  0.00    -0.051 A 
HETATM   26  C10 UNK     1      30.117  -9.181  32.933  1.00  0.00     0.049 C 
ENDBRANCH   1  18
TORSDOF 4
ENDMDL
