MODEL 1
REMARK VINA RESULT:      -8.2      0.000      0.000
REMARK  4 active torsions:
REMARK  status: ('A' for Active; 'I' for Inactive)
REMARK    1  A    between atoms: C10_15  and  O2_2 
REMARK    2  A    between atoms: C16_21  and  O4_4 
REMARK    3  A    between atoms: C2_7  and  C4_9 
REMARK    4  A    between atoms: C16_21  and  C8_13 
ROOT
HETATM    1  O1  UNK     1      18.838   6.253  31.735  1.00  0.00    -0.309 OA
HETATM    2  O3  UNK     1      18.045   3.171  34.279  1.00  0.00    -0.287 OA
HETATM    3  C1  UNK     1      18.413   3.883  32.056  1.00  0.00     0.051 A 
HETATM    4  C2  UNK     1      18.707   6.453  33.100  1.00  0.00     0.091 A 
HETATM    5  C3  UNK     1      18.687   4.982  31.242  1.00  0.00     0.090 A 
HETATM    6  C5  UNK     1      18.281   4.090  33.506  1.00  0.00     0.187 A 
HETATM    7  C6  UNK     1      18.451   5.477  33.985  1.00  0.00     0.093 A 
HETATM    8  C7  UNK     1      18.270   2.611  31.499  1.00  0.00     0.055 A 
HETATM    9  C9  UNK     1      18.819   4.813  29.864  1.00  0.00     0.041 A 
HETATM   10  C10 UNK     1      18.401   2.444  30.120  1.00  0.00     0.069 A 
HETATM   11  C12 UNK     1      18.676   3.543  29.304  1.00  0.00     0.039 A 
ENDROOT
BRANCH   4  12
HETATM   12  C4  UNK     1      18.897   7.855  33.523  1.00  0.00     0.015 A 
HETATM   13  C11 UNK     1      20.130   8.236  34.060  1.00  0.00     0.015 A 
HETATM   14  C14 UNK     1      20.343   9.553  34.468  1.00  0.00     0.001 A 
HETATM   15  C15 UNK     1      19.324  10.495  34.342  1.00  0.00     0.001 A 
HETATM   16  C13 UNK     1      18.091  10.122  33.807  1.00  0.00     0.019 A 
HETATM   17  C8  UNK     1      17.878   8.805  33.398  1.00  0.00     0.050 A 
BRANCH  17  18
HETATM   18  C16 UNK     1      16.575   8.456  32.844  1.00  0.00     0.177 C 
HETATM   19  O5  UNK     1      15.576   8.163  33.505  1.00  0.00    -0.646 OA
BRANCH  18  20
HETATM   20  O4  UNK     1      16.567   8.487  31.485  1.00  0.00    -0.773 OA
HETATM   21  H12 UNK     1      16.601   9.406  31.140  1.00  0.00     0.167 HD
ENDBRANCH  18  20
ENDBRANCH  17  18
ENDBRANCH   4  12
BRANCH  10  22
HETATM   22  O2  UNK     1      18.263   1.207  29.569  1.00  0.00    -0.356 OA
HETATM   23  C17 UNK     1      19.448   0.579  29.080  1.00  0.00     0.210 C 
ENDBRANCH  10  22
TORSDOF 4
ENDMDL
MODEL 2
REMARK VINA RESULT:      -8.0     14.114     17.471
REMARK  4 active torsions:
REMARK  status: ('A' for Active; 'I' for Inactive)
REMARK    1  A    between atoms: C10_15  and  O2_2 
REMARK    2  A    between atoms: C16_21  and  O4_4 
REMARK    3  A    between atoms: C2_7  and  C4_9 
REMARK    4  A    between atoms: C16_21  and  C8_13 
ROOT
HETATM    1  O1  UNK     1      20.412  -1.720  17.522  1.00  0.00    -0.309 OA
HETATM    2  O3  UNK     1      17.698  -2.862  14.707  1.00  0.00    -0.287 OA
HETATM    3  C1  UNK     1      19.761  -3.281  15.779  1.00  0.00     0.051 A 
HETATM    4  C2  UNK     1      19.247  -1.002  17.302  1.00  0.00     0.091 A 
HETATM    5  C3  UNK     1      20.646  -2.836  16.759  1.00  0.00     0.090 A 
HETATM    6  C5  UNK     1      18.521  -2.526  15.548  1.00  0.00     0.187 A 
HETATM    7  C6  UNK     1      18.316  -1.332  16.393  1.00  0.00     0.093 A 
HETATM    8  C7  UNK     1      20.051  -4.425  15.032  1.00  0.00     0.055 A 
HETATM    9  C9  UNK     1      21.830  -3.534  16.999  1.00  0.00     0.041 A 
HETATM   10  C10 UNK     1      21.236  -5.122  15.274  1.00  0.00     0.069 A 
HETATM   11  C12 UNK     1      22.124  -4.678  16.256  1.00  0.00     0.039 A 
ENDROOT
BRANCH   4  12
HETATM   12  C4  UNK     1      19.092   0.174  18.182  1.00  0.00     0.015 A 
HETATM   13  C11 UNK     1      18.915  -0.029  19.554  1.00  0.00     0.015 A 
HETATM   14  C14 UNK     1      18.766   1.060  20.412  1.00  0.00     0.001 A 
HETATM   15  C15 UNK     1      18.792   2.358  19.904  1.00  0.00     0.001 A 
HETATM   16  C13 UNK     1      18.967   2.568  18.536  1.00  0.00     0.019 A 
HETATM   17  C8  UNK     1      19.117   1.479  17.676  1.00  0.00     0.050 A 
BRANCH  17  18
HETATM   18  C16 UNK     1      19.298   1.741  16.254  1.00  0.00     0.177 C 
HETATM   19  O5  UNK     1      19.983   1.062  15.486  1.00  0.00    -0.646 OA
BRANCH  18  20
HETATM   20  O4  UNK     1      18.615   2.842  15.841  1.00  0.00    -0.773 OA
HETATM   21  H12 UNK     1      17.659   2.655  15.718  1.00  0.00     0.167 HD
ENDBRANCH  18  20
ENDBRANCH  17  18
ENDBRANCH   4  12
BRANCH  10  22
HETATM   22  O2  UNK     1      21.527  -6.239  14.551  1.00  0.00    -0.356 OA
HETATM   23  C17 UNK     1      20.565  -6.651  13.581  1.00  0.00     0.210 C 
ENDBRANCH  10  22
TORSDOF 4
ENDMDL
MODEL 3
REMARK VINA RESULT:      -8.0     23.732     25.477
REMARK  4 active torsions:
REMARK  status: ('A' for Active; 'I' for Inactive)
REMARK    1  A    between atoms: C10_15  and  O2_2 
REMARK    2  A    between atoms: C16_21  and  O4_4 
REMARK    3  A    between atoms: C2_7  and  C4_9 
REMARK    4  A    between atoms: C16_21  and  C8_13 
ROOT
HETATM    1  O1  UNK     1       7.808   4.486   8.977  1.00  0.00    -0.309 OA
HETATM    2  O3  UNK     1       6.638   7.412  11.559  1.00  0.00    -0.287 OA
HETATM    3  C1  UNK     1       6.386   5.182  10.819  1.00  0.00     0.051 A 
HETATM    4  C2  UNK     1       8.365   5.755   8.939  1.00  0.00     0.091 A 
HETATM    5  C3  UNK     1       6.834   4.228   9.908  1.00  0.00     0.090 A 
HETATM    6  C5  UNK     1       6.980   6.527  10.787  1.00  0.00     0.187 A 
HETATM    7  C6  UNK     1       8.023   6.756   9.766  1.00  0.00     0.093 A 
HETATM    8  C7  UNK     1       5.391   4.862  11.746  1.00  0.00     0.055 A 
HETATM    9  C9  UNK     1       6.288   2.943   9.918  1.00  0.00     0.041 A 
HETATM   10  C10 UNK     1       4.846   3.578  11.754  1.00  0.00     0.069 A 
HETATM   11  C12 UNK     1       5.294   2.620  10.842  1.00  0.00     0.039 A 
ENDROOT
BRANCH   4  12
HETATM   12  C4  UNK     1       9.408   5.922   7.907  1.00  0.00     0.015 A 
HETATM   13  C11 UNK     1       9.045   6.433   6.657  1.00  0.00     0.015 A 
HETATM   14  C14 UNK     1      10.005   6.603   5.661  1.00  0.00     0.001 A 
HETATM   15  C15 UNK     1      11.334   6.264   5.908  1.00  0.00     0.001 A 
HETATM   16  C13 UNK     1      11.704   5.753   7.153  1.00  0.00     0.019 A 
HETATM   17  C8  UNK     1      10.744   5.582   8.150  1.00  0.00     0.050 A 
BRANCH  17  18
HETATM   18  C16 UNK     1      11.172   5.046   9.436  1.00  0.00     0.177 C 
HETATM   19  O5  UNK     1      11.862   5.645  10.264  1.00  0.00    -0.646 OA
BRANCH  18  20
HETATM   20  O4  UNK     1      10.720   3.780   9.644  1.00  0.00    -0.773 OA
HETATM   21  H12 UNK     1      10.980   3.176   8.914  1.00  0.00     0.167 HD
ENDBRANCH  18  20
ENDBRANCH  17  18
ENDBRANCH   4  12
BRANCH  10  22
HETATM   22  O2  UNK     1       3.876   3.257  12.654  1.00  0.00    -0.356 OA
HETATM   23  C17 UNK     1       4.281   2.526  13.810  1.00  0.00     0.210 C 
ENDBRANCH  10  22
TORSDOF 4
ENDMDL
MODEL 4
REMARK VINA RESULT:      -7.8      1.571      2.483
REMARK  4 active torsions:
REMARK  status: ('A' for Active; 'I' for Inactive)
REMARK    1  A    between atoms: C10_15  and  O2_2 
REMARK    2  A    between atoms: C16_21  and  O4_4 
REMARK    3  A    between atoms: C2_7  and  C4_9 
REMARK    4  A    between atoms: C16_21  and  C8_13 
ROOT
HETATM    1  O1  UNK     1      18.246   5.297  33.459  1.00  0.00    -0.309 OA
HETATM    2  O3  UNK     1      18.979   4.479  29.536  1.00  0.00    -0.287 OA
HETATM    3  C1  UNK     1      18.576   3.644  31.710  1.00  0.00     0.051 A 
HETATM    4  C2  UNK     1      18.427   6.307  32.527  1.00  0.00     0.091 A 
HETATM    5  C3  UNK     1      18.326   3.995  33.036  1.00  0.00     0.090 A 
HETATM    6  C5  UNK     1      18.760   4.714  30.717  1.00  0.00     0.187 A 
HETATM    7  C6  UNK     1      18.666   6.098  31.223  1.00  0.00     0.093 A 
HETATM    8  C7  UNK     1      18.646   2.301  31.336  1.00  0.00     0.055 A 
HETATM    9  C9  UNK     1      18.146   3.000  33.998  1.00  0.00     0.041 A 
HETATM   10  C10 UNK     1      18.466   1.308  32.299  1.00  0.00     0.069 A 
HETATM   11  C12 UNK     1      18.216   1.657  33.628  1.00  0.00     0.039 A 
ENDROOT
BRANCH   4  12
HETATM   12  C4  UNK     1      18.311   7.669  33.088  1.00  0.00     0.015 A 
HETATM   13  C11 UNK     1      19.393   8.200  33.796  1.00  0.00     0.015 A 
HETATM   14  C14 UNK     1      19.317   9.484  34.338  1.00  0.00     0.001 A 
HETATM   15  C15 UNK     1      18.159  10.242  34.174  1.00  0.00     0.001 A 
HETATM   16  C13 UNK     1      17.075   9.717  33.468  1.00  0.00     0.019 A 
HETATM   17  C8  UNK     1      17.151   8.434  32.926  1.00  0.00     0.050 A 
BRANCH  17  18
HETATM   18  C16 UNK     1      15.997   7.923  32.196  1.00  0.00     0.177 C 
HETATM   19  O5  UNK     1      15.208   7.074  32.616  1.00  0.00    -0.646 OA
BRANCH  18  20
HETATM   20  O4  UNK     1      15.869   8.494  30.969  1.00  0.00    -0.773 OA
HETATM   21  H12 UNK     1      16.456   9.274  30.865  1.00  0.00     0.167 HD
ENDBRANCH  18  20
ENDBRANCH  17  18
ENDBRANCH   4  12
BRANCH  10  22
HETATM   22  O2  UNK     1      18.533  -0.004  31.943  1.00  0.00    -0.356 OA
HETATM   23  C17 UNK     1      18.651  -0.957  32.999  1.00  0.00     0.210 C 
ENDBRANCH  10  22
TORSDOF 4
ENDMDL
MODEL 5
REMARK VINA RESULT:      -7.8      1.948      6.821
REMARK  4 active torsions:
REMARK  status: ('A' for Active; 'I' for Inactive)
REMARK    1  A    between atoms: C10_15  and  O2_2 
REMARK    2  A    between atoms: C16_21  and  O4_4 
REMARK    3  A    between atoms: C2_7  and  C4_9 
REMARK    4  A    between atoms: C16_21  and  C8_13 
ROOT
HETATM    1  O1  UNK     1      17.133   6.981  32.492  1.00  0.00    -0.309 OA
HETATM    2  O3  UNK     1      20.153   8.819  34.517  1.00  0.00    -0.287 OA
HETATM    3  C1  UNK     1      17.936   8.925  33.707  1.00  0.00     0.051 A 
HETATM    4  C2  UNK     1      18.364   6.369  32.674  1.00  0.00     0.091 A 
HETATM    5  C3  UNK     1      16.946   8.239  33.006  1.00  0.00     0.090 A 
HETATM    6  C5  UNK     1      19.240   8.276  33.909  1.00  0.00     0.187 A 
HETATM    7  C6  UNK     1      19.393   6.924  33.336  1.00  0.00     0.093 A 
HETATM    8  C7  UNK     1      17.689  10.205  34.209  1.00  0.00     0.055 A 
HETATM    9  C9  UNK     1      15.699   8.830  32.802  1.00  0.00     0.041 A 
HETATM   10  C10 UNK     1      16.441  10.795  34.003  1.00  0.00     0.069 A 
HETATM   11  C12 UNK     1      15.448  10.109  33.302  1.00  0.00     0.039 A 
ENDROOT
BRANCH   4  12
HETATM   12  C4  UNK     1      18.454   5.016  32.090  1.00  0.00     0.015 A 
HETATM   13  C11 UNK     1      18.094   3.917  32.875  1.00  0.00     0.015 A 
HETATM   14  C14 UNK     1      18.167   2.626  32.353  1.00  0.00     0.001 A 
HETATM   15  C15 UNK     1      18.602   2.427  31.043  1.00  0.00     0.001 A 
HETATM   16  C13 UNK     1      18.964   3.519  30.254  1.00  0.00     0.019 A 
HETATM   17  C8  UNK     1      18.890   4.811  30.776  1.00  0.00     0.050 A 
BRANCH  17  18
HETATM   18  C16 UNK     1      19.277   5.925  29.919  1.00  0.00     0.177 C 
HETATM   19  O5  UNK     1      20.436   6.234  29.633  1.00  0.00    -0.646 OA
BRANCH  18  20
HETATM   20  O4  UNK     1      18.202   6.612  29.448  1.00  0.00    -0.773 OA
HETATM   21  H12 UNK     1      17.508   6.718  30.134  1.00  0.00     0.167 HD
ENDBRANCH  18  20
ENDBRANCH  17  18
ENDBRANCH   4  12
BRANCH  10  22
HETATM   22  O2  UNK     1      16.191  12.042  34.489  1.00  0.00    -0.356 OA
HETATM   23  C17 UNK     1      17.317  12.892  34.702  1.00  0.00     0.210 C 
ENDBRANCH  10  22
TORSDOF 4
ENDMDL
MODEL 6
REMARK VINA RESULT:      -7.7      2.163      3.902
REMARK  4 active torsions:
REMARK  status: ('A' for Active; 'I' for Inactive)
REMARK    1  A    between atoms: C10_15  and  O2_2 
REMARK    2  A    between atoms: C16_21  and  O4_4 
REMARK    3  A    between atoms: C2_7  and  C4_9 
REMARK    4  A    between atoms: C16_21  and  C8_13 
ROOT
HETATM    1  O1  UNK     1      17.953   3.650  33.156  1.00  0.00    -0.309 OA
HETATM    2  O3  UNK     1      19.054   2.489  29.409  1.00  0.00    -0.287 OA
HETATM    3  C1  UNK     1      18.646   1.872  31.654  1.00  0.00     0.051 A 
HETATM    4  C2  UNK     1      18.035   4.555  32.109  1.00  0.00     0.091 A 
HETATM    5  C3  UNK     1      18.261   2.336  32.910  1.00  0.00     0.090 A 
HETATM    6  C5  UNK     1      18.727   2.828  30.539  1.00  0.00     0.187 A 
HETATM    7  C6  UNK     1      18.387   4.230  30.855  1.00  0.00     0.093 A 
HETATM    8  C7  UNK     1      18.947   0.522  31.461  1.00  0.00     0.055 A 
HETATM    9  C9  UNK     1      18.174   1.450  33.985  1.00  0.00     0.041 A 
HETATM   10  C10 UNK     1      18.861  -0.362  32.537  1.00  0.00     0.069 A 
HETATM   11  C12 UNK     1      18.475   0.101  33.796  1.00  0.00     0.039 A 
ENDROOT
BRANCH   4  12
HETATM   12  C4  UNK     1      17.675   5.938  32.482  1.00  0.00     0.015 A 
HETATM   13  C11 UNK     1      16.411   6.423  32.133  1.00  0.00     0.015 A 
HETATM   14  C14 UNK     1      16.039   7.724  32.471  1.00  0.00     0.001 A 
HETATM   15  C15 UNK     1      16.929   8.548  33.157  1.00  0.00     0.001 A 
HETATM   16  C13 UNK     1      18.193   8.071  33.507  1.00  0.00     0.019 A 
HETATM   17  C8  UNK     1      18.565   6.769  33.171  1.00  0.00     0.050 A 
BRANCH  17  18
HETATM   18  C16 UNK     1      19.894   6.310  33.555  1.00  0.00     0.177 C 
HETATM   19  O5  UNK     1      20.940   6.579  32.960  1.00  0.00    -0.646 OA
BRANCH  18  20
HETATM   20  O4  UNK     1      19.870   5.532  34.670  1.00  0.00    -0.773 OA
HETATM   21  H12 UNK     1      20.539   5.817  35.329  1.00  0.00     0.167 HD
ENDBRANCH  18  20
ENDBRANCH  17  18
ENDBRANCH   4  12
BRANCH  10  22
HETATM   22  O2  UNK     1      19.152  -1.680  32.359  1.00  0.00    -0.356 OA
HETATM   23  C17 UNK     1      20.091  -2.003  31.334  1.00  0.00     0.210 C 
ENDBRANCH  10  22
TORSDOF 4
ENDMDL
MODEL 7
REMARK VINA RESULT:      -7.7      8.074     11.419
REMARK  4 active torsions:
REMARK  status: ('A' for Active; 'I' for Inactive)
REMARK    1  A    between atoms: C10_15  and  O2_2 
REMARK    2  A    between atoms: C16_21  and  O4_4 
REMARK    3  A    between atoms: C2_7  and  C4_9 
REMARK    4  A    between atoms: C16_21  and  C8_13 
ROOT
HETATM    1  O1  UNK     1      20.424  -3.733  35.104  1.00  0.00    -0.309 OA
HETATM    2  O3  UNK     1      17.868  -0.936  36.602  1.00  0.00    -0.287 OA
HETATM    3  C1  UNK     1      19.117  -1.716  34.753  1.00  0.00     0.051 A 
HETATM    4  C2  UNK     1      19.980  -3.782  36.416  1.00  0.00     0.091 A 
HETATM    5  C3  UNK     1      19.989  -2.706  34.305  1.00  0.00     0.090 A 
HETATM    6  C5  UNK     1      18.638  -1.770  36.143  1.00  0.00     0.187 A 
HETATM    7  C6  UNK     1      19.136  -2.893  36.962  1.00  0.00     0.093 A 
HETATM    8  C7  UNK     1      18.707  -0.694  33.895  1.00  0.00     0.055 A 
HETATM    9  C9  UNK     1      20.458  -2.679  32.991  1.00  0.00     0.041 A 
HETATM   10  C10 UNK     1      19.177  -0.668  32.581  1.00  0.00     0.069 A 
HETATM   11  C12 UNK     1      20.050  -1.659  32.130  1.00  0.00     0.039 A 
ENDROOT
BRANCH   4  12
HETATM   12  C4  UNK     1      20.502  -4.931  37.183  1.00  0.00     0.015 A 
HETATM   13  C11 UNK     1      21.693  -4.778  37.899  1.00  0.00     0.015 A 
HETATM   14  C14 UNK     1      22.213  -5.844  38.634  1.00  0.00     0.001 A 
HETATM   15  C15 UNK     1      21.545  -7.067  38.658  1.00  0.00     0.001 A 
HETATM   16  C13 UNK     1      20.356  -7.226  37.945  1.00  0.00     0.019 A 
HETATM   17  C8  UNK     1      19.836  -6.161  37.209  1.00  0.00     0.050 A 
BRANCH  17  18
HETATM   18  C16 UNK     1      18.591  -6.369  36.479  1.00  0.00     0.177 C 
HETATM   19  O5  UNK     1      18.505  -6.815  35.332  1.00  0.00    -0.646 OA
BRANCH  18  20
HETATM   20  O4  UNK     1      17.499  -6.015  37.207  1.00  0.00    -0.773 OA
HETATM   21  H12 UNK     1      17.738  -5.774  38.129  1.00  0.00     0.167 HD
ENDBRANCH  18  20
ENDBRANCH  17  18
ENDBRANCH   4  12
BRANCH  10  22
HETATM   22  O2  UNK     1      18.782   0.324  31.737  1.00  0.00    -0.356 OA
HETATM   23  C17 UNK     1      19.598   0.564  30.591  1.00  0.00     0.210 C 
ENDBRANCH  10  22
TORSDOF 4
ENDMDL
MODEL 8
REMARK VINA RESULT:      -7.7      9.170     11.597
REMARK  4 active torsions:
REMARK  status: ('A' for Active; 'I' for Inactive)
REMARK    1  A    between atoms: C10_15  and  O2_2 
REMARK    2  A    between atoms: C16_21  and  O4_4 
REMARK    3  A    between atoms: C2_7  and  C4_9 
REMARK    4  A    between atoms: C16_21  and  C8_13 
ROOT
HETATM    1  O1  UNK     1      18.737  -4.523  36.503  1.00  0.00    -0.309 OA
HETATM    2  O3  UNK     1      22.354  -5.444  38.136  1.00  0.00    -0.287 OA
HETATM    3  C1  UNK     1      20.358  -6.218  37.134  1.00  0.00     0.051 A 
HETATM    4  C2  UNK     1      19.586  -3.541  36.990  1.00  0.00     0.091 A 
HETATM    5  C3  UNK     1      19.136  -5.833  36.587  1.00  0.00     0.090 A 
HETATM    6  C5  UNK     1      21.265  -5.178  37.646  1.00  0.00     0.187 A 
HETATM    7  C6  UNK     1      20.789  -3.785  37.533  1.00  0.00     0.093 A 
HETATM    8  C7  UNK     1      20.712  -7.567  37.194  1.00  0.00     0.055 A 
HETATM    9  C9  UNK     1      18.258  -6.798  36.093  1.00  0.00     0.041 A 
HETATM   10  C10 UNK     1      19.832  -8.532  36.700  1.00  0.00     0.069 A 
HETATM   11  C12 UNK     1      18.608  -8.148  36.151  1.00  0.00     0.039 A 
ENDROOT
BRANCH   4  12
HETATM   12  C4  UNK     1      19.063  -2.168  36.842  1.00  0.00     0.015 A 
HETATM   13  C11 UNK     1      18.291  -1.626  37.874  1.00  0.00     0.015 A 
HETATM   14  C14 UNK     1      17.783  -0.331  37.766  1.00  0.00     0.001 A 
HETATM   15  C15 UNK     1      18.043   0.427  36.626  1.00  0.00     0.001 A 
HETATM   16  C13 UNK     1      18.812  -0.108  35.592  1.00  0.00     0.019 A 
HETATM   17  C8  UNK     1      19.321  -1.402  35.700  1.00  0.00     0.050 A 
BRANCH  17  18
HETATM   18  C16 UNK     1      20.120  -1.924  34.597  1.00  0.00     0.177 C 
HETATM   19  O5  UNK     1      21.339  -2.106  34.625  1.00  0.00    -0.646 OA
BRANCH  18  20
HETATM   20  O4  UNK     1      19.366  -2.202  33.500  1.00  0.00    -0.773 OA
HETATM   21  H12 UNK     1      18.713  -1.492  33.316  1.00  0.00     0.167 HD
ENDBRANCH  18  20
ENDBRANCH  17  18
ENDBRANCH   4  12
BRANCH  10  22
HETATM   22  O2  UNK     1      20.169  -9.849  36.754  1.00  0.00    -0.356 OA
HETATM   23  C17 UNK     1      19.549 -10.637  37.769  1.00  0.00     0.210 C 
ENDBRANCH  10  22
TORSDOF 4
ENDMDL
MODEL 9
REMARK VINA RESULT:      -7.7     22.543     24.885
REMARK  4 active torsions:
REMARK  status: ('A' for Active; 'I' for Inactive)
REMARK    1  A    between atoms: C10_15  and  O2_2 
REMARK    2  A    between atoms: C16_21  and  O4_4 
REMARK    3  A    between atoms: C2_7  and  C4_9 
REMARK    4  A    between atoms: C16_21  and  C8_13 
ROOT
HETATM    1  O1  UNK     1      12.961   8.748   8.495  1.00  0.00    -0.309 OA
HETATM    2  O3  UNK     1      15.052   6.242  10.933  1.00  0.00    -0.287 OA
HETATM    3  C1  UNK     1      15.037   8.221   9.641  1.00  0.00     0.051 A 
HETATM    4  C2  UNK     1      12.392   7.595   9.012  1.00  0.00     0.091 A 
HETATM    5  C3  UNK     1      14.264   9.035   8.815  1.00  0.00     0.090 A 
HETATM    6  C5  UNK     1      14.434   7.001  10.198  1.00  0.00     0.187 A 
HETATM    7  C6  UNK     1      13.030   6.736   9.823  1.00  0.00     0.093 A 
HETATM    8  C7  UNK     1      16.359   8.563   9.933  1.00  0.00     0.055 A 
HETATM    9  C9  UNK     1      14.811  10.199   8.274  1.00  0.00     0.041 A 
HETATM   10  C10 UNK     1      16.904   9.727   9.391  1.00  0.00     0.069 A 
HETATM   11  C12 UNK     1      16.132  10.544   8.563  1.00  0.00     0.039 A 
ENDROOT
BRANCH   4  12
HETATM   12  C4  UNK     1      10.986   7.388   8.612  1.00  0.00     0.015 A 
HETATM   13  C11 UNK     1       9.986   8.121   9.258  1.00  0.00     0.015 A 
HETATM   14  C14 UNK     1       8.648   7.950   8.904  1.00  0.00     0.001 A 
HETATM   15  C15 UNK     1       8.302   7.044   7.903  1.00  0.00     0.001 A 
HETATM   16  C13 UNK     1       9.295   6.309   7.254  1.00  0.00     0.019 A 
HETATM   17  C8  UNK     1      10.633   6.480   7.607  1.00  0.00     0.050 A 
BRANCH  17  18
HETATM   18  C16 UNK     1      11.639   5.693   6.905  1.00  0.00     0.177 C 
HETATM   19  O5  UNK     1      12.161   4.660   7.332  1.00  0.00    -0.646 OA
BRANCH  18  20
HETATM   20  O4  UNK     1      11.957   6.223   5.694  1.00  0.00    -0.773 OA
HETATM   21  H12 UNK     1      11.616   7.138   5.595  1.00  0.00     0.167 HD
ENDBRANCH  18  20
ENDBRANCH  17  18
ENDBRANCH   4  12
BRANCH  10  22
HETATM   22  O2  UNK     1      18.192  10.069   9.671  1.00  0.00    -0.356 OA
HETATM   23  C17 UNK     1      18.490  11.462   9.753  1.00  0.00     0.210 C 
ENDBRANCH  10  22
TORSDOF 4
ENDMDL
MODEL 10
REMARK VINA RESULT:      -7.7      3.063      6.780
REMARK  4 active torsions:
REMARK  status: ('A' for Active; 'I' for Inactive)
REMARK    1  A    between atoms: C10_15  and  O2_2 
REMARK    2  A    between atoms: C16_21  and  O4_4 
REMARK    3  A    between atoms: C2_7  and  C4_9 
REMARK    4  A    between atoms: C16_21  and  C8_13 
ROOT
HETATM    1  O1  UNK     1      17.265   8.741  32.882  1.00  0.00    -0.309 OA
HETATM    2  O3  UNK     1      13.731   6.925  31.983  1.00  0.00    -0.287 OA
HETATM    3  C1  UNK     1      14.837   8.800  32.903  1.00  0.00     0.051 A 
HETATM    4  C2  UNK     1      17.221   7.493  32.281  1.00  0.00     0.091 A 
HETATM    5  C3  UNK     1      16.080   9.364  33.181  1.00  0.00     0.090 A 
HETATM    6  C5  UNK     1      14.787   7.478  32.259  1.00  0.00     0.187 A 
HETATM    7  C6  UNK     1      16.088   6.849  31.958  1.00  0.00     0.093 A 
HETATM    8  C7  UNK     1      13.662   9.480  33.231  1.00  0.00     0.055 A 
HETATM    9  C9  UNK     1      16.156  10.617  33.791  1.00  0.00     0.041 A 
HETATM   10  C10 UNK     1      13.740  10.733  33.841  1.00  0.00     0.069 A 
HETATM   11  C12 UNK     1      14.985  11.301  34.120  1.00  0.00     0.039 A 
ENDROOT
BRANCH   4  12
HETATM   12  C4  UNK     1      18.551   6.918  31.994  1.00  0.00     0.015 A 
HETATM   13  C11 UNK     1      18.768   6.305  30.756  1.00  0.00     0.015 A 
HETATM   14  C14 UNK     1      20.013   5.753  30.454  1.00  0.00     0.001 A 
HETATM   15  C15 UNK     1      21.046   5.809  31.387  1.00  0.00     0.001 A 
HETATM   16  C13 UNK     1      20.836   6.419  32.625  1.00  0.00     0.019 A 
HETATM   17  C8  UNK     1      19.592   6.972  32.928  1.00  0.00     0.050 A 
BRANCH  17  18
HETATM   18  C16 UNK     1      19.414   7.599  34.232  1.00  0.00     0.177 C 
HETATM   19  O5  UNK     1      19.961   8.640  34.602  1.00  0.00    -0.646 OA
BRANCH  18  20
HETATM   20  O4  UNK     1      18.557   6.904  35.026  1.00  0.00    -0.773 OA
HETATM   21  H12 UNK     1      19.026   6.451  35.761  1.00  0.00     0.167 HD
ENDBRANCH  18  20
ENDBRANCH  17  18
ENDBRANCH   4  12
BRANCH  10  22
HETATM   22  O2  UNK     1      12.600  11.404  34.164  1.00  0.00    -0.356 OA
HETATM   23  C17 UNK     1      11.937  12.099  33.109  1.00  0.00     0.210 C 
ENDBRANCH  10  22
TORSDOF 4
ENDMDL
