MODEL 1
REMARK VINA RESULT:      -9.2      0.000      0.000
REMARK  7 active torsions:
REMARK  status: ('A' for Active; 'I' for Inactive)
REMARK    1  A    between atoms: C15_22  and  O3_3 
REMARK    2  A    between atoms: C23_30  and  O3_3 
REMARK    3  A    between atoms: C5_12  and  N1_5 
REMARK    4  A    between atoms: C6_13  and  N2_6 
REMARK    5  A    between atoms: C16_23  and  N3_7 
REMARK       I    between atoms: C9_16  and  N3_7 
REMARK    6  A    between atoms: C5_12  and  C7_14 
REMARK    7  A    between atoms: C6_13  and  C9_16 
ROOT
HETATM    1  N1  UNK     1      18.823   3.645  31.364  1.00  0.00     0.096 N 
HETATM    2  N2  UNK     1      19.213   6.323  32.382  1.00  0.00     0.100 N 
HETATM    3  C1  UNK     1      19.296   4.730  30.495  1.00  0.00     0.303 C 
HETATM    4  C2  UNK     1      17.984   4.182  32.443  1.00  0.00     0.303 C 
HETATM    5  C3  UNK     1      20.055   5.788  31.304  1.00  0.00     0.303 C 
HETATM    6  C4  UNK     1      18.743   5.238  33.252  1.00  0.00     0.303 C 
ENDROOT
BRANCH   1   7
HETATM    7  C5  UNK     1      18.097   2.640  30.592  1.00  0.00     0.312 C 
BRANCH   7   8
HETATM    8  C7  UNK     1      18.827   1.343  30.531  1.00  0.00    -0.011 A 
HETATM    9  C10 UNK     1      19.445   0.948  29.409  1.00  0.00     0.092 A 
HETATM   10  C13 UNK     1      20.178  -0.325  29.301  1.00  0.00     0.288 A 
HETATM   11  O1  UNK     1      20.209  -1.125  30.433  1.00  0.00    -0.275 OA
HETATM   12  O4  UNK     1      20.732  -0.654  28.258  1.00  0.00    -0.260 OA
HETATM   13  C11 UNK     1      19.567  -0.736  31.627  1.00  0.00     0.090 A 
HETATM   14  C8  UNK     1      18.876   0.473  31.714  1.00  0.00     0.009 A 
HETATM   15  C14 UNK     1      19.661  -1.620  32.703  1.00  0.00     0.041 A 
HETATM   16  C12 UNK     1      18.264   0.786  32.936  1.00  0.00     0.051 A 
HETATM   17  C15 UNK     1      18.351  -0.091  34.024  1.00  0.00     0.069 A 
HETATM   18  C17 UNK     1      19.049  -1.292  33.908  1.00  0.00     0.039 A 
BRANCH  17  19
HETATM   19  O3  UNK     1      17.749   0.232  35.202  1.00  0.00    -0.351 OA
BRANCH  19  20
HETATM   20  C23 UNK     1      18.508   1.008  36.127  1.00  0.00     0.171 C 
HETATM   21  C25 UNK     1      17.639   1.339  37.322  1.00  0.00     0.034 C 
ENDBRANCH  19  20
ENDBRANCH  17  19
ENDBRANCH   7   8
ENDBRANCH   1   7
BRANCH   2  22
HETATM   22  C6  UNK     1      19.938   7.331  33.154  1.00  0.00     0.375 C 
BRANCH  22  23
HETATM   23  C9  UNK     1      18.980   8.020  34.110  1.00  0.00     0.250 C 
HETATM   24  O2  UNK     1      19.119   7.980  35.329  1.00  0.00    -0.271 OA
HETATM   25  N3  UNK     1      17.978   8.675  33.398  1.00  0.00    -0.325 N 
HETATM   26  H15 UNK     1      18.019   8.615  32.385  1.00  0.00     0.169 HD
BRANCH  25  27
HETATM   27  C16 UNK     1      16.900   9.429  33.921  1.00  0.00     0.040 A 
HETATM   28  C18 UNK     1      15.650   8.844  34.125  1.00  0.00    -0.035 A 
HETATM   29  C20 UNK     1      14.600   9.604  34.640  1.00  0.00     0.009 A 
HETATM   30  C21 UNK     1      15.408   7.406  33.800  1.00  0.00     0.050 C 
HETATM   31  C24 UNK     1      14.800  10.949  34.952  1.00  0.00     0.001 A 
HETATM   32  C22 UNK     1      16.049  11.534  34.748  1.00  0.00     0.002 A 
HETATM   33  C19 UNK     1      17.099  10.775  34.233  1.00  0.00     0.030 A 
ENDBRANCH  25  27
ENDBRANCH  22  23
ENDBRANCH   2  22
TORSDOF 7
ENDMDL
MODEL 2
REMARK VINA RESULT:      -8.8      5.327     11.106
REMARK  7 active torsions:
REMARK  status: ('A' for Active; 'I' for Inactive)
REMARK    1  A    between atoms: C15_22  and  O3_3 
REMARK    2  A    between atoms: C23_30  and  O3_3 
REMARK    3  A    between atoms: C5_12  and  N1_5 
REMARK    4  A    between atoms: C6_13  and  N2_6 
REMARK    5  A    between atoms: C16_23  and  N3_7 
REMARK       I    between atoms: C9_16  and  N3_7 
REMARK    6  A    between atoms: C5_12  and  C7_14 
REMARK    7  A    between atoms: C6_13  and  C9_16 
ROOT
HETATM    1  N1  UNK     1      18.778  -0.966  35.186  1.00  0.00     0.096 N 
HETATM    2  N2  UNK     1      19.743  -3.063  36.927  1.00  0.00     0.100 N 
HETATM    3  C1  UNK     1      17.966  -1.464  36.304  1.00  0.00     0.303 C 
HETATM    4  C2  UNK     1      19.665  -2.024  34.688  1.00  0.00     0.303 C 
HETATM    5  C3  UNK     1      18.857  -2.006  37.428  1.00  0.00     0.303 C 
HETATM    6  C4  UNK     1      20.556  -2.565  35.811  1.00  0.00     0.303 C 
ENDROOT
BRANCH   1   7
HETATM    7  C5  UNK     1      17.927  -0.453  34.115  1.00  0.00     0.312 C 
BRANCH   7   8
HETATM    8  C7  UNK     1      18.639  -0.406  32.807  1.00  0.00    -0.011 A 
HETATM    9  C10 UNK     1      19.256  -1.489  32.314  1.00  0.00     0.092 A 
HETATM   10  C13 UNK     1      19.972  -1.489  31.027  1.00  0.00     0.288 A 
HETATM   11  O1  UNK     1      19.986  -0.296  30.322  1.00  0.00    -0.275 OA
HETATM   12  O4  UNK     1      20.525  -2.499  30.608  1.00  0.00    -0.260 OA
HETATM   13  C11 UNK     1      19.347   0.860  30.815  1.00  0.00     0.090 A 
HETATM   14  C8  UNK     1      18.673   0.845  32.037  1.00  0.00     0.009 A 
HETATM   15  C14 UNK     1      19.427   2.006  30.021  1.00  0.00     0.041 A 
HETATM   16  C12 UNK     1      18.064   2.036  32.457  1.00  0.00     0.051 A 
HETATM   17  C15 UNK     1      18.136   3.192  31.672  1.00  0.00     0.069 A 
HETATM   18  C17 UNK     1      18.816   3.177  30.456  1.00  0.00     0.039 A 
BRANCH  17  19
HETATM   19  O3  UNK     1      17.539   4.339  32.100  1.00  0.00    -0.351 OA
BRANCH  19  20
HETATM   20  C23 UNK     1      18.378   5.477  32.289  1.00  0.00     0.171 C 
HETATM   21  C25 UNK     1      19.000   5.408  33.667  1.00  0.00     0.034 C 
ENDBRANCH  19  20
ENDBRANCH  17  19
ENDBRANCH   7   8
ENDBRANCH   1   7
BRANCH   2  22
HETATM   22  C6  UNK     1      20.593  -3.579  37.999  1.00  0.00     0.375 C 
BRANCH  22  23
HETATM   23  C9  UNK     1      20.830  -5.064  37.786  1.00  0.00     0.250 C 
HETATM   24  O2  UNK     1      21.861  -5.505  37.288  1.00  0.00    -0.271 OA
HETATM   25  N3  UNK     1      19.734  -5.796  38.239  1.00  0.00    -0.325 N 
HETATM   26  H15 UNK     1      18.962  -5.269  38.637  1.00  0.00     0.169 HD
BRANCH  25  27
HETATM   27  C16 UNK     1      19.566  -7.201  38.218  1.00  0.00     0.040 A 
HETATM   28  C18 UNK     1      18.934  -7.830  37.145  1.00  0.00    -0.035 A 
HETATM   29  C20 UNK     1      18.777  -9.216  37.143  1.00  0.00     0.009 A 
HETATM   30  C21 UNK     1      18.415  -7.043  35.985  1.00  0.00     0.050 C 
HETATM   31  C24 UNK     1      19.254  -9.973  38.213  1.00  0.00     0.001 A 
HETATM   32  C22 UNK     1      19.885  -9.345  39.285  1.00  0.00     0.002 A 
HETATM   33  C19 UNK     1      20.042  -7.959  39.288  1.00  0.00     0.030 A 
ENDBRANCH  25  27
ENDBRANCH  22  23
ENDBRANCH   2  22
TORSDOF 7
ENDMDL
MODEL 3
REMARK VINA RESULT:      -8.6     13.638     17.423
REMARK  7 active torsions:
REMARK  status: ('A' for Active; 'I' for Inactive)
REMARK    1  A    between atoms: C15_22  and  O3_3 
REMARK    2  A    between atoms: C23_30  and  O3_3 
REMARK    3  A    between atoms: C5_12  and  N1_5 
REMARK    4  A    between atoms: C6_13  and  N2_6 
REMARK    5  A    between atoms: C16_23  and  N3_7 
REMARK       I    between atoms: C9_16  and  N3_7 
REMARK    6  A    between atoms: C5_12  and  C7_14 
REMARK    7  A    between atoms: C6_13  and  C9_16 
ROOT
HETATM    1  N1  UNK     1      26.847  -9.412  37.556  1.00  0.00     0.096 N 
HETATM    2  N2  UNK     1      29.673  -9.143  38.100  1.00  0.00     0.100 N 
HETATM    3  C1  UNK     1      27.735  -8.693  36.635  1.00  0.00     0.303 C 
HETATM    4  C2  UNK     1      27.355  -9.325  38.931  1.00  0.00     0.303 C 
HETATM    5  C3  UNK     1      29.168  -9.232  36.724  1.00  0.00     0.303 C 
HETATM    6  C4  UNK     1      28.786  -9.865  39.020  1.00  0.00     0.303 C 
ENDROOT
BRANCH   1   7
HETATM    7  C5  UNK     1      25.483  -8.895  37.472  1.00  0.00     0.312 C 
BRANCH   7   8
HETATM    8  C7  UNK     1      24.571  -9.828  36.753  1.00  0.00    -0.011 A 
HETATM    9  C10 UNK     1      25.012 -11.004  36.284  1.00  0.00     0.092 A 
HETATM   10  C13 UNK     1      24.149 -11.957  35.567  1.00  0.00     0.288 A 
HETATM   11  O1  UNK     1      22.825 -11.588  35.390  1.00  0.00    -0.275 OA
HETATM   12  O4  UNK     1      24.588 -13.025  35.152  1.00  0.00    -0.260 OA
HETATM   13  C11 UNK     1      22.332 -10.358  35.871  1.00  0.00     0.090 A 
HETATM   14  C8  UNK     1      23.163  -9.463  36.548  1.00  0.00     0.009 A 
HETATM   15  C14 UNK     1      20.983 -10.089  35.633  1.00  0.00     0.041 A 
HETATM   16  C12 UNK     1      22.596  -8.261  36.993  1.00  0.00     0.051 A 
HETATM   17  C15 UNK     1      21.245  -7.978  36.763  1.00  0.00     0.069 A 
HETATM   18  C17 UNK     1      20.440  -8.891  36.084  1.00  0.00     0.039 A 
BRANCH  17  19
HETATM   19  O3  UNK     1      20.715  -6.804  37.203  1.00  0.00    -0.351 OA
BRANCH  19  20
HETATM   20  C23 UNK     1      19.557  -6.885  38.032  1.00  0.00     0.171 C 
HETATM   21  C25 UNK     1      19.988  -7.136  39.460  1.00  0.00     0.034 C 
ENDBRANCH  19  20
ENDBRANCH  17  19
ENDBRANCH   7   8
ENDBRANCH   1   7
BRANCH   2  22
HETATM   22  C6  UNK     1      31.039  -9.659  38.184  1.00  0.00     0.375 C 
BRANCH  22  23
HETATM   23  C9  UNK     1      31.915  -8.935  37.177  1.00  0.00     0.250 C 
HETATM   24  O2  UNK     1      32.314  -9.466  36.145  1.00  0.00    -0.271 OA
HETATM   25  N3  UNK     1      32.165  -7.632  37.604  1.00  0.00    -0.325 N 
HETATM   26  H15 UNK     1      31.745  -7.349  38.484  1.00  0.00     0.169 HD
BRANCH  25  27
HETATM   27  C16 UNK     1      32.935  -6.642  36.949  1.00  0.00     0.040 A 
HETATM   28  C18 UNK     1      32.323  -5.649  36.183  1.00  0.00    -0.035 A 
HETATM   29  C20 UNK     1      33.100  -4.683  35.545  1.00  0.00     0.009 A 
HETATM   30  C21 UNK     1      30.837  -5.599  36.029  1.00  0.00     0.050 C 
HETATM   31  C24 UNK     1      34.488  -4.708  35.673  1.00  0.00     0.001 A 
HETATM   32  C22 UNK     1      35.100  -5.699  36.438  1.00  0.00     0.002 A 
HETATM   33  C19 UNK     1      34.325  -6.666  37.077  1.00  0.00     0.030 A 
ENDBRANCH  25  27
ENDBRANCH  22  23
ENDBRANCH   2  22
TORSDOF 7
ENDMDL
MODEL 4
REMARK VINA RESULT:      -8.6      4.433     10.545
REMARK  7 active torsions:
REMARK  status: ('A' for Active; 'I' for Inactive)
REMARK    1  A    between atoms: C15_22  and  O3_3 
REMARK    2  A    between atoms: C23_30  and  O3_3 
REMARK    3  A    between atoms: C5_12  and  N1_5 
REMARK    4  A    between atoms: C6_13  and  N2_6 
REMARK    5  A    between atoms: C16_23  and  N3_7 
REMARK       I    between atoms: C9_16  and  N3_7 
REMARK    6  A    between atoms: C5_12  and  C7_14 
REMARK    7  A    between atoms: C6_13  and  C9_16 
ROOT
HETATM    1  N1  UNK     1      18.686   0.767  34.016  1.00  0.00     0.096 N 
HETATM    2  N2  UNK     1      19.336  -1.724  35.333  1.00  0.00     0.100 N 
HETATM    3  C1  UNK     1      18.630   0.640  35.478  1.00  0.00     0.303 C 
HETATM    4  C2  UNK     1      18.413  -0.528  33.379  1.00  0.00     0.303 C 
HETATM    5  C3  UNK     1      19.611  -0.431  35.971  1.00  0.00     0.303 C 
HETATM    6  C4  UNK     1      19.393  -1.597  33.872  1.00  0.00     0.303 C 
ENDROOT
BRANCH   1   7
HETATM    7  C5  UNK     1      17.748   1.784  33.547  1.00  0.00     0.312 C 
BRANCH   7   8
HETATM    8  C7  UNK     1      18.166   2.377  32.246  1.00  0.00    -0.011 A 
HETATM    9  C10 UNK     1      18.321   1.613  31.155  1.00  0.00     0.092 A 
HETATM   10  C13 UNK     1      18.734   2.153  29.849  1.00  0.00     0.288 A 
HETATM   11  O1  UNK     1      18.962   3.519  29.783  1.00  0.00    -0.275 OA
HETATM   12  O4  UNK     1      18.865   1.424  28.872  1.00  0.00    -0.260 OA
HETATM   13  C11 UNK     1      18.808   4.347  30.913  1.00  0.00     0.090 A 
HETATM   14  C8  UNK     1      18.417   3.821  32.146  1.00  0.00     0.009 A 
HETATM   15  C14 UNK     1      19.066   5.707  30.732  1.00  0.00     0.041 A 
HETATM   16  C12 UNK     1      18.288   4.711  33.221  1.00  0.00     0.051 A 
HETATM   17  C15 UNK     1      18.543   6.077  33.053  1.00  0.00     0.069 A 
HETATM   18  C17 UNK     1      18.931   6.574  31.811  1.00  0.00     0.039 A 
BRANCH  17  19
HETATM   19  O3  UNK     1      18.412   6.924  34.111  1.00  0.00    -0.351 OA
BRANCH  19  20
HETATM   20  C23 UNK     1      18.573   8.318  33.851  1.00  0.00     0.171 C 
HETATM   21  C25 UNK     1      19.819   8.810  34.554  1.00  0.00     0.034 C 
ENDBRANCH  19  20
ENDBRANCH  17  19
ENDBRANCH   7   8
ENDBRANCH   1   7
BRANCH   2  22
HETATM   22  C6  UNK     1      20.272  -2.744  35.803  1.00  0.00     0.375 C 
BRANCH  22  23
HETATM   23  C9  UNK     1      19.508  -3.833  36.534  1.00  0.00     0.250 C 
HETATM   24  O2  UNK     1      18.326  -3.718  36.843  1.00  0.00    -0.271 OA
HETATM   25  N3  UNK     1      20.337  -4.928  36.771  1.00  0.00    -0.325 N 
HETATM   26  H15 UNK     1      21.293  -4.861  36.436  1.00  0.00     0.169 HD
BRANCH  25  27
HETATM   27  C16 UNK     1      20.003  -6.139  37.424  1.00  0.00     0.040 A 
HETATM   28  C18 UNK     1      19.351  -7.164  36.738  1.00  0.00    -0.035 A 
HETATM   29  C20 UNK     1      19.030  -8.350  37.399  1.00  0.00     0.009 A 
HETATM   30  C21 UNK     1      18.986  -7.020  35.296  1.00  0.00     0.050 C 
HETATM   31  C24 UNK     1      19.361  -8.510  38.744  1.00  0.00     0.001 A 
HETATM   32  C22 UNK     1      20.012  -7.485  39.429  1.00  0.00     0.002 A 
HETATM   33  C19 UNK     1      20.333  -6.299  38.770  1.00  0.00     0.030 A 
ENDBRANCH  25  27
ENDBRANCH  22  23
ENDBRANCH   2  22
TORSDOF 7
ENDMDL
MODEL 5
REMARK VINA RESULT:      -8.5     11.050     15.906
REMARK  7 active torsions:
REMARK  status: ('A' for Active; 'I' for Inactive)
REMARK    1  A    between atoms: C15_22  and  O3_3 
REMARK    2  A    between atoms: C23_30  and  O3_3 
REMARK    3  A    between atoms: C5_12  and  N1_5 
REMARK    4  A    between atoms: C6_13  and  N2_6 
REMARK    5  A    between atoms: C16_23  and  N3_7 
REMARK       I    between atoms: C9_16  and  N3_7 
REMARK    6  A    between atoms: C5_12  and  C7_14 
REMARK    7  A    between atoms: C6_13  and  C9_16 
ROOT
HETATM    1  N1  UNK     1      23.879  -9.377  37.215  1.00  0.00     0.096 N 
HETATM    2  N2  UNK     1      26.368  -8.419  38.333  1.00  0.00     0.100 N 
HETATM    3  C1  UNK     1      25.168  -9.684  36.582  1.00  0.00     0.303 C 
HETATM    4  C2  UNK     1      23.952  -8.096  37.931  1.00  0.00     0.303 C 
HETATM    5  C3  UNK     1      26.297  -9.700  37.619  1.00  0.00     0.303 C 
HETATM    6  C4  UNK     1      25.080  -8.113  38.968  1.00  0.00     0.303 C 
ENDROOT
BRANCH   1   7
HETATM    7  C5  UNK     1      22.806  -9.358  36.225  1.00  0.00     0.312 C 
BRANCH   7   8
HETATM    8  C7  UNK     1      21.459  -9.443  36.855  1.00  0.00    -0.011 A 
HETATM    9  C10 UNK     1      21.008 -10.594  37.373  1.00  0.00     0.092 A 
HETATM   10  C13 UNK     1      19.684 -10.727  38.004  1.00  0.00     0.288 A 
HETATM   11  O1  UNK     1      18.897  -9.587  38.047  1.00  0.00    -0.275 OA
HETATM   12  O4  UNK     1      19.305 -11.797  38.469  1.00  0.00    -0.260 OA
HETATM   13  C11 UNK     1      19.343  -8.363  37.509  1.00  0.00     0.090 A 
HETATM   14  C8  UNK     1      20.600  -8.252  36.912  1.00  0.00     0.009 A 
HETATM   15  C14 UNK     1      18.466  -7.281  37.605  1.00  0.00     0.041 A 
HETATM   16  C12 UNK     1      20.969  -7.000  36.401  1.00  0.00     0.051 A 
HETATM   17  C15 UNK     1      20.099  -5.907  36.490  1.00  0.00     0.069 A 
HETATM   18  C17 UNK     1      18.850  -6.047  37.092  1.00  0.00     0.039 A 
BRANCH  17  19
HETATM   19  O3  UNK     1      20.477  -4.700  35.986  1.00  0.00    -0.351 OA
BRANCH  19  20
HETATM   20  C23 UNK     1      20.279  -3.558  36.818  1.00  0.00     0.171 C 
HETATM   21  C25 UNK     1      19.556  -2.490  36.026  1.00  0.00     0.034 C 
ENDBRANCH  19  20
ENDBRANCH  17  19
ENDBRANCH   7   8
ENDBRANCH   1   7
BRANCH   2  22
HETATM   22  C6  UNK     1      27.443  -8.436  39.323  1.00  0.00     0.375 C 
BRANCH  22  23
HETATM   23  C9  UNK     1      28.247  -7.152  39.217  1.00  0.00     0.250 C 
HETATM   24  O2  UNK     1      27.956  -6.135  39.839  1.00  0.00    -0.271 OA
HETATM   25  N3  UNK     1      29.320  -7.326  38.344  1.00  0.00    -0.325 N 
HETATM   26  H15 UNK     1      29.422  -8.243  37.919  1.00  0.00     0.169 HD
BRANCH  25  27
HETATM   27  C16 UNK     1      30.299  -6.372  37.978  1.00  0.00     0.040 A 
HETATM   28  C18 UNK     1      31.658  -6.683  38.035  1.00  0.00    -0.035 A 
HETATM   29  C20 UNK     1      32.608  -5.729  37.671  1.00  0.00     0.009 A 
HETATM   30  C21 UNK     1      32.123  -8.031  38.482  1.00  0.00     0.050 C 
HETATM   31  C24 UNK     1      32.199  -4.464  37.250  1.00  0.00     0.001 A 
HETATM   32  C22 UNK     1      30.841  -4.152  37.193  1.00  0.00     0.002 A 
HETATM   33  C19 UNK     1      29.891  -5.106  37.557  1.00  0.00     0.030 A 
ENDBRANCH  25  27
ENDBRANCH  22  23
ENDBRANCH   2  22
TORSDOF 7
ENDMDL
MODEL 6
REMARK VINA RESULT:      -8.5      4.221     10.534
REMARK  7 active torsions:
REMARK  status: ('A' for Active; 'I' for Inactive)
REMARK    1  A    between atoms: C15_22  and  O3_3 
REMARK    2  A    between atoms: C23_30  and  O3_3 
REMARK    3  A    between atoms: C5_12  and  N1_5 
REMARK    4  A    between atoms: C6_13  and  N2_6 
REMARK    5  A    between atoms: C16_23  and  N3_7 
REMARK       I    between atoms: C9_16  and  N3_7 
REMARK    6  A    between atoms: C5_12  and  C7_14 
REMARK    7  A    between atoms: C6_13  and  C9_16 
ROOT
HETATM    1  N1  UNK     1      17.937   1.353  35.249  1.00  0.00     0.096 N 
HETATM    2  N2  UNK     1      18.387  -1.175  36.578  1.00  0.00     0.100 N 
HETATM    3  C1  UNK     1      18.979   0.426  34.792  1.00  0.00     0.303 C 
HETATM    4  C2  UNK     1      17.710   1.198  36.691  1.00  0.00     0.303 C 
HETATM    5  C3  UNK     1      18.613  -1.023  35.136  1.00  0.00     0.303 C 
HETATM    6  C4  UNK     1      17.343  -0.250  37.034  1.00  0.00     0.303 C 
ENDROOT
BRANCH   1   7
HETATM    7  C5  UNK     1      18.289   2.732  34.923  1.00  0.00     0.312 C 
BRANCH   7   8
HETATM    8  C7  UNK     1      18.326   2.971  33.453  1.00  0.00    -0.011 A 
HETATM    9  C10 UNK     1      18.362   1.950  32.586  1.00  0.00     0.092 A 
HETATM   10  C13 UNK     1      18.400   2.137  31.126  1.00  0.00     0.288 A 
HETATM   11  O1  UNK     1      18.396   3.444  30.665  1.00  0.00    -0.275 OA
HETATM   12  O4  UNK     1      18.431   1.178  30.362  1.00  0.00    -0.260 OA
HETATM   13  C11 UNK     1      18.360   4.538  31.552  1.00  0.00     0.090 A 
HETATM   14  C8  UNK     1      18.325   4.346  32.934  1.00  0.00     0.009 A 
HETATM   15  C14 UNK     1      18.362   5.810  30.977  1.00  0.00     0.041 A 
HETATM   16  C12 UNK     1      18.292   5.486  33.749  1.00  0.00     0.051 A 
HETATM   17  C15 UNK     1      18.293   6.767  33.185  1.00  0.00     0.069 A 
HETATM   18  C17 UNK     1      18.328   6.929  31.802  1.00  0.00     0.039 A 
BRANCH  17  19
HETATM   19  O3  UNK     1      18.261   7.862  33.995  1.00  0.00    -0.351 OA
BRANCH  19  20
HETATM   20  C23 UNK     1      19.348   8.029  34.904  1.00  0.00     0.171 C 
HETATM   21  C25 UNK     1      20.181   9.213  34.464  1.00  0.00     0.034 C 
ENDBRANCH  19  20
ENDBRANCH  17  19
ENDBRANCH   7   8
ENDBRANCH   1   7
BRANCH   2  22
HETATM   22  C6  UNK     1      18.036  -2.556  36.905  1.00  0.00     0.375 C 
BRANCH  22  23
HETATM   23  C9  UNK     1      19.244  -3.449  36.687  1.00  0.00     0.250 C 
HETATM   24  O2  UNK     1      20.393  -3.020  36.684  1.00  0.00    -0.271 OA
HETATM   25  N3  UNK     1      18.840  -4.771  36.509  1.00  0.00    -0.325 N 
HETATM   26  H15 UNK     1      17.842  -4.956  36.552  1.00  0.00     0.169 HD
BRANCH  25  27
HETATM   27  C16 UNK     1      19.660  -5.902  36.280  1.00  0.00     0.040 A 
HETATM   28  C18 UNK     1      20.323  -6.531  37.334  1.00  0.00    -0.035 A 
HETATM   29  C20 UNK     1      21.127  -7.643  37.087  1.00  0.00     0.009 A 
HETATM   30  C21 UNK     1      20.188  -6.034  38.737  1.00  0.00     0.050 C 
HETATM   31  C24 UNK     1      21.269  -8.127  35.787  1.00  0.00     0.001 A 
HETATM   32  C22 UNK     1      20.607  -7.498  34.733  1.00  0.00     0.002 A 
HETATM   33  C19 UNK     1      19.803  -6.386  34.979  1.00  0.00     0.030 A 
ENDBRANCH  25  27
ENDBRANCH  22  23
ENDBRANCH   2  22
TORSDOF 7
ENDMDL
MODEL 7
REMARK VINA RESULT:      -8.4      3.089     11.124
REMARK  7 active torsions:
REMARK  status: ('A' for Active; 'I' for Inactive)
REMARK    1  A    between atoms: C15_22  and  O3_3 
REMARK    2  A    between atoms: C23_30  and  O3_3 
REMARK    3  A    between atoms: C5_12  and  N1_5 
REMARK    4  A    between atoms: C6_13  and  N2_6 
REMARK    5  A    between atoms: C16_23  and  N3_7 
REMARK       I    between atoms: C9_16  and  N3_7 
REMARK    6  A    between atoms: C5_12  and  C7_14 
REMARK    7  A    between atoms: C6_13  and  C9_16 
ROOT
HETATM    1  N1  UNK     1      17.894   8.309  33.581  1.00  0.00     0.096 N 
HETATM    2  N2  UNK     1      18.080   5.678  32.397  1.00  0.00     0.100 N 
HETATM    3  C1  UNK     1      17.345   8.032  32.248  1.00  0.00     0.303 C 
HETATM    4  C2  UNK     1      19.033   7.425  33.859  1.00  0.00     0.303 C 
HETATM    5  C3  UNK     1      16.939   6.559  32.119  1.00  0.00     0.303 C 
HETATM    6  C4  UNK     1      18.627   5.954  33.731  1.00  0.00     0.303 C 
ENDROOT
BRANCH   1   7
HETATM    7  C5  UNK     1      18.284   9.712  33.701  1.00  0.00     0.312 C 
BRANCH   7   8
HETATM    8  C7  UNK     1      17.168  10.564  34.199  1.00  0.00    -0.011 A 
HETATM    9  C10 UNK     1      16.056  10.019  34.711  1.00  0.00     0.092 A 
HETATM   10  C13 UNK     1      14.927  10.821  35.215  1.00  0.00     0.288 A 
HETATM   11  O1  UNK     1      15.059  12.199  35.141  1.00  0.00    -0.275 OA
HETATM   12  O4  UNK     1      13.925  10.287  35.677  1.00  0.00    -0.260 OA
HETATM   13  C11 UNK     1      16.217  12.800  34.607  1.00  0.00     0.090 A 
HETATM   14  C8  UNK     1      17.278  12.028  34.132  1.00  0.00     0.009 A 
HETATM   15  C14 UNK     1      16.240  14.196  34.580  1.00  0.00     0.041 A 
HETATM   16  C12 UNK     1      18.393  12.703  33.616  1.00  0.00     0.051 A 
HETATM   17  C15 UNK     1      18.430  14.101  33.583  1.00  0.00     0.069 A 
HETATM   18  C17 UNK     1      17.356  14.847  34.064  1.00  0.00     0.039 A 
BRANCH  17  19
HETATM   19  O3  UNK     1      19.522  14.737  33.076  1.00  0.00    -0.351 OA
BRANCH  19  20
HETATM   20  C23 UNK     1      19.462  16.160  32.986  1.00  0.00     0.171 C 
HETATM   21  C25 UNK     1      20.545  16.756  33.858  1.00  0.00     0.034 C 
ENDBRANCH  19  20
ENDBRANCH  17  19
ENDBRANCH   7   8
ENDBRANCH   1   7
BRANCH   2  22
HETATM   22  C6  UNK     1      17.691   4.274  32.275  1.00  0.00     0.375 C 
BRANCH  22  23
HETATM   23  C9  UNK     1      18.599   3.584  31.271  1.00  0.00     0.250 C 
HETATM   24  O2  UNK     1      19.394   4.198  30.568  1.00  0.00    -0.271 OA
HETATM   25  N3  UNK     1      18.385   2.207  31.296  1.00  0.00    -0.325 N 
HETATM   26  H15 UNK     1      17.692   1.861  31.952  1.00  0.00     0.169 HD
BRANCH  25  27
HETATM   27  C16 UNK     1      19.031   1.220  30.513  1.00  0.00     0.040 A 
HETATM   28  C18 UNK     1      18.726   1.067  29.161  1.00  0.00    -0.035 A 
HETATM   29  C20 UNK     1      19.372   0.087  28.406  1.00  0.00     0.009 A 
HETATM   30  C21 UNK     1      17.710   1.938  28.494  1.00  0.00     0.050 C 
HETATM   31  C24 UNK     1      20.323  -0.738  29.005  1.00  0.00     0.001 A 
HETATM   32  C22 UNK     1      20.629  -0.585  30.356  1.00  0.00     0.002 A 
HETATM   33  C19 UNK     1      19.983   0.393  31.111  1.00  0.00     0.030 A 
ENDBRANCH  25  27
ENDBRANCH  22  23
ENDBRANCH   2  22
TORSDOF 7
ENDMDL
MODEL 8
REMARK VINA RESULT:      -8.3     14.199     17.256
REMARK  7 active torsions:
REMARK  status: ('A' for Active; 'I' for Inactive)
REMARK    1  A    between atoms: C15_22  and  O3_3 
REMARK    2  A    between atoms: C23_30  and  O3_3 
REMARK    3  A    between atoms: C5_12  and  N1_5 
REMARK    4  A    between atoms: C6_13  and  N2_6 
REMARK    5  A    between atoms: C16_23  and  N3_7 
REMARK       I    between atoms: C9_16  and  N3_7 
REMARK    6  A    between atoms: C5_12  and  C7_14 
REMARK    7  A    between atoms: C6_13  and  C9_16 
ROOT
HETATM    1  N1  UNK     1      29.488  -8.683  37.635  1.00  0.00     0.096 N 
HETATM    2  N2  UNK     1      26.616  -8.807  37.325  1.00  0.00     0.100 N 
HETATM    3  C1  UNK     1      28.603  -8.854  38.793  1.00  0.00     0.303 C 
HETATM    4  C2  UNK     1      28.801  -7.938  36.571  1.00  0.00     0.303 C 
HETATM    5  C3  UNK     1      27.300  -9.554  38.388  1.00  0.00     0.303 C 
HETATM    6  C4  UNK     1      27.500  -8.638  36.166  1.00  0.00     0.303 C 
ENDROOT
BRANCH   1   7
HETATM    7  C5  UNK     1      30.727  -8.013  38.022  1.00  0.00     0.312 C 
BRANCH   7   8
HETATM    8  C7  UNK     1      30.594  -6.529  37.998  1.00  0.00    -0.011 A 
HETATM    9  C10 UNK     1      29.690  -5.902  38.764  1.00  0.00     0.092 A 
HETATM   10  C13 UNK     1      29.521  -4.439  38.772  1.00  0.00     0.288 A 
HETATM   11  O1  UNK     1      30.356  -3.710  37.939  1.00  0.00    -0.275 OA
HETATM   12  O4  UNK     1      28.683  -3.900  39.487  1.00  0.00    -0.260 OA
HETATM   13  C11 UNK     1      31.315  -4.342  37.122  1.00  0.00     0.090 A 
HETATM   14  C8  UNK     1      31.463  -5.730  37.123  1.00  0.00     0.009 A 
HETATM   15  C14 UNK     1      32.099  -3.510  36.321  1.00  0.00     0.041 A 
HETATM   16  C12 UNK     1      32.439  -6.280  36.281  1.00  0.00     0.051 A 
HETATM   17  C15 UNK     1      33.233  -5.458  35.473  1.00  0.00     0.069 A 
HETATM   18  C17 UNK     1      33.063  -4.075  35.493  1.00  0.00     0.039 A 
BRANCH  17  19
HETATM   19  O3  UNK     1      34.175  -6.014  34.662  1.00  0.00    -0.351 OA
BRANCH  19  20
HETATM   20  C23 UNK     1      34.916  -7.114  35.187  1.00  0.00     0.171 C 
HETATM   21  C25 UNK     1      36.385  -6.906  34.890  1.00  0.00     0.034 C 
ENDBRANCH  19  20
ENDBRANCH  17  19
ENDBRANCH   7   8
ENDBRANCH   1   7
BRANCH   2  22
HETATM   22  C6  UNK     1      25.375  -9.476  36.938  1.00  0.00     0.375 C 
BRANCH  22  23
HETATM   23  C9  UNK     1      24.192  -8.729  37.530  1.00  0.00     0.250 C 
HETATM   24  O2  UNK     1      24.319  -7.688  38.167  1.00  0.00    -0.271 OA
HETATM   25  N3  UNK     1      23.004  -9.394  37.233  1.00  0.00    -0.325 N 
HETATM   26  H15 UNK     1      23.079 -10.244  36.682  1.00  0.00     0.169 HD
BRANCH  25  27
HETATM   27  C16 UNK     1      21.690  -9.021  37.603  1.00  0.00     0.040 A 
HETATM   28  C18 UNK     1      20.764  -8.615  36.641  1.00  0.00    -0.035 A 
HETATM   29  C20 UNK     1      19.474  -8.250  37.026  1.00  0.00     0.009 A 
HETATM   30  C21 UNK     1      21.128  -8.560  35.193  1.00  0.00     0.050 C 
HETATM   31  C24 UNK     1      19.109  -8.293  38.371  1.00  0.00     0.001 A 
HETATM   32  C22 UNK     1      20.034  -8.699  39.332  1.00  0.00     0.002 A 
HETATM   33  C19 UNK     1      21.325  -9.063  38.949  1.00  0.00     0.030 A 
ENDBRANCH  25  27
ENDBRANCH  22  23
ENDBRANCH   2  22
TORSDOF 7
ENDMDL
MODEL 9
REMARK VINA RESULT:      -8.3     14.335     16.781
REMARK  7 active torsions:
REMARK  status: ('A' for Active; 'I' for Inactive)
REMARK    1  A    between atoms: C15_22  and  O3_3 
REMARK    2  A    between atoms: C23_30  and  O3_3 
REMARK    3  A    between atoms: C5_12  and  N1_5 
REMARK    4  A    between atoms: C6_13  and  N2_6 
REMARK    5  A    between atoms: C16_23  and  N3_7 
REMARK       I    between atoms: C9_16  and  N3_7 
REMARK    6  A    between atoms: C5_12  and  C7_14 
REMARK    7  A    between atoms: C6_13  and  C9_16 
ROOT
HETATM    1  N1  UNK     1      29.237  -6.445  37.261  1.00  0.00     0.096 N 
HETATM    2  N2  UNK     1      26.628  -7.271  38.196  1.00  0.00     0.100 N 
HETATM    3  C1  UNK     1      28.619  -5.829  38.442  1.00  0.00     0.303 C 
HETATM    4  C2  UNK     1      28.204  -6.912  36.328  1.00  0.00     0.303 C 
HETATM    5  C3  UNK     1      27.660  -6.806  39.131  1.00  0.00     0.303 C 
HETATM    6  C4  UNK     1      27.246  -7.890  37.017  1.00  0.00     0.303 C 
ENDROOT
BRANCH   1   7
HETATM    7  C5  UNK     1      30.147  -5.511  36.604  1.00  0.00     0.312 C 
BRANCH   7   8
HETATM    8  C7  UNK     1      31.460  -6.137  36.283  1.00  0.00    -0.011 A 
HETATM    9  C10 UNK     1      32.353  -6.406  37.246  1.00  0.00     0.092 A 
HETATM   10  C13 UNK     1      33.663  -7.023  36.977  1.00  0.00     0.288 A 
HETATM   11  O1  UNK     1      33.949  -7.327  35.655  1.00  0.00    -0.275 OA
HETATM   12  O4  UNK     1      34.455  -7.255  37.883  1.00  0.00    -0.260 OA
HETATM   13  C11 UNK     1      33.030  -7.056  34.621  1.00  0.00     0.090 A 
HETATM   14  C8  UNK     1      31.793  -6.469  34.891  1.00  0.00     0.009 A 
HETATM   15  C14 UNK     1      33.424  -7.402  33.327  1.00  0.00     0.041 A 
HETATM   16  C12 UNK     1      30.936  -6.231  33.807  1.00  0.00     0.051 A 
HETATM   17  C15 UNK     1      31.318  -6.573  32.505  1.00  0.00     0.069 A 
HETATM   18  C17 UNK     1      32.560  -7.158  32.265  1.00  0.00     0.039 A 
BRANCH  17  19
HETATM   19  O3  UNK     1      30.471  -6.332  31.466  1.00  0.00    -0.351 OA
BRANCH  19  20
HETATM   20  C23 UNK     1      29.556  -5.248  31.614  1.00  0.00     0.171 C 
HETATM   21  C25 UNK     1      29.929  -4.151  30.639  1.00  0.00     0.034 C 
ENDBRANCH  19  20
ENDBRANCH  17  19
ENDBRANCH   7   8
ENDBRANCH   1   7
BRANCH   2  22
HETATM   22  C6  UNK     1      25.715  -8.205  38.853  1.00  0.00     0.375 C 
BRANCH  22  23
HETATM   23  C9  UNK     1      24.303  -7.651  38.801  1.00  0.00     0.250 C 
HETATM   24  O2  UNK     1      24.053  -6.459  38.956  1.00  0.00    -0.271 OA
HETATM   25  N3  UNK     1      23.392  -8.676  38.552  1.00  0.00    -0.325 N 
HETATM   26  H15 UNK     1      23.772  -9.610  38.437  1.00  0.00     0.169 HD
BRANCH  25  27
HETATM   27  C16 UNK     1      21.985  -8.570  38.430  1.00  0.00     0.040 A 
HETATM   28  C18 UNK     1      21.346  -8.880  37.230  1.00  0.00    -0.035 A 
HETATM   29  C20 UNK     1      19.959  -8.769  37.130  1.00  0.00     0.009 A 
HETATM   30  C21 UNK     1      22.122  -9.333  36.035  1.00  0.00     0.050 C 
HETATM   31  C24 UNK     1      19.212  -8.350  38.230  1.00  0.00     0.001 A 
HETATM   32  C22 UNK     1      19.851  -8.040  39.430  1.00  0.00     0.002 A 
HETATM   33  C19 UNK     1      21.237  -8.151  39.531  1.00  0.00     0.030 A 
ENDBRANCH  25  27
ENDBRANCH  22  23
ENDBRANCH   2  22
TORSDOF 7
ENDMDL
MODEL 10
REMARK VINA RESULT:      -8.3     17.089     21.383
REMARK  7 active torsions:
REMARK  status: ('A' for Active; 'I' for Inactive)
REMARK    1  A    between atoms: C15_22  and  O3_3 
REMARK    2  A    between atoms: C23_30  and  O3_3 
REMARK    3  A    between atoms: C5_12  and  N1_5 
REMARK    4  A    between atoms: C6_13  and  N2_6 
REMARK    5  A    between atoms: C16_23  and  N3_7 
REMARK       I    between atoms: C9_16  and  N3_7 
REMARK    6  A    between atoms: C5_12  and  C7_14 
REMARK    7  A    between atoms: C6_13  and  C9_16 
ROOT
HETATM    1  N1  UNK     1      18.702  -4.774  13.186  1.00  0.00     0.096 N 
HETATM    2  N2  UNK     1      18.553  -2.953  15.427  1.00  0.00     0.100 N 
HETATM    3  C1  UNK     1      18.584  -5.268  14.564  1.00  0.00     0.303 C 
HETATM    4  C2  UNK     1      19.392  -3.478  13.164  1.00  0.00     0.303 C 
HETATM    5  C3  UNK     1      17.861  -4.247  15.451  1.00  0.00     0.303 C 
HETATM    6  C4  UNK     1      18.669  -2.459  14.049  1.00  0.00     0.303 C 
ENDROOT
BRANCH   1   7
HETATM    7  C5  UNK     1      19.395  -5.746  12.344  1.00  0.00     0.312 C 
BRANCH   7   8
HETATM    8  C7  UNK     1      18.571  -6.164  11.175  1.00  0.00    -0.011 A 
HETATM    9  C10 UNK     1      17.705  -7.184  11.266  1.00  0.00     0.092 A 
HETATM   10  C13 UNK     1      16.872  -7.633  10.138  1.00  0.00     0.288 A 
HETATM   11  O1  UNK     1      17.016  -6.944   8.944  1.00  0.00    -0.275 OA
HETATM   12  O4  UNK     1      16.090  -8.569  10.259  1.00  0.00    -0.260 OA
HETATM   13  C11 UNK     1      17.919  -5.869   8.817  1.00  0.00     0.090 A 
HETATM   14  C8  UNK     1      18.704  -5.455   9.895  1.00  0.00     0.009 A 
HETATM   15  C14 UNK     1      17.984  -5.251   7.567  1.00  0.00     0.041 A 
HETATM   16  C12 UNK     1      19.578  -4.379   9.687  1.00  0.00     0.051 A 
HETATM   17  C15 UNK     1      19.652  -3.750   8.439  1.00  0.00     0.069 A 
HETATM   18  C17 UNK     1      18.856  -4.184   7.381  1.00  0.00     0.039 A 
BRANCH  17  19
HETATM   19  O3  UNK     1      20.509  -2.706   8.259  1.00  0.00    -0.351 OA
BRANCH  19  20
HETATM   20  C23 UNK     1      21.675  -2.674   9.080  1.00  0.00     0.171 C 
HETATM   21  C25 UNK     1      22.845  -3.230   8.297  1.00  0.00     0.034 C 
ENDBRANCH  19  20
ENDBRANCH  17  19
ENDBRANCH   7   8
ENDBRANCH   1   7
BRANCH   2  22
HETATM   22  C6  UNK     1      17.862  -1.980  16.271  1.00  0.00     0.375 C 
BRANCH  22  23
HETATM   23  C9  UNK     1      18.865  -1.310  17.194  1.00  0.00     0.250 C 
HETATM   24  O2  UNK     1      20.036  -1.667  17.269  1.00  0.00    -0.271 OA
HETATM   25  N3  UNK     1      18.255  -0.270  17.894  1.00  0.00    -0.325 N 
HETATM   26  H15 UNK     1      17.273  -0.101  17.701  1.00  0.00     0.169 HD
BRANCH  25  27
HETATM   27  C16 UNK     1      18.848   0.594  18.846  1.00  0.00     0.040 A 
HETATM   28  C18 UNK     1      19.255   1.879  18.491  1.00  0.00    -0.035 A 
HETATM   29  C20 UNK     1      19.838   2.715  19.444  1.00  0.00     0.009 A 
HETATM   30  C21 UNK     1      19.080   2.387  17.096  1.00  0.00     0.050 C 
HETATM   31  C24 UNK     1      20.012   2.265  20.752  1.00  0.00     0.001 A 
HETATM   32  C22 UNK     1      19.604   0.980  21.108  1.00  0.00     0.002 A 
HETATM   33  C19 UNK     1      19.022   0.144  20.156  1.00  0.00     0.030 A 
ENDBRANCH  25  27
ENDBRANCH  22  23
ENDBRANCH   2  22
TORSDOF 7
ENDMDL
