MODEL 1
REMARK VINA RESULT:      -6.6      0.000      0.000
REMARK  0 active torsions:
REMARK  status: ('A' for Active; 'I' for Inactive)
ROOT
HETATM    1 Br1  UNK     1      14.043   9.955  33.349  1.00  0.00    -0.045 Br
HETATM    2 Cl1  UNK     1      19.902   5.459  30.094  1.00  0.00    -0.084 Cl
HETATM    3  O1  UNK     1      17.826   8.749  34.513  1.00  0.00    -0.320 OA
HETATM    4  O2  UNK     1      15.461   8.175  31.233  1.00  0.00    -0.286 OA
HETATM    5  C1  UNK     1      17.511   7.757  32.317  1.00  0.00     0.051 A 
HETATM    6  C2  UNK     1      18.275   7.988  33.463  1.00  0.00     0.089 A 
HETATM    7  C3  UNK     1      20.061   6.653  32.539  1.00  0.00    -0.038 A 
HETATM    8  C4  UNK     1      19.551   7.436  33.575  1.00  0.00     0.046 A 
HETATM    9  C5  UNK     1      18.020   6.974  31.279  1.00  0.00     0.042 A 
HETATM   10  C6  UNK     1      19.297   6.423  31.394  1.00  0.00     0.041 A 
HETATM   11  C7  UNK     1      16.163   8.351  32.219  1.00  0.00     0.204 A 
HETATM   12  C8  UNK     1      21.433   6.080  32.695  1.00  0.00     0.050 C 
HETATM   13  C9  UNK     1      15.726   9.165  33.381  1.00  0.00     0.084 A 
HETATM   14  C10 UNK     1      16.570   9.297  34.410  1.00  0.00     0.165 A 
ENDROOT
TORSDOF 0
ENDMDL
MODEL 2
REMARK VINA RESULT:      -6.5      9.167     10.226
REMARK  0 active torsions:
REMARK  status: ('A' for Active; 'I' for Inactive)
ROOT
HETATM    1 Br1  UNK     1      20.542  -1.627  29.882  1.00  0.00    -0.045 Br
HETATM    2 Cl1  UNK     1      16.517   0.579  36.520  1.00  0.00    -0.084 Cl
HETATM    3  O1  UNK     1      20.606  -2.725  33.872  1.00  0.00    -0.320 OA
HETATM    4  O2  UNK     1      18.486  -0.066  31.611  1.00  0.00    -0.286 OA
HETATM    5  C1  UNK     1      18.889  -1.011  33.731  1.00  0.00     0.051 A 
HETATM    6  C2  UNK     1      19.645  -1.937  34.453  1.00  0.00     0.089 A 
HETATM    7  C3  UNK     1      18.474  -1.317  36.471  1.00  0.00    -0.038 A 
HETATM    8  C4  UNK     1      19.438  -2.091  35.823  1.00  0.00     0.046 A 
HETATM    9  C5  UNK     1      17.924  -0.235  34.376  1.00  0.00     0.042 A 
HETATM   10  C6  UNK     1      17.718  -0.392  35.748  1.00  0.00     0.041 A 
HETATM   11  C7  UNK     1      19.125  -0.864  32.281  1.00  0.00     0.204 A 
HETATM   12  C8  UNK     1      18.279  -1.511  37.940  1.00  0.00     0.050 C 
HETATM   13  C9  UNK     1      20.174  -1.740  31.702  1.00  0.00     0.084 A 
HETATM   14  C10 UNK     1      20.817  -2.580  32.521  1.00  0.00     0.165 A 
ENDROOT
TORSDOF 0
ENDMDL
MODEL 3
REMARK VINA RESULT:      -6.5      1.188      2.529
REMARK  0 active torsions:
REMARK  status: ('A' for Active; 'I' for Inactive)
ROOT
HETATM    1 Br1  UNK     1      14.406   9.971  34.566  1.00  0.00    -0.045 Br
HETATM    2 Cl1  UNK     1      21.305   6.173  32.802  1.00  0.00    -0.084 Cl
HETATM    3  O1  UNK     1      15.893   7.925  31.291  1.00  0.00    -0.320 OA
HETATM    4  O2  UNK     1      17.285   8.888  35.007  1.00  0.00    -0.286 OA
HETATM    5  C1  UNK     1      17.678   7.835  32.937  1.00  0.00     0.051 A 
HETATM    6  C2  UNK     1      17.149   7.535  31.680  1.00  0.00     0.089 A 
HETATM    7  C3  UNK     1      19.190   6.385  31.097  1.00  0.00    -0.038 A 
HETATM    8  C4  UNK     1      17.905   6.809  30.759  1.00  0.00     0.046 A 
HETATM    9  C5  UNK     1      18.964   7.411  33.277  1.00  0.00     0.042 A 
HETATM   10  C6  UNK     1      19.718   6.685  32.354  1.00  0.00     0.041 A 
HETATM   11  C7  UNK     1      16.861   8.604  33.895  1.00  0.00     0.204 A 
HETATM   12  C8  UNK     1      19.969   5.609  30.084  1.00  0.00     0.050 C 
HETATM   13  C9  UNK     1      15.510   9.001  33.426  1.00  0.00     0.084 A 
HETATM   14  C10 UNK     1      15.141   8.640  32.192  1.00  0.00     0.165 A 
ENDROOT
TORSDOF 0
ENDMDL
MODEL 4
REMARK VINA RESULT:      -6.4      7.597      8.473
REMARK  0 active torsions:
REMARK  status: ('A' for Active; 'I' for Inactive)
ROOT
HETATM    1 Br1  UNK     1      17.150   0.899  36.471  1.00  0.00    -0.045 Br
HETATM    2 Cl1  UNK     1      20.859  -3.074  30.505  1.00  0.00    -0.084 Cl
HETATM    3  O1  UNK     1      18.309   1.800  32.602  1.00  0.00    -0.320 OA
HETATM    4  O2  UNK     1      18.553  -1.473  35.034  1.00  0.00    -0.286 OA
HETATM    5  C1  UNK     1      19.008  -0.504  32.935  1.00  0.00     0.051 A 
HETATM    6  C2  UNK     1      18.897   0.645  32.150  1.00  0.00     0.089 A 
HETATM    7  C3  UNK     1      20.002  -0.493  30.330  1.00  0.00    -0.038 A 
HETATM    8  C4  UNK     1      19.393   0.652  30.846  1.00  0.00     0.046 A 
HETATM    9  C5  UNK     1      19.617  -1.650  32.420  1.00  0.00     0.042 A 
HETATM   10  C6  UNK     1      20.112  -1.641  31.116  1.00  0.00     0.041 A 
HETATM   11  C7  UNK     1      18.476  -0.488  34.311  1.00  0.00     0.204 A 
HETATM   12  C8  UNK     1      20.520  -0.449  28.929  1.00  0.00     0.050 C 
HETATM   13  C9  UNK     1      17.851   0.783  34.752  1.00  0.00     0.084 A 
HETATM   14  C10 UNK     1      17.817   1.802  33.885  1.00  0.00     0.165 A 
ENDROOT
TORSDOF 0
ENDMDL
MODEL 5
REMARK VINA RESULT:      -6.3      7.937      8.799
REMARK  0 active torsions:
REMARK  status: ('A' for Active; 'I' for Inactive)
ROOT
HETATM    1 Br1  UNK     1      19.116   1.269  29.874  1.00  0.00    -0.045 Br
HETATM    2 Cl1  UNK     1      16.985   1.455  37.656  1.00  0.00    -0.084 Cl
HETATM    3  O1  UNK     1      19.351  -1.361  33.060  1.00  0.00    -0.320 OA
HETATM    4  O2  UNK     1      17.947   2.433  32.507  1.00  0.00    -0.286 OA
HETATM    5  C1  UNK     1      18.297   0.627  33.977  1.00  0.00     0.051 A 
HETATM    6  C2  UNK     1      18.793  -0.672  34.107  1.00  0.00     0.089 A 
HETATM    7  C3  UNK     1      18.177  -0.673  36.441  1.00  0.00    -0.038 A 
HETATM    8  C4  UNK     1      18.733  -1.323  35.339  1.00  0.00     0.046 A 
HETATM    9  C5  UNK     1      17.739   1.279  35.079  1.00  0.00     0.042 A 
HETATM   10  C6  UNK     1      17.681   0.625  36.311  1.00  0.00     0.041 A 
HETATM   11  C7  UNK     1      18.370   1.297  32.664  1.00  0.00     0.204 A 
HETATM   12  C8  UNK     1      18.129  -1.403  37.744  1.00  0.00     0.050 C 
HETATM   13  C9  UNK     1      18.982   0.508  31.566  1.00  0.00     0.084 A 
HETATM   14  C10 UNK     1      19.414  -0.727  31.842  1.00  0.00     0.165 A 
ENDROOT
TORSDOF 0
ENDMDL
MODEL 6
REMARK VINA RESULT:      -6.2      8.784      9.793
REMARK  0 active torsions:
REMARK  status: ('A' for Active; 'I' for Inactive)
ROOT
HETATM    1 Br1  UNK     1      20.502  -2.090  30.489  1.00  0.00    -0.045 Br
HETATM    2 Cl1  UNK     1      18.197  -1.257  38.179  1.00  0.00    -0.084 Cl
HETATM    3  O1  UNK     1      18.361   0.724  32.638  1.00  0.00    -0.320 OA
HETATM    4  O2  UNK     1      20.208  -2.816  33.496  1.00  0.00    -0.286 OA
HETATM    5  C1  UNK     1      18.958  -0.975  34.270  1.00  0.00     0.051 A 
HETATM    6  C2  UNK     1      18.345   0.229  33.917  1.00  0.00     0.089 A 
HETATM    7  C3  UNK     1      17.628   0.531  36.203  1.00  0.00    -0.038 A 
HETATM    8  C4  UNK     1      17.679   0.984  34.884  1.00  0.00     0.046 A 
HETATM    9  C5  UNK     1      18.908  -1.429  35.589  1.00  0.00     0.042 A 
HETATM   10  C6  UNK     1      18.242  -0.672  36.554  1.00  0.00     0.041 A 
HETATM   11  C7  UNK     1      19.657  -1.756  33.231  1.00  0.00     0.204 A 
HETATM   12  C8  UNK     1      16.907   1.367  37.211  1.00  0.00     0.050 C 
HETATM   13  C9  UNK     1      19.646  -1.177  31.865  1.00  0.00     0.084 A 
HETATM   14  C10 UNK     1      19.015  -0.012  31.680  1.00  0.00     0.165 A 
ENDROOT
TORSDOF 0
ENDMDL
MODEL 7
REMARK VINA RESULT:      -6.2      6.384      7.536
REMARK  0 active torsions:
REMARK  status: ('A' for Active; 'I' for Inactive)
ROOT
HETATM    1 Br1  UNK     1      20.157  -2.231  30.446  1.00  0.00    -0.045 Br
HETATM    2 Cl1  UNK     1      18.673   5.683  29.906  1.00  0.00    -0.084 Cl
HETATM    3  O1  UNK     1      18.574   0.651  32.958  1.00  0.00    -0.320 OA
HETATM    4  O2  UNK     1      20.053   0.592  29.152  1.00  0.00    -0.286 OA
HETATM    5  C1  UNK     1      19.109   1.844  30.910  1.00  0.00     0.051 A 
HETATM    6  C2  UNK     1      18.614   1.804  32.215  1.00  0.00     0.089 A 
HETATM    7  C3  UNK     1      18.149   4.170  32.111  1.00  0.00    -0.038 A 
HETATM    8  C4  UNK     1      18.133   2.967  32.817  1.00  0.00     0.046 A 
HETATM    9  C5  UNK     1      19.124   3.048  30.201  1.00  0.00     0.042 A 
HETATM   10  C6  UNK     1      18.642   4.210  30.806  1.00  0.00     0.041 A 
HETATM   11  C7  UNK     1      19.612   0.602  30.293  1.00  0.00     0.204 A 
HETATM   12  C8  UNK     1      17.624   5.395  32.788  1.00  0.00     0.050 C 
HETATM   13  C9  UNK     1      19.546  -0.617  31.138  1.00  0.00     0.084 A 
HETATM   14  C10 UNK     1      19.046  -0.500  32.373  1.00  0.00     0.165 A 
ENDROOT
TORSDOF 0
ENDMDL
MODEL 8
REMARK VINA RESULT:      -6.2     23.670     25.145
REMARK  0 active torsions:
REMARK  status: ('A' for Active; 'I' for Inactive)
ROOT
HETATM    1 Br1  UNK     1      15.723   7.598  11.174  1.00  0.00    -0.045 Br
HETATM    2 Cl1  UNK     1       8.258   7.389   8.115  1.00  0.00    -0.084 Cl
HETATM    3  O1  UNK     1      13.992   6.119   7.718  1.00  0.00    -0.320 OA
HETATM    4  O2  UNK     1      12.658   8.092  11.036  1.00  0.00    -0.286 OA
HETATM    5  C1  UNK     1      12.149   7.105   8.958  1.00  0.00     0.051 A 
HETATM    6  C2  UNK     1      12.662   6.433   7.847  1.00  0.00     0.089 A 
HETATM    7  C3  UNK     1      10.451   6.341   6.884  1.00  0.00    -0.038 A 
HETATM    8  C4  UNK     1      11.814   6.050   6.809  1.00  0.00     0.046 A 
HETATM    9  C5  UNK     1      10.786   7.398   9.035  1.00  0.00     0.042 A 
HETATM   10  C6  UNK     1       9.939   7.014   7.994  1.00  0.00     0.041 A 
HETATM   11  C7  UNK     1      13.065   7.501  10.045  1.00  0.00     0.204 A 
HETATM   12  C8  UNK     1       9.573   5.916   5.751  1.00  0.00     0.050 C 
HETATM   13  C9  UNK     1      14.493   7.139   9.857  1.00  0.00     0.084 A 
HETATM   14  C10 UNK     1      14.835   6.493   8.737  1.00  0.00     0.165 A 
ENDROOT
TORSDOF 0
ENDMDL
MODEL 9
REMARK VINA RESULT:      -6.2      7.938      8.958
REMARK  0 active torsions:
REMARK  status: ('A' for Active; 'I' for Inactive)
ROOT
HETATM    1 Br1  UNK     1      17.894  -0.930  36.733  1.00  0.00    -0.045 Br
HETATM    2 Cl1  UNK     1      18.957   1.578  29.136  1.00  0.00    -0.084 Cl
HETATM    3  O1  UNK     1      20.153  -2.185  33.501  1.00  0.00    -0.320 OA
HETATM    4  O2  UNK     1      17.510   0.846  34.212  1.00  0.00    -0.286 OA
HETATM    5  C1  UNK     1      18.953  -0.233  32.694  1.00  0.00     0.051 A 
HETATM    6  C2  UNK     1      19.848  -1.288  32.509  1.00  0.00     0.089 A 
HETATM    7  C3  UNK     1      20.205  -0.584  30.227  1.00  0.00    -0.038 A 
HETATM    8  C4  UNK     1      20.476  -1.465  31.276  1.00  0.00     0.046 A 
HETATM    9  C5  UNK     1      18.681   0.650  31.646  1.00  0.00     0.042 A 
HETATM   10  C6  UNK     1      19.310   0.471  30.413  1.00  0.00     0.041 A 
HETATM   11  C7  UNK     1      18.300  -0.065  34.007  1.00  0.00     0.204 A 
HETATM   12  C8  UNK     1      20.898  -0.804  28.921  1.00  0.00     0.050 C 
HETATM   13  C9  UNK     1      18.664  -1.061  35.045  1.00  0.00     0.084 A 
HETATM   14  C10 UNK     1      19.539  -2.019  34.720  1.00  0.00     0.165 A 
ENDROOT
TORSDOF 0
ENDMDL
MODEL 10
REMARK VINA RESULT:      -6.1      8.511      9.644
REMARK  0 active torsions:
REMARK  status: ('A' for Active; 'I' for Inactive)
ROOT
HETATM    1 Br1  UNK     1      19.799  -3.198  36.401  1.00  0.00    -0.045 Br
HETATM    2 Cl1  UNK     1      20.881  -0.862  28.753  1.00  0.00    -0.084 Cl
HETATM    3  O1  UNK     1      18.517  -0.023  34.078  1.00  0.00    -0.320 OA
HETATM    4  O2  UNK     1      20.868  -3.309  33.486  1.00  0.00    -0.286 OA
HETATM    5  C1  UNK     1      19.898  -1.358  32.590  1.00  0.00     0.051 A 
HETATM    6  C2  UNK     1      19.086  -0.253  32.851  1.00  0.00     0.089 A 
HETATM    7  C3  UNK     1      19.374   0.495  30.573  1.00  0.00    -0.038 A 
HETATM    8  C4  UNK     1      18.822   0.674  31.842  1.00  0.00     0.046 A 
HETATM    9  C5  UNK     1      20.450  -1.540  31.320  1.00  0.00     0.042 A 
HETATM   10  C6  UNK     1      20.185  -0.611  30.313  1.00  0.00     0.041 A 
HETATM   11  C7  UNK     1      20.163  -2.327  33.671  1.00  0.00     0.204 A 
HETATM   12  C8  UNK     1      19.068   1.508  29.518  1.00  0.00     0.050 C 
HETATM   13  C9  UNK     1      19.524  -2.033  34.978  1.00  0.00     0.084 A 
HETATM   14  C10 UNK     1      18.770  -0.932  35.077  1.00  0.00     0.165 A 
ENDROOT
TORSDOF 0
ENDMDL
