MODEL 1
REMARK VINA RESULT:      -7.8      0.000      0.000
REMARK  2 active torsions:
REMARK  status: ('A' for Active; 'I' for Inactive)
REMARK    1  A    between atoms: C2_4  and  C7_9 
REMARK    2  A    between atoms: C10_12  and  C11_13 
ROOT
HETATM    1  N1  UNK     1      16.163   4.666   9.511  1.00  0.00    -0.191 NA
HETATM    2  C7  UNK     1      13.079   5.077   8.108  1.00  0.00     0.036 C 
HETATM    3  C10 UNK     1      13.955   5.812   8.789  1.00  0.00     0.055 C 
HETATM    4  C19 UNK     1      15.174   5.177   9.187  1.00  0.00     0.100 C 
ENDROOT
BRANCH   3   5
HETATM    5  C11 UNK     1      13.757   7.224   9.179  1.00  0.00    -0.015 A 
HETATM    6  C14 UNK     1      14.332   8.222   8.413  1.00  0.00     0.014 A 
HETATM    7  C16 UNK     1      14.146   9.554   8.780  1.00  0.00     0.024 A 
HETATM    8  C18 UNK     1      13.386   9.867   9.907  1.00  0.00     0.034 A 
HETATM    9  C17 UNK     1      12.813   8.847  10.667  1.00  0.00     0.024 A 
HETATM   10 Cl1  UNK     1      13.156  11.511  10.360  1.00  0.00    -0.084 Cl
HETATM   11  C15 UNK     1      13.000   7.515  10.300  1.00  0.00     0.014 A 
ENDBRANCH   3   5
BRANCH   2  12
HETATM   12  C2  UNK     1      11.800   5.593   7.626  1.00  0.00    -0.024 A 
HETATM   13  C1  UNK     1      10.593   5.416   8.324  1.00  0.00    -0.016 A 
HETATM   14  C3  UNK     1       9.398   5.948   7.786  1.00  0.00    -0.025 A 
HETATM   15  C5  UNK     1      10.550   4.725   9.546  1.00  0.00     0.013 A 
HETATM   16  C6  UNK     1       9.443   6.640   6.565  1.00  0.00     0.012 A 
HETATM   17  C8  UNK     1       8.193   5.772   8.485  1.00  0.00     0.012 A 
HETATM   18  C9  UNK     1      10.649   6.806   5.884  1.00  0.00     0.002 A 
HETATM   19  C4  UNK     1      11.826   6.283   6.413  1.00  0.00     0.012 A 
HETATM   20  C13 UNK     1       8.166   5.081   9.697  1.00  0.00     0.001 A 
HETATM   21  C12 UNK     1       9.343   4.559  10.227  1.00  0.00     0.001 A 
ENDBRANCH   2  12
TORSDOF 2
ENDMDL
MODEL 2
REMARK VINA RESULT:      -7.6     22.845     24.878
REMARK  2 active torsions:
REMARK  status: ('A' for Active; 'I' for Inactive)
REMARK    1  A    between atoms: C2_4  and  C7_9 
REMARK    2  A    between atoms: C10_12  and  C11_13 
ROOT
HETATM    1  N1  UNK     1      17.914   2.328  28.181  1.00  0.00    -0.191 NA
HETATM    2  C7  UNK     1      18.965   4.902  30.160  1.00  0.00     0.036 C 
HETATM    3  C10 UNK     1      18.577   3.638  30.315  1.00  0.00     0.055 C 
HETATM    4  C19 UNK     1      18.211   2.916  29.135  1.00  0.00     0.100 C 
ENDROOT
BRANCH   3   5
HETATM    5  C11 UNK     1      18.480   2.933  31.609  1.00  0.00    -0.015 A 
HETATM    6  C14 UNK     1      18.126   3.645  32.741  1.00  0.00     0.014 A 
HETATM    7  C16 UNK     1      18.035   2.979  33.963  1.00  0.00     0.024 A 
HETATM    8  C18 UNK     1      18.298   1.611  34.033  1.00  0.00     0.034 A 
HETATM    9  C17 UNK     1      18.654   0.909  32.881  1.00  0.00     0.024 A 
HETATM   10 Cl1  UNK     1      18.186   0.789  35.541  1.00  0.00    -0.084 Cl
HETATM   11  C15 UNK     1      18.745   1.575  31.660  1.00  0.00     0.014 A 
ENDBRANCH   3   5
BRANCH   2  12
HETATM   12  C2  UNK     1      19.379   5.757  31.270  1.00  0.00    -0.024 A 
HETATM   13  C1  UNK     1      18.518   6.682  31.884  1.00  0.00    -0.016 A 
HETATM   14  C3  UNK     1      19.000   7.472  32.953  1.00  0.00    -0.025 A 
HETATM   15  C5  UNK     1      17.188   6.836  31.460  1.00  0.00     0.013 A 
HETATM   16  C6  UNK     1      20.330   7.316  33.378  1.00  0.00     0.012 A 
HETATM   17  C8  UNK     1      18.139   8.395  33.568  1.00  0.00     0.012 A 
HETATM   18  C9  UNK     1      21.173   6.394  32.756  1.00  0.00     0.002 A 
HETATM   19  C4  UNK     1      20.698   5.616  31.704  1.00  0.00     0.012 A 
HETATM   20  C13 UNK     1      16.820   8.538  33.133  1.00  0.00     0.001 A 
HETATM   21  C12 UNK     1      16.346   7.759  32.082  1.00  0.00     0.001 A 
ENDBRANCH   2  12
TORSDOF 2
ENDMDL
MODEL 3
REMARK VINA RESULT:      -7.5     30.790     32.742
REMARK  2 active torsions:
REMARK  status: ('A' for Active; 'I' for Inactive)
REMARK    1  A    between atoms: C2_4  and  C7_9 
REMARK    2  A    between atoms: C10_12  and  C11_13 
ROOT
HETATM    1  N1  UNK     1      35.479  -6.948  29.043  1.00  0.00    -0.191 NA
HETATM    2  C7  UNK     1      32.077  -6.745  29.232  1.00  0.00     0.036 C 
HETATM    3  C10 UNK     1      33.076  -7.222  29.971  1.00  0.00     0.055 C 
HETATM    4  C19 UNK     1      34.402  -7.069  29.456  1.00  0.00     0.100 C 
ENDROOT
BRANCH   3   5
HETATM    5  C11 UNK     1      32.918  -7.908  31.270  1.00  0.00    -0.015 A 
HETATM    6  C14 UNK     1      33.006  -7.171  32.437  1.00  0.00     0.014 A 
HETATM    7  C16 UNK     1      32.858  -7.819  33.664  1.00  0.00     0.024 A 
HETATM    8  C18 UNK     1      32.621  -9.193  33.702  1.00  0.00     0.034 A 
HETATM    9  C17 UNK     1      32.534  -9.920  32.514  1.00  0.00     0.024 A 
HETATM   10 Cl1  UNK     1      32.438  -9.992  35.215  1.00  0.00    -0.084 Cl
HETATM   11  C15 UNK     1      32.684  -9.272  31.289  1.00  0.00     0.014 A 
ENDBRANCH   3   5
BRANCH   2  12
HETATM   12  C2  UNK     1      30.674  -6.817  29.634  1.00  0.00    -0.024 A 
HETATM   13  C1  UNK     1      29.828  -7.877  29.267  1.00  0.00    -0.016 A 
HETATM   14  C3  UNK     1      28.481  -7.869  29.699  1.00  0.00    -0.025 A 
HETATM   15  C5  UNK     1      30.292  -8.946  28.482  1.00  0.00     0.013 A 
HETATM   16  C6  UNK     1      28.018  -6.801  30.484  1.00  0.00     0.012 A 
HETATM   17  C8  UNK     1      27.636  -8.929  29.333  1.00  0.00     0.012 A 
HETATM   18  C9  UNK     1      28.871  -5.756  30.840  1.00  0.00     0.002 A 
HETATM   19  C4  UNK     1      30.197  -5.764  30.415  1.00  0.00     0.012 A 
HETATM   20  C13 UNK     1      28.112  -9.983  28.551  1.00  0.00     0.001 A 
HETATM   21  C12 UNK     1      29.438  -9.991  28.127  1.00  0.00     0.001 A 
ENDBRANCH   2  12
TORSDOF 2
ENDMDL
MODEL 4
REMARK VINA RESULT:      -7.3     30.698     32.616
REMARK  2 active torsions:
REMARK  status: ('A' for Active; 'I' for Inactive)
REMARK    1  A    between atoms: C2_4  and  C7_9 
REMARK    2  A    between atoms: C10_12  and  C11_13 
ROOT
HETATM    1  N1  UNK     1      35.015  -6.341  29.277  1.00  0.00    -0.191 NA
HETATM    2  C7  UNK     1      31.865  -7.526  28.715  1.00  0.00     0.036 C 
HETATM    3  C10 UNK     1      32.795  -7.620  29.662  1.00  0.00     0.055 C 
HETATM    4  C19 UNK     1      34.021  -6.913  29.447  1.00  0.00     0.100 C 
ENDROOT
BRANCH   3   5
HETATM    5  C11 UNK     1      32.666  -8.409  30.904  1.00  0.00    -0.015 A 
HETATM    6  C14 UNK     1      32.873  -9.776  30.860  1.00  0.00     0.014 A 
HETATM    7  C16 UNK     1      32.751 -10.521  32.033  1.00  0.00     0.024 A 
HETATM    8  C18 UNK     1      32.426  -9.886  33.232  1.00  0.00     0.034 A 
HETATM    9  C17 UNK     1      32.221  -8.506  33.257  1.00  0.00     0.024 A 
HETATM   10 Cl1  UNK     1      32.275 -10.805  34.679  1.00  0.00    -0.084 Cl
HETATM   11  C15 UNK     1      32.343  -7.762  32.084  1.00  0.00     0.014 A 
ENDBRANCH   3   5
BRANCH   2  12
HETATM   12  C2  UNK     1      30.561  -8.182  28.802  1.00  0.00    -0.024 A 
HETATM   13  C1  UNK     1      29.484  -7.646  29.528  1.00  0.00    -0.016 A 
HETATM   14  C3  UNK     1      28.256  -8.347  29.561  1.00  0.00    -0.025 A 
HETATM   15  C5  UNK     1      29.601  -6.430  30.220  1.00  0.00     0.013 A 
HETATM   16  C6  UNK     1      28.139  -9.563  28.867  1.00  0.00     0.012 A 
HETATM   17  C8  UNK     1      27.179  -7.811  30.285  1.00  0.00     0.012 A 
HETATM   18  C9  UNK     1      29.219 -10.081  28.152  1.00  0.00     0.002 A 
HETATM   19  C4  UNK     1      30.428  -9.392  28.119  1.00  0.00     0.012 A 
HETATM   20  C13 UNK     1      27.311  -6.602  30.969  1.00  0.00     0.001 A 
HETATM   21  C12 UNK     1      28.520  -5.912  30.936  1.00  0.00     0.001 A 
ENDBRANCH   2  12
TORSDOF 2
ENDMDL
MODEL 5
REMARK VINA RESULT:      -7.2     23.091     25.111
REMARK  2 active torsions:
REMARK  status: ('A' for Active; 'I' for Inactive)
REMARK    1  A    between atoms: C2_4  and  C7_9 
REMARK    2  A    between atoms: C10_12  and  C11_13 
ROOT
HETATM    1  N1  UNK     1      19.945   9.776  34.529  1.00  0.00    -0.191 NA
HETATM    2  C7  UNK     1      19.559   6.453  33.854  1.00  0.00     0.036 C 
HETATM    3  C10 UNK     1      18.811   7.553  33.833  1.00  0.00     0.055 C 
HETATM    4  C19 UNK     1      19.439   8.779  34.218  1.00  0.00     0.100 C 
ENDROOT
BRANCH   3   5
HETATM    5  C11 UNK     1      17.382   7.600  33.461  1.00  0.00    -0.015 A 
HETATM    6  C14 UNK     1      16.424   7.334  34.423  1.00  0.00     0.014 A 
HETATM    7  C16 UNK     1      15.075   7.379  34.072  1.00  0.00     0.024 A 
HETATM    8  C18 UNK     1      14.706   7.691  32.763  1.00  0.00     0.034 A 
HETATM    9  C17 UNK     1      15.685   7.957  31.806  1.00  0.00     0.024 A 
HETATM   10 Cl1  UNK     1      13.041   7.746  32.329  1.00  0.00    -0.084 Cl
HETATM   11  C15 UNK     1      17.034   7.911  32.158  1.00  0.00     0.014 A 
ENDBRANCH   3   5
BRANCH   2  12
HETATM   12  C2  UNK     1      19.059   5.133  33.475  1.00  0.00    -0.024 A 
HETATM   13  C1  UNK     1      18.954   4.710  32.140  1.00  0.00    -0.016 A 
HETATM   14  C3  UNK     1      18.457   3.415  31.861  1.00  0.00    -0.025 A 
HETATM   15  C5  UNK     1      19.333   5.545  31.076  1.00  0.00     0.013 A 
HETATM   16  C6  UNK     1      18.080   2.580  32.925  1.00  0.00     0.012 A 
HETATM   17  C8  UNK     1      18.354   2.992  30.526  1.00  0.00     0.012 A 
HETATM   18  C9  UNK     1      18.190   3.015  34.246  1.00  0.00     0.002 A 
HETATM   19  C4  UNK     1      18.678   4.290  34.521  1.00  0.00     0.012 A 
HETATM   20  C13 UNK     1      18.733   3.835  29.480  1.00  0.00     0.001 A 
HETATM   21  C12 UNK     1      19.222   5.109  29.755  1.00  0.00     0.001 A 
ENDBRANCH   2  12
TORSDOF 2
ENDMDL
MODEL 6
REMARK VINA RESULT:      -7.2     33.649     36.158
REMARK  2 active torsions:
REMARK  status: ('A' for Active; 'I' for Inactive)
REMARK    1  A    between atoms: C2_4  and  C7_9 
REMARK    2  A    between atoms: C10_12  and  C11_13 
ROOT
HETATM    1  N1  UNK     1      25.593 -10.641  36.580  1.00  0.00    -0.191 NA
HETATM    2  C7  UNK     1      28.409  -9.138  37.787  1.00  0.00     0.036 C 
HETATM    3  C10 UNK     1      27.825  -9.327  36.606  1.00  0.00     0.055 C 
HETATM    4  C19 UNK     1      26.593 -10.052  36.594  1.00  0.00     0.100 C 
ENDROOT
BRANCH   3   5
HETATM    5  C11 UNK     1      28.360  -8.859  35.310  1.00  0.00    -0.015 A 
HETATM    6  C14 UNK     1      28.137  -7.550  34.921  1.00  0.00     0.014 A 
HETATM    7  C16 UNK     1      28.641  -7.108  33.698  1.00  0.00     0.024 A 
HETATM    8  C18 UNK     1      29.361  -7.983  32.884  1.00  0.00     0.034 A 
HETATM    9  C17 UNK     1      29.576  -9.300  33.293  1.00  0.00     0.024 A 
HETATM   10 Cl1  UNK     1      29.983  -7.438  31.375  1.00  0.00    -0.084 Cl
HETATM   11  C15 UNK     1      29.071  -9.740  34.515  1.00  0.00     0.014 A 
ENDBRANCH   3   5
BRANCH   2  12
HETATM   12  C2  UNK     1      29.663  -8.406  37.955  1.00  0.00    -0.024 A 
HETATM   13  C1  UNK     1      29.712  -7.029  38.233  1.00  0.00    -0.016 A 
HETATM   14  C3  UNK     1      30.969  -6.397  38.380  1.00  0.00    -0.025 A 
HETATM   15  C5  UNK     1      28.539  -6.268  38.367  1.00  0.00     0.013 A 
HETATM   16  C6  UNK     1      32.141  -7.159  38.247  1.00  0.00     0.012 A 
HETATM   17  C8  UNK     1      31.017  -5.022  38.659  1.00  0.00     0.012 A 
HETATM   18  C9  UNK     1      32.075  -8.525  37.971  1.00  0.00     0.002 A 
HETATM   19  C4  UNK     1      30.838  -9.147  37.825  1.00  0.00     0.012 A 
HETATM   20  C13 UNK     1      29.842  -4.279  38.788  1.00  0.00     0.001 A 
HETATM   21  C12 UNK     1      28.606  -4.902  38.643  1.00  0.00     0.001 A 
ENDBRANCH   2  12
TORSDOF 2
ENDMDL
MODEL 7
REMARK VINA RESULT:      -7.1     34.076     36.469
REMARK  2 active torsions:
REMARK  status: ('A' for Active; 'I' for Inactive)
REMARK    1  A    between atoms: C2_4  and  C7_9 
REMARK    2  A    between atoms: C10_12  and  C11_13 
ROOT
HETATM    1  N1  UNK     1      29.482  -3.699  39.892  1.00  0.00    -0.191 NA
HETATM    2  C7  UNK     1      29.693  -6.788  38.455  1.00  0.00     0.036 C 
HETATM    3  C10 UNK     1      30.322  -5.618  38.368  1.00  0.00     0.055 C 
HETATM    4  C19 UNK     1      29.856  -4.560  39.210  1.00  0.00     0.100 C 
ENDROOT
BRANCH   3   5
HETATM    5  C11 UNK     1      31.449  -5.326  37.458  1.00  0.00    -0.015 A 
HETATM    6  C14 UNK     1      31.197  -4.705  36.249  1.00  0.00     0.014 A 
HETATM    7  C16 UNK     1      32.261  -4.429  35.390  1.00  0.00     0.024 A 
HETATM    8  C18 UNK     1      33.561  -4.779  35.756  1.00  0.00     0.034 A 
HETATM    9  C17 UNK     1      33.796  -5.406  36.981  1.00  0.00     0.024 A 
HETATM   10 Cl1  UNK     1      34.875  -4.440  34.697  1.00  0.00    -0.084 Cl
HETATM   11  C15 UNK     1      32.732  -5.681  37.838  1.00  0.00     0.014 A 
ENDBRANCH   3   5
BRANCH   2  12
HETATM   12  C2  UNK     1      30.065  -7.961  37.667  1.00  0.00    -0.024 A 
HETATM   13  C1  UNK     1      29.588  -8.189  36.365  1.00  0.00    -0.016 A 
HETATM   14  C3  UNK     1      29.998  -9.352  35.672  1.00  0.00    -0.025 A 
HETATM   15  C5  UNK     1      28.716  -7.285  35.737  1.00  0.00     0.013 A 
HETATM   16  C6  UNK     1      30.871 -10.254  36.300  1.00  0.00     0.012 A 
HETATM   17  C8  UNK     1      29.523  -9.578  34.370  1.00  0.00     0.012 A 
HETATM   18  C9  UNK     1      31.335 -10.014  37.594  1.00  0.00     0.002 A 
HETATM   19  C4  UNK     1      30.932  -8.869  38.277  1.00  0.00     0.012 A 
HETATM   20  C13 UNK     1      28.655  -8.671  33.760  1.00  0.00     0.001 A 
HETATM   21  C12 UNK     1      28.253  -7.526  34.443  1.00  0.00     0.001 A 
ENDBRANCH   2  12
TORSDOF 2
ENDMDL
MODEL 8
REMARK VINA RESULT:      -7.1     34.104     36.524
REMARK  2 active torsions:
REMARK  status: ('A' for Active; 'I' for Inactive)
REMARK    1  A    between atoms: C2_4  and  C7_9 
REMARK    2  A    between atoms: C10_12  and  C11_13 
ROOT
HETATM    1  N1  UNK     1      35.767  -5.787  36.310  1.00  0.00    -0.191 NA
HETATM    2  C7  UNK     1      32.719  -5.795  37.845  1.00  0.00     0.036 C 
HETATM    3  C10 UNK     1      33.197  -5.907  36.608  1.00  0.00     0.055 C 
HETATM    4  C19 UNK     1      34.617  -5.841  36.446  1.00  0.00     0.100 C 
ENDROOT
BRANCH   3   5
HETATM    5  C11 UNK     1      32.374  -6.077  35.392  1.00  0.00    -0.015 A 
HETATM    6  C14 UNK     1      32.096  -7.354  34.939  1.00  0.00     0.014 A 
HETATM    7  C16 UNK     1      31.319  -7.515  33.792  1.00  0.00     0.024 A 
HETATM    8  C18 UNK     1      30.833  -6.395  33.116  1.00  0.00     0.034 A 
HETATM    9  C17 UNK     1      31.124  -5.115  33.588  1.00  0.00     0.024 A 
HETATM   10 Cl1  UNK     1      29.876  -6.593  31.700  1.00  0.00    -0.084 Cl
HETATM   11  C15 UNK     1      31.901  -4.955  34.734  1.00  0.00     0.014 A 
ENDBRANCH   3   5
BRANCH   2  12
HETATM   12  C2  UNK     1      31.294  -5.856  38.164  1.00  0.00    -0.024 A 
HETATM   13  C1  UNK     1      30.594  -7.066  38.301  1.00  0.00    -0.016 A 
HETATM   14  C3  UNK     1      29.214  -7.036  38.611  1.00  0.00    -0.025 A 
HETATM   15  C5  UNK     1      31.235  -8.305  38.138  1.00  0.00     0.013 A 
HETATM   16  C6  UNK     1      28.574  -5.797  38.776  1.00  0.00     0.012 A 
HETATM   17  C8  UNK     1      28.514  -8.246  38.749  1.00  0.00     0.012 A 
HETATM   18  C9  UNK     1      29.284  -4.604  38.636  1.00  0.00     0.002 A 
HETATM   19  C4  UNK     1      30.642  -4.634  38.330  1.00  0.00     0.012 A 
HETATM   20  C13 UNK     1      29.166  -9.469  38.582  1.00  0.00     0.001 A 
HETATM   21  C12 UNK     1      30.524  -9.498  38.277  1.00  0.00     0.001 A 
ENDBRANCH   2  12
TORSDOF 2
ENDMDL
MODEL 9
REMARK VINA RESULT:      -7.1     33.950     36.489
REMARK  2 active torsions:
REMARK  status: ('A' for Active; 'I' for Inactive)
REMARK    1  A    between atoms: C2_4  and  C7_9 
REMARK    2  A    between atoms: C10_12  and  C11_13 
ROOT
HETATM    1  N1  UNK     1      26.535  -5.378  38.743  1.00  0.00    -0.191 NA
HETATM    2  C7  UNK     1      29.904  -5.822  38.428  1.00  0.00     0.036 C 
HETATM    3  C10 UNK     1      28.798  -6.216  37.801  1.00  0.00     0.055 C 
HETATM    4  C19 UNK     1      27.550  -5.752  38.323  1.00  0.00     0.100 C 
ENDROOT
BRANCH   3   5
HETATM    5  C11 UNK     1      28.762  -7.106  36.622  1.00  0.00    -0.015 A 
HETATM    6  C14 UNK     1      28.968  -6.568  35.364  1.00  0.00     0.014 A 
HETATM    7  C16 UNK     1      28.934  -7.407  34.251  1.00  0.00     0.024 A 
HETATM    8  C18 UNK     1      28.694  -8.772  34.413  1.00  0.00     0.034 A 
HETATM    9  C17 UNK     1      28.489  -9.297  35.690  1.00  0.00     0.024 A 
HETATM   10 Cl1  UNK     1      28.651  -9.807  33.040  1.00  0.00    -0.084 Cl
HETATM   11  C15 UNK     1      28.523  -8.457  36.802  1.00  0.00     0.014 A 
ENDBRANCH   3   5
BRANCH   2  12
HETATM   12  C2  UNK     1      31.249  -6.205  38.002  1.00  0.00    -0.024 A 
HETATM   13  C1  UNK     1      32.057  -5.386  37.196  1.00  0.00    -0.016 A 
HETATM   14  C3  UNK     1      33.348  -5.834  36.828  1.00  0.00    -0.025 A 
HETATM   15  C5  UNK     1      31.611  -4.132  36.748  1.00  0.00     0.013 A 
HETATM   16  C6  UNK     1      33.793  -7.088  37.277  1.00  0.00     0.012 A 
HETATM   17  C8  UNK     1      34.155  -5.014  36.023  1.00  0.00     0.012 A 
HETATM   18  C9  UNK     1      32.978  -7.889  38.076  1.00  0.00     0.002 A 
HETATM   19  C4  UNK     1      31.708  -7.449  38.438  1.00  0.00     0.012 A 
HETATM   20  C13 UNK     1      33.697  -3.771  35.586  1.00  0.00     0.001 A 
HETATM   21  C12 UNK     1      32.427  -3.330  35.948  1.00  0.00     0.001 A 
ENDBRANCH   2  12
TORSDOF 2
ENDMDL
MODEL 10
REMARK VINA RESULT:      -7.1     30.233     31.857
REMARK  2 active torsions:
REMARK  status: ('A' for Active; 'I' for Inactive)
REMARK    1  A    between atoms: C2_4  and  C7_9 
REMARK    2  A    between atoms: C10_12  and  C11_13 
ROOT
HETATM    1  N1  UNK     1      30.358  -2.113  31.399  1.00  0.00    -0.191 NA
HETATM    2  C7  UNK     1      29.154  -5.059  30.165  1.00  0.00     0.036 C 
HETATM    3  C10 UNK     1      29.692  -4.614  31.299  1.00  0.00     0.055 C 
HETATM    4  C19 UNK     1      30.059  -3.233  31.352  1.00  0.00     0.100 C 
ENDROOT
BRANCH   3   5
HETATM    5  C11 UNK     1      29.952  -5.441  32.496  1.00  0.00    -0.015 A 
HETATM    6  C14 UNK     1      28.897  -5.783  33.322  1.00  0.00     0.014 A 
HETATM    7  C16 UNK     1      29.142  -6.562  34.452  1.00  0.00     0.024 A 
HETATM    8  C18 UNK     1      30.439  -6.988  34.737  1.00  0.00     0.034 A 
HETATM    9  C17 UNK     1      31.492  -6.633  33.892  1.00  0.00     0.024 A 
HETATM   10 Cl1  UNK     1      30.742  -7.950  36.132  1.00  0.00    -0.084 Cl
HETATM   11  C15 UNK     1      31.245  -5.854  32.763  1.00  0.00     0.014 A 
ENDBRANCH   3   5
BRANCH   2  12
HETATM   12  C2  UNK     1      28.720  -6.440  29.969  1.00  0.00    -0.024 A 
HETATM   13  C1  UNK     1      29.545  -7.428  29.406  1.00  0.00    -0.016 A 
HETATM   14  C3  UNK     1      29.045  -8.742  29.251  1.00  0.00    -0.025 A 
HETATM   15  C5  UNK     1      30.857  -7.138  28.996  1.00  0.00     0.013 A 
HETATM   16  C6  UNK     1      27.734  -9.031  29.663  1.00  0.00     0.012 A 
HETATM   17  C8  UNK     1      29.871  -9.729  28.690  1.00  0.00     0.012 A 
HETATM   18  C9  UNK     1      26.927  -8.038  30.220  1.00  0.00     0.002 A 
HETATM   19  C4  UNK     1      27.419  -6.745  30.372  1.00  0.00     0.012 A 
HETATM   20  C13 UNK     1      31.171  -9.425  28.285  1.00  0.00     0.001 A 
HETATM   21  C12 UNK     1      31.663  -8.132  28.439  1.00  0.00     0.001 A 
ENDBRANCH   2  12
TORSDOF 2
ENDMDL
