MODEL 1
REMARK VINA RESULT:     -10.0      0.000      0.000
REMARK  5 active torsions:
REMARK  status: ('A' for Active; 'I' for Inactive)
REMARK    1  A    between atoms: C13_22  and  O2_5 
REMARK    2  A    between atoms: C3_12  and  N1_9 
REMARK       I    between atoms: C8_17  and  N1_9 
REMARK    3  A    between atoms: C1_10  and  C4_13 
REMARK    4  A    between atoms: C13_22  and  C2_11 
REMARK    5  A    between atoms: C6_15  and  C8_17 
ROOT
HETATM    1  S1  UNK     1      18.027  -0.350  36.973  1.00  0.00    -0.082 SA
HETATM    2  C1  UNK     1      19.326  -2.528  36.564  1.00  0.00    -0.000 A 
HETATM    3  C2  UNK     1      19.573  -1.701  35.429  1.00  0.00     0.085 A 
HETATM    4  C3  UNK     1      18.927  -0.511  35.541  1.00  0.00     0.094 A 
HETATM    5  C5  UNK     1      18.500  -1.915  37.481  1.00  0.00     0.065 A 
ENDROOT
BRANCH   4   6
HETATM    6  N1  UNK     1      18.889   0.584  34.673  1.00  0.00    -0.316 N 
HETATM    7  C8  UNK     1      17.755   1.111  34.070  1.00  0.00     0.262 C 
HETATM    8  O3  UNK     1      16.588   0.737  34.172  1.00  0.00    -0.267 OA
HETATM    9  H2  UNK     1      19.793   1.019  34.508  1.00  0.00     0.169 HD
BRANCH   7  10
HETATM   10  C6  UNK     1      18.074   2.262  33.217  1.00  0.00     0.108 A 
HETATM   11  C14 UNK     1      18.431   2.107  31.789  1.00  0.00     0.304 A 
HETATM   12  O1  UNK     1      18.713   3.274  31.084  1.00  0.00    -0.274 OA
HETATM   13  O5  UNK     1      18.477   1.008  31.249  1.00  0.00    -0.259 OA
HETATM   14  C10 UNK     1      18.662   4.542  31.696  1.00  0.00     0.089 A 
HETATM   15  C7  UNK     1      18.325   4.665  33.040  1.00  0.00    -0.001 A 
HETATM   16  C18 UNK     1      18.960   5.652  30.909  1.00  0.00     0.038 A 
HETATM   17  C15 UNK     1      18.287   5.940  33.611  1.00  0.00     0.014 A 
HETATM   18  C9  UNK     1      18.025   3.464  33.804  1.00  0.00     0.037 A 
HETATM   19  C20 UNK     1      18.583   7.064  32.834  1.00  0.00     0.001 A 
HETATM   20  C21 UNK     1      18.919   6.920  31.486  1.00  0.00     0.003 A 
ENDBRANCH   7  10
ENDBRANCH   4   6
BRANCH   3  21
HETATM   21  C13 UNK     1      20.395  -2.053  34.298  1.00  0.00     0.296 C 
HETATM   22  O4  UNK     1      21.605  -2.307  34.377  1.00  0.00    -0.259 OA
BRANCH  21  23
HETATM   23  O2  UNK     1      19.714  -2.086  33.101  1.00  0.00    -0.322 OA
HETATM   24  C22 UNK     1      20.502  -2.049  31.906  1.00  0.00     0.213 C 
ENDBRANCH  21  23
ENDBRANCH   3  21
BRANCH   2  25
HETATM   25  C4  UNK     1      19.830  -3.853  36.814  1.00  0.00    -0.023 A 
HETATM   26  C11 UNK     1      19.156  -4.960  36.306  1.00  0.00     0.038 A 
HETATM   27  C16 UNK     1      19.645  -6.243  36.547  1.00  0.00     0.056 A 
HETATM   28  C19 UNK     1      20.809  -6.416  37.297  1.00  0.00     0.055 A 
HETATM   29 Cl1  UNK     1      18.767  -7.581  35.891  1.00  0.00    -0.083 Cl
HETATM   30  C17 UNK     1      21.482  -5.305  37.806  1.00  0.00     0.026 A 
HETATM   31 Cl2  UNK     1      21.465  -7.980  37.633  1.00  0.00    -0.083 Cl
HETATM   32  C12 UNK     1      20.992  -4.021  37.564  1.00  0.00     0.014 A 
ENDBRANCH   2  25
TORSDOF 5
ENDMDL
MODEL 2
REMARK VINA RESULT:      -9.8      6.874     11.101
REMARK  5 active torsions:
REMARK  status: ('A' for Active; 'I' for Inactive)
REMARK    1  A    between atoms: C13_22  and  O2_5 
REMARK    2  A    between atoms: C3_12  and  N1_9 
REMARK       I    between atoms: C8_17  and  N1_9 
REMARK    3  A    between atoms: C1_10  and  C4_13 
REMARK    4  A    between atoms: C13_22  and  C2_11 
REMARK    5  A    between atoms: C6_15  and  C8_17 
ROOT
HETATM    1  S1  UNK     1      20.189   6.587  33.753  1.00  0.00    -0.082 SA
HETATM    2  C1  UNK     1      18.350   8.365  33.519  1.00  0.00    -0.000 A 
HETATM    3  C2  UNK     1      18.034   7.344  32.576  1.00  0.00     0.085 A 
HETATM    4  C3  UNK     1      18.951   6.342  32.614  1.00  0.00     0.094 A 
HETATM    5  C5  UNK     1      19.498   8.080  34.226  1.00  0.00     0.065 A 
ENDROOT
BRANCH   4   6
HETATM    6  N1  UNK     1      19.033   5.159  31.873  1.00  0.00    -0.316 N 
HETATM    7  C8  UNK     1      18.386   3.966  32.165  1.00  0.00     0.262 C 
HETATM    8  O3  UNK     1      17.633   3.710  33.102  1.00  0.00    -0.267 OA
HETATM    9  H2  UNK     1      19.614   5.226  31.042  1.00  0.00     0.169 HD
BRANCH   7  10
HETATM   10  C6  UNK     1      18.693   2.924  31.178  1.00  0.00     0.108 A 
HETATM   11  C14 UNK     1      18.618   3.174  29.721  1.00  0.00     0.304 A 
HETATM   12  O1  UNK     1      18.933   2.105  28.886  1.00  0.00    -0.274 OA
HETATM   13  O5  UNK     1      18.295   4.266  29.267  1.00  0.00    -0.259 OA
HETATM   14  C10 UNK     1      19.306   0.847  29.398  1.00  0.00     0.089 A 
HETATM   15  C7  UNK     1      19.370   0.633  30.771  1.00  0.00    -0.001 A 
HETATM   16  C18 UNK     1      19.604  -0.161  28.483  1.00  0.00     0.038 A 
HETATM   17  C15 UNK     1      19.743  -0.629  31.239  1.00  0.00     0.014 A 
HETATM   18  C9  UNK     1      19.046   1.730  31.670  1.00  0.00     0.037 A 
HETATM   19  C20 UNK     1      20.045  -1.650  30.334  1.00  0.00     0.001 A 
HETATM   20  C21 UNK     1      19.975  -1.417  28.959  1.00  0.00     0.003 A 
ENDBRANCH   7  10
ENDBRANCH   4   6
BRANCH   3  21
HETATM   21  C13 UNK     1      16.900   7.345  31.686  1.00  0.00     0.296 C 
HETATM   22  O4  UNK     1      16.815   8.061  30.677  1.00  0.00    -0.259 OA
BRANCH  21  23
HETATM   23  O2  UNK     1      15.899   6.472  32.054  1.00  0.00    -0.322 OA
HETATM   24  C22 UNK     1      14.565   6.991  32.081  1.00  0.00     0.213 C 
ENDBRANCH  21  23
ENDBRANCH   3  21
BRANCH   2  25
HETATM   25  C4  UNK     1      17.623   9.582  33.775  1.00  0.00    -0.023 A 
HETATM   26  C11 UNK     1      16.243   9.540  33.956  1.00  0.00     0.038 A 
HETATM   27  C16 UNK     1      15.539  10.718  34.206  1.00  0.00     0.056 A 
HETATM   28  C19 UNK     1      16.218  11.935  34.274  1.00  0.00     0.055 A 
HETATM   29 Cl1  UNK     1      13.827  10.607  34.423  1.00  0.00    -0.083 Cl
HETATM   30  C17 UNK     1      17.601  11.973  34.092  1.00  0.00     0.026 A 
HETATM   31 Cl2  UNK     1      15.403  13.428  34.579  1.00  0.00    -0.083 Cl
HETATM   32  C12 UNK     1      18.304  10.795  33.842  1.00  0.00     0.014 A 
ENDBRANCH   2  25
TORSDOF 5
ENDMDL
MODEL 3
REMARK VINA RESULT:      -9.5      1.111      1.756
REMARK  5 active torsions:
REMARK  status: ('A' for Active; 'I' for Inactive)
REMARK    1  A    between atoms: C13_22  and  O2_5 
REMARK    2  A    between atoms: C3_12  and  N1_9 
REMARK       I    between atoms: C8_17  and  N1_9 
REMARK    3  A    between atoms: C1_10  and  C4_13 
REMARK    4  A    between atoms: C13_22  and  C2_11 
REMARK    5  A    between atoms: C6_15  and  C8_17 
ROOT
HETATM    1  S1  UNK     1      17.986  -0.927  37.332  1.00  0.00    -0.082 SA
HETATM    2  C1  UNK     1      19.513  -2.916  36.773  1.00  0.00    -0.000 A 
HETATM    3  C2  UNK     1      19.749  -1.939  35.762  1.00  0.00     0.085 A 
HETATM    4  C3  UNK     1      18.986  -0.834  35.961  1.00  0.00     0.094 A 
HETATM    5  C5  UNK     1      18.577  -2.494  37.691  1.00  0.00     0.065 A 
ENDROOT
BRANCH   4   6
HETATM    6  N1  UNK     1      18.896   0.351  35.224  1.00  0.00    -0.316 N 
HETATM    7  C8  UNK     1      18.122   0.551  34.089  1.00  0.00     0.262 C 
HETATM    8  O3  UNK     1      17.379  -0.244  33.517  1.00  0.00    -0.267 OA
HETATM    9  H2  UNK     1      19.450   1.118  35.595  1.00  0.00     0.169 HD
BRANCH   7  10
HETATM   10  C6  UNK     1      18.263   1.914  33.564  1.00  0.00     0.108 A 
HETATM   11  C14 UNK     1      18.234   3.102  34.446  1.00  0.00     0.304 A 
HETATM   12  O1  UNK     1      18.380   4.343  33.830  1.00  0.00    -0.274 OA
HETATM   13  O5  UNK     1      18.091   3.005  35.660  1.00  0.00    -0.259 OA
HETATM   14  C10 UNK     1      18.547   4.465  32.437  1.00  0.00     0.089 A 
HETATM   15  C7  UNK     1      18.571   3.335  31.626  1.00  0.00    -0.001 A 
HETATM   16  C18 UNK     1      18.685   5.748  31.912  1.00  0.00     0.038 A 
HETATM   17  C15 UNK     1      18.737   3.498  30.248  1.00  0.00     0.014 A 
HETATM   18  C9  UNK     1      18.421   2.024  32.240  1.00  0.00     0.037 A 
HETATM   19  C20 UNK     1      18.877   4.779  29.707  1.00  0.00     0.001 A 
HETATM   20  C21 UNK     1      18.851   5.902  30.537  1.00  0.00     0.003 A 
ENDBRANCH   7  10
ENDBRANCH   4   6
BRANCH   3  21
HETATM   21  C13 UNK     1      20.670  -2.078  34.661  1.00  0.00     0.296 C 
HETATM   22  O4  UNK     1      21.903  -2.100  34.790  1.00  0.00    -0.259 OA
BRANCH  21  23
HETATM   23  O2  UNK     1      20.059  -2.188  33.431  1.00  0.00    -0.322 OA
HETATM   24  C22 UNK     1      20.910  -2.425  32.304  1.00  0.00     0.213 C 
ENDBRANCH  21  23
ENDBRANCH   3  21
BRANCH   2  25
HETATM   25  C4  UNK     1      20.127  -4.212  36.906  1.00  0.00    -0.023 A 
HETATM   26  C11 UNK     1      19.744  -5.252  36.063  1.00  0.00     0.038 A 
HETATM   27  C16 UNK     1      20.340  -6.506  36.191  1.00  0.00     0.056 A 
HETATM   28  C19 UNK     1      21.318  -6.717  37.164  1.00  0.00     0.055 A 
HETATM   29 Cl1  UNK     1      19.826  -7.760  35.117  1.00  0.00    -0.083 Cl
HETATM   30  C17 UNK     1      21.698  -5.673  38.008  1.00  0.00     0.026 A 
HETATM   31 Cl2  UNK     1      22.091  -8.248  37.374  1.00  0.00    -0.083 Cl
HETATM   32  C12 UNK     1      21.102  -4.419  37.879  1.00  0.00     0.014 A 
ENDBRANCH   2  25
TORSDOF 5
ENDMDL
MODEL 4
REMARK VINA RESULT:      -9.1      3.772      9.693
REMARK  5 active torsions:
REMARK  status: ('A' for Active; 'I' for Inactive)
REMARK    1  A    between atoms: C13_22  and  O2_5 
REMARK    2  A    between atoms: C3_12  and  N1_9 
REMARK       I    between atoms: C8_17  and  N1_9 
REMARK    3  A    between atoms: C1_10  and  C4_13 
REMARK    4  A    between atoms: C13_22  and  C2_11 
REMARK    5  A    between atoms: C6_15  and  C8_17 
ROOT
HETATM    1  S1  UNK     1      18.024  -1.131  37.465  1.00  0.00    -0.082 SA
HETATM    2  C1  UNK     1      18.356   0.233  35.314  1.00  0.00    -0.000 A 
HETATM    3  C2  UNK     1      18.799  -1.089  35.016  1.00  0.00     0.085 A 
HETATM    4  C3  UNK     1      18.667  -1.904  36.095  1.00  0.00     0.094 A 
HETATM    5  C5  UNK     1      17.909   0.349  36.612  1.00  0.00     0.065 A 
ENDROOT
BRANCH   4   6
HETATM    6  N1  UNK     1      18.974  -3.259  36.250  1.00  0.00    -0.316 N 
HETATM    7  C8  UNK     1      20.033  -3.779  36.982  1.00  0.00     0.262 C 
HETATM    8  O3  UNK     1      20.891  -3.176  37.624  1.00  0.00    -0.267 OA
HETATM    9  H2  UNK     1      18.328  -3.890  35.785  1.00  0.00     0.169 HD
BRANCH   7  10
HETATM   10  C6  UNK     1      20.063  -5.245  36.933  1.00  0.00     0.108 A 
HETATM   11  C14 UNK     1      20.183  -5.987  35.658  1.00  0.00     0.304 A 
HETATM   12  O1  UNK     1      20.201  -7.377  35.741  1.00  0.00    -0.274 OA
HETATM   13  O5  UNK     1      20.263  -5.411  34.579  1.00  0.00    -0.259 OA
HETATM   14  C10 UNK     1      20.109  -8.048  36.977  1.00  0.00     0.089 A 
HETATM   15  C7  UNK     1      19.997  -7.331  38.164  1.00  0.00    -0.001 A 
HETATM   16  C18 UNK     1      20.136  -9.441  36.960  1.00  0.00     0.038 A 
HETATM   17  C15 UNK     1      19.908  -8.033  39.369  1.00  0.00     0.014 A 
HETATM   18  C9  UNK     1      19.975  -5.878  38.110  1.00  0.00     0.037 A 
HETATM   19  C20 UNK     1      19.934  -9.431  39.367  1.00  0.00     0.001 A 
HETATM   20  C21 UNK     1      20.047 -10.133  38.165  1.00  0.00     0.003 A 
ENDBRANCH   7  10
ENDBRANCH   4   6
BRANCH   3  21
HETATM   21  C13 UNK     1      19.322  -1.532  33.748  1.00  0.00     0.296 C 
HETATM   22  O4  UNK     1      18.670  -1.533  32.694  1.00  0.00    -0.259 OA
BRANCH  21  23
HETATM   23  O2  UNK     1      20.630  -1.962  33.803  1.00  0.00    -0.322 OA
HETATM   24  C22 UNK     1      21.164  -2.563  32.617  1.00  0.00     0.213 C 
ENDBRANCH  21  23
ENDBRANCH   3  21
BRANCH   2  25
HETATM   25  C4  UNK     1      18.337   1.374  34.436  1.00  0.00    -0.023 A 
HETATM   26  C11 UNK     1      18.337   1.188  33.055  1.00  0.00     0.038 A 
HETATM   27  C16 UNK     1      18.318   2.292  32.205  1.00  0.00     0.056 A 
HETATM   28  C19 UNK     1      18.299   3.582  32.737  1.00  0.00     0.055 A 
HETATM   29 Cl1  UNK     1      18.318   2.002  30.500  1.00  0.00    -0.083 Cl
HETATM   30  C17 UNK     1      18.301   3.765  34.120  1.00  0.00     0.026 A 
HETATM   31 Cl2  UNK     1      18.277   4.991  31.737  1.00  0.00    -0.083 Cl
HETATM   32  C12 UNK     1      18.320   2.660  34.971  1.00  0.00     0.014 A 
ENDBRANCH   2  25
TORSDOF 5
ENDMDL
MODEL 5
REMARK VINA RESULT:      -8.9      9.613     12.330
REMARK  5 active torsions:
REMARK  status: ('A' for Active; 'I' for Inactive)
REMARK    1  A    between atoms: C13_22  and  O2_5 
REMARK    2  A    between atoms: C3_12  and  N1_9 
REMARK       I    between atoms: C8_17  and  N1_9 
REMARK    3  A    between atoms: C1_10  and  C4_13 
REMARK    4  A    between atoms: C13_22  and  C2_11 
REMARK    5  A    between atoms: C6_15  and  C8_17 
ROOT
HETATM    1  S1  UNK     1      26.700 -10.048  39.679  1.00  0.00    -0.082 SA
HETATM    2  C1  UNK     1      28.608  -8.732  38.572  1.00  0.00    -0.000 A 
HETATM    3  C2  UNK     1      27.399  -8.115  38.139  1.00  0.00     0.085 A 
HETATM    4  C3  UNK     1      26.314  -8.737  38.670  1.00  0.00     0.094 A 
HETATM    5  C5  UNK     1      28.373  -9.797  39.414  1.00  0.00     0.065 A 
ENDROOT
BRANCH   4   6
HETATM    6  N1  UNK     1      24.951  -8.469  38.516  1.00  0.00    -0.316 N 
HETATM    7  C8  UNK     1      24.122  -8.988  37.531  1.00  0.00     0.262 C 
HETATM    8  O3  UNK     1      24.405  -9.764  36.620  1.00  0.00    -0.267 OA
HETATM    9  H2  UNK     1      24.564  -7.848  39.222  1.00  0.00     0.169 HD
BRANCH   7  10
HETATM   10  C6  UNK     1      22.745  -8.498  37.662  1.00  0.00     0.108 A 
HETATM   11  C14 UNK     1      22.115  -8.267  38.982  1.00  0.00     0.304 A 
HETATM   12  O1  UNK     1      20.803  -7.800  38.976  1.00  0.00    -0.274 OA
HETATM   13  O5  UNK     1      22.715  -8.474  40.031  1.00  0.00    -0.259 OA
HETATM   14  C10 UNK     1      20.106  -7.559  37.776  1.00  0.00     0.089 A 
HETATM   15  C7  UNK     1      20.716  -7.783  36.546  1.00  0.00    -0.001 A 
HETATM   16  C18 UNK     1      18.796  -7.092  37.872  1.00  0.00     0.038 A 
HETATM   17  C15 UNK     1      19.991  -7.533  35.379  1.00  0.00     0.014 A 
HETATM   18  C9  UNK     1      22.086  -8.271  36.519  1.00  0.00     0.037 A 
HETATM   19  C20 UNK     1      18.676  -7.064  35.459  1.00  0.00     0.001 A 
HETATM   20  C21 UNK     1      18.080  -6.845  36.702  1.00  0.00     0.003 A 
ENDBRANCH   7  10
ENDBRANCH   4   6
BRANCH   3  21
HETATM   21  C13 UNK     1      27.307  -6.979  37.255  1.00  0.00     0.296 C 
HETATM   22  O4  UNK     1      27.720  -6.979  36.087  1.00  0.00    -0.259 OA
BRANCH  21  23
HETATM   23  O2  UNK     1      26.712  -5.874  37.824  1.00  0.00    -0.322 OA
HETATM   24  C22 UNK     1      27.557  -5.001  38.581  1.00  0.00     0.213 C 
ENDBRANCH  21  23
ENDBRANCH   3  21
BRANCH   2  25
HETATM   25  C4  UNK     1      29.957  -8.363  38.229  1.00  0.00    -0.023 A 
HETATM   26  C11 UNK     1      30.427  -7.087  38.532  1.00  0.00     0.038 A 
HETATM   27  C16 UNK     1      31.733  -6.731  38.200  1.00  0.00     0.056 A 
HETATM   28  C19 UNK     1      32.567  -7.651  37.566  1.00  0.00     0.055 A 
HETATM   29 Cl1  UNK     1      32.262  -5.134  38.600  1.00  0.00    -0.083 Cl
HETATM   30  C17 UNK     1      32.094  -8.928  37.262  1.00  0.00     0.026 A 
HETATM   31 Cl2  UNK     1      34.195  -7.269  37.127  1.00  0.00    -0.083 Cl
HETATM   32  C12 UNK     1      30.787  -9.285  37.594  1.00  0.00     0.014 A 
ENDBRANCH   2  25
TORSDOF 5
ENDMDL
MODEL 6
REMARK VINA RESULT:      -8.9      7.234     10.746
REMARK  5 active torsions:
REMARK  status: ('A' for Active; 'I' for Inactive)
REMARK    1  A    between atoms: C13_22  and  O2_5 
REMARK    2  A    between atoms: C3_12  and  N1_9 
REMARK       I    between atoms: C8_17  and  N1_9 
REMARK    3  A    between atoms: C1_10  and  C4_13 
REMARK    4  A    between atoms: C13_22  and  C2_11 
REMARK    5  A    between atoms: C6_15  and  C8_17 
ROOT
HETATM    1  S1  UNK     1      19.385   8.832  34.288  1.00  0.00    -0.082 SA
HETATM    2  C1  UNK     1      18.604   6.922  32.758  1.00  0.00    -0.000 A 
HETATM    3  C2  UNK     1      17.593   7.924  32.687  1.00  0.00     0.085 A 
HETATM    4  C3  UNK     1      17.906   8.992  33.466  1.00  0.00     0.094 A 
HETATM    5  C5  UNK     1      19.637   7.287  33.593  1.00  0.00     0.065 A 
ENDROOT
BRANCH   4   6
HETATM    6  N1  UNK     1      17.211  10.183  33.693  1.00  0.00    -0.316 N 
HETATM    7  C8  UNK     1      16.181  10.367  34.606  1.00  0.00     0.262 C 
HETATM    8  O3  UNK     1      15.684   9.549  35.377  1.00  0.00    -0.267 OA
HETATM    9  H2  UNK     1      17.531  10.968  33.133  1.00  0.00     0.169 HD
BRANCH   7  10
HETATM   10  C6  UNK     1      15.673  11.744  34.586  1.00  0.00     0.108 A 
HETATM   11  C14 UNK     1      16.515  12.898  34.973  1.00  0.00     0.304 A 
HETATM   12  O1  UNK     1      15.920  14.155  34.912  1.00  0.00    -0.274 OA
HETATM   13  O5  UNK     1      17.680  12.759  35.330  1.00  0.00    -0.259 OA
HETATM   14  C10 UNK     1      14.583  14.325  34.503  1.00  0.00     0.089 A 
HETATM   15  C7  UNK     1      13.809  13.227  34.143  1.00  0.00    -0.001 A 
HETATM   16  C18 UNK     1      14.075  15.622  34.474  1.00  0.00     0.038 A 
HETATM   17  C15 UNK     1      12.487  13.436  33.744  1.00  0.00     0.014 A 
HETATM   18  C9  UNK     1      14.402  11.900  34.196  1.00  0.00     0.037 A 
HETATM   19  C20 UNK     1      11.963  14.732  33.709  1.00  0.00     0.001 A 
HETATM   20  C21 UNK     1      12.756  15.823  34.073  1.00  0.00     0.003 A 
ENDBRANCH   7  10
ENDBRANCH   4   6
BRANCH   3  21
HETATM   21  C13 UNK     1      16.387   7.844  31.901  1.00  0.00     0.296 C 
HETATM   22  O4  UNK     1      16.196   8.491  30.861  1.00  0.00    -0.259 OA
BRANCH  21  23
HETATM   23  O2  UNK     1      15.446   6.974  32.407  1.00  0.00    -0.322 OA
HETATM   24  C22 UNK     1      14.182   7.534  32.780  1.00  0.00     0.213 C 
ENDBRANCH  21  23
ENDBRANCH   3  21
BRANCH   2  25
HETATM   25  C4  UNK     1      18.635   5.652  32.079  1.00  0.00    -0.023 A 
HETATM   26  C11 UNK     1      18.366   4.481  32.783  1.00  0.00     0.038 A 
HETATM   27  C16 UNK     1      18.394   3.253  32.125  1.00  0.00     0.056 A 
HETATM   28  C19 UNK     1      18.692   3.198  30.763  1.00  0.00     0.055 A 
HETATM   29 Cl1  UNK     1      18.053   1.831  33.049  1.00  0.00    -0.083 Cl
HETATM   30  C17 UNK     1      18.962   4.372  30.061  1.00  0.00     0.026 A 
HETATM   31 Cl2  UNK     1      18.745   1.706  29.892  1.00  0.00    -0.083 Cl
HETATM   32  C12 UNK     1      18.933   5.601  30.720  1.00  0.00     0.014 A 
ENDBRANCH   2  25
TORSDOF 5
ENDMDL
MODEL 7
REMARK VINA RESULT:      -8.8      7.328     10.810
REMARK  5 active torsions:
REMARK  status: ('A' for Active; 'I' for Inactive)
REMARK    1  A    between atoms: C13_22  and  O2_5 
REMARK    2  A    between atoms: C3_12  and  N1_9 
REMARK       I    between atoms: C8_17  and  N1_9 
REMARK    3  A    between atoms: C1_10  and  C4_13 
REMARK    4  A    between atoms: C13_22  and  C2_11 
REMARK    5  A    between atoms: C6_15  and  C8_17 
ROOT
HETATM    1  S1  UNK     1      19.191   8.956  34.282  1.00  0.00    -0.082 SA
HETATM    2  C1  UNK     1      18.501   7.035  32.724  1.00  0.00    -0.000 A 
HETATM    3  C2  UNK     1      17.449   7.994  32.658  1.00  0.00     0.085 A 
HETATM    4  C3  UNK     1      17.712   9.064  33.452  1.00  0.00     0.094 A 
HETATM    5  C5  UNK     1      19.512   7.432  33.570  1.00  0.00     0.065 A 
ENDROOT
BRANCH   4   6
HETATM    6  N1  UNK     1      16.965  10.222  33.689  1.00  0.00    -0.316 N 
HETATM    7  C8  UNK     1      16.000  10.385  34.674  1.00  0.00     0.262 C 
HETATM    8  O3  UNK     1      15.615   9.573  35.513  1.00  0.00    -0.267 OA
HETATM    9  H2  UNK     1      17.193  10.999  33.076  1.00  0.00     0.169 HD
BRANCH   7  10
HETATM   10  C6  UNK     1      15.410  11.728  34.643  1.00  0.00     0.108 A 
HETATM   11  C14 UNK     1      14.466  12.148  33.583  1.00  0.00     0.304 A 
HETATM   12  O1  UNK     1      13.973  13.448  33.662  1.00  0.00    -0.274 OA
HETATM   13  O5  UNK     1      14.131  11.392  32.678  1.00  0.00    -0.259 OA
HETATM   14  C10 UNK     1      14.352  14.324  34.699  1.00  0.00     0.089 A 
HETATM   15  C7  UNK     1      15.241  13.909  35.685  1.00  0.00    -0.001 A 
HETATM   16  C18 UNK     1      13.806  15.606  34.694  1.00  0.00     0.038 A 
HETATM   17  C15 UNK     1      15.593  14.807  36.696  1.00  0.00     0.014 A 
HETATM   18  C9  UNK     1      15.773  12.556  35.630  1.00  0.00     0.037 A 
HETATM   19  C20 UNK     1      15.053  16.097  36.705  1.00  0.00     0.001 A 
HETATM   20  C21 UNK     1      14.162  16.495  35.706  1.00  0.00     0.003 A 
ENDBRANCH   7  10
ENDBRANCH   4   6
BRANCH   3  21
HETATM   21  C13 UNK     1      16.252   7.873  31.863  1.00  0.00     0.296 C 
HETATM   22  O4  UNK     1      16.054   8.501  30.813  1.00  0.00    -0.259 OA
BRANCH  21  23
HETATM   23  O2  UNK     1      15.329   6.986  32.373  1.00  0.00    -0.322 OA
HETATM   24  C22 UNK     1      14.153   7.546  32.967  1.00  0.00     0.213 C 
ENDBRANCH  21  23
ENDBRANCH   3  21
BRANCH   2  25
HETATM   25  C4  UNK     1      18.589   5.776  32.029  1.00  0.00    -0.023 A 
HETATM   26  C11 UNK     1      18.342   4.587  32.711  1.00  0.00     0.038 A 
HETATM   27  C16 UNK     1      18.426   3.369  32.039  1.00  0.00     0.056 A 
HETATM   28  C19 UNK     1      18.759   3.342  30.684  1.00  0.00     0.055 A 
HETATM   29 Cl1  UNK     1      18.108   1.925  32.935  1.00  0.00    -0.083 Cl
HETATM   30  C17 UNK     1      19.008   4.535  30.003  1.00  0.00     0.026 A 
HETATM   31 Cl2  UNK     1      18.882   1.865  29.795  1.00  0.00    -0.083 Cl
HETATM   32  C12 UNK     1      18.923   5.753  30.677  1.00  0.00     0.014 A 
ENDBRANCH   2  25
TORSDOF 5
ENDMDL
MODEL 8
REMARK VINA RESULT:      -8.7      3.308      4.948
REMARK  5 active torsions:
REMARK  status: ('A' for Active; 'I' for Inactive)
REMARK    1  A    between atoms: C13_22  and  O2_5 
REMARK    2  A    between atoms: C3_12  and  N1_9 
REMARK       I    between atoms: C8_17  and  N1_9 
REMARK    3  A    between atoms: C1_10  and  C4_13 
REMARK    4  A    between atoms: C13_22  and  C2_11 
REMARK    5  A    between atoms: C6_15  and  C8_17 
ROOT
HETATM    1  S1  UNK     1      20.504  -3.749  37.572  1.00  0.00    -0.082 SA
HETATM    2  C1  UNK     1      20.156  -6.275  37.261  1.00  0.00    -0.000 A 
HETATM    3  C2  UNK     1      19.897  -5.681  35.992  1.00  0.00     0.085 A 
HETATM    4  C3  UNK     1      20.052  -4.333  36.041  1.00  0.00     0.094 A 
HETATM    5  C5  UNK     1      20.497  -5.337  38.211  1.00  0.00     0.065 A 
ENDROOT
BRANCH   4   6
HETATM    6  N1  UNK     1      19.901  -3.366  35.043  1.00  0.00    -0.316 N 
HETATM    7  C8  UNK     1      19.156  -2.198  35.142  1.00  0.00     0.262 C 
HETATM    8  O3  UNK     1      18.497  -1.787  36.095  1.00  0.00    -0.267 OA
HETATM    9  H2  UNK     1      20.414  -3.563  34.188  1.00  0.00     0.169 HD
BRANCH   7  10
HETATM   10  C6  UNK     1      19.212  -1.408  33.906  1.00  0.00     0.108 A 
HETATM   11  C14 UNK     1      18.661  -0.037  33.824  1.00  0.00     0.304 A 
HETATM   12  O1  UNK     1      18.776   0.611  32.597  1.00  0.00    -0.274 OA
HETATM   13  O5  UNK     1      18.130   0.506  34.786  1.00  0.00    -0.259 OA
HETATM   14  C10 UNK     1      19.385  -0.005  31.486  1.00  0.00     0.089 A 
HETATM   15  C7  UNK     1      19.896  -1.295  31.585  1.00  0.00    -0.001 A 
HETATM   16  C18 UNK     1      19.453   0.723  30.300  1.00  0.00     0.038 A 
HETATM   17  C15 UNK     1      20.492  -1.871  30.460  1.00  0.00     0.014 A 
HETATM   18  C9  UNK     1      19.792  -1.998  32.854  1.00  0.00     0.037 A 
HETATM   19  C20 UNK     1      20.568  -1.153  29.263  1.00  0.00     0.001 A 
HETATM   20  C21 UNK     1      20.050   0.141  29.183  1.00  0.00     0.003 A 
ENDBRANCH   7  10
ENDBRANCH   4   6
BRANCH   3  21
HETATM   21  C13 UNK     1      19.517  -6.391  34.796  1.00  0.00     0.296 C 
HETATM   22  O4  UNK     1      18.507  -7.104  34.708  1.00  0.00    -0.259 OA
BRANCH  21  23
HETATM   23  O2  UNK     1      20.382  -6.210  33.739  1.00  0.00    -0.322 OA
HETATM   24  C22 UNK     1      21.018  -7.381  33.214  1.00  0.00     0.213 C 
ENDBRANCH  21  23
ENDBRANCH   3  21
BRANCH   2  25
HETATM   25  C4  UNK     1      20.096  -7.671  37.609  1.00  0.00    -0.023 A 
HETATM   26  C11 UNK     1      20.947  -8.579  36.983  1.00  0.00     0.038 A 
HETATM   27  C16 UNK     1      20.890  -9.931  37.320  1.00  0.00     0.056 A 
HETATM   28  C19 UNK     1      19.982 -10.371  38.283  1.00  0.00     0.055 A 
HETATM   29 Cl1  UNK     1      21.969 -11.014  36.511  1.00  0.00    -0.083 Cl
HETATM   30  C17 UNK     1      19.130  -9.460  38.908  1.00  0.00     0.026 A 
HETATM   31 Cl2  UNK     1      19.861 -12.033  38.743  1.00  0.00    -0.083 Cl
HETATM   32  C12 UNK     1      19.188  -8.107  38.570  1.00  0.00     0.014 A 
ENDBRANCH   2  25
TORSDOF 5
ENDMDL
MODEL 9
REMARK VINA RESULT:      -8.7     18.992     21.386
REMARK  5 active torsions:
REMARK  status: ('A' for Active; 'I' for Inactive)
REMARK    1  A    between atoms: C13_22  and  O2_5 
REMARK    2  A    between atoms: C3_12  and  N1_9 
REMARK       I    between atoms: C8_17  and  N1_9 
REMARK    3  A    between atoms: C1_10  and  C4_13 
REMARK    4  A    between atoms: C13_22  and  C2_11 
REMARK    5  A    between atoms: C6_15  and  C8_17 
ROOT
HETATM    1  S1  UNK     1      20.436  -5.519  15.384  1.00  0.00    -0.082 SA
HETATM    2  C1  UNK     1      20.221  -5.903  12.854  1.00  0.00    -0.000 A 
HETATM    3  C2  UNK     1      19.959  -4.518  13.067  1.00  0.00     0.085 A 
HETATM    4  C3  UNK     1      20.047  -4.201  14.385  1.00  0.00     0.094 A 
HETATM    5  C5  UNK     1      20.496  -6.565  14.030  1.00  0.00     0.065 A 
ENDROOT
BRANCH   4   6
HETATM    6  N1  UNK     1      19.868  -2.977  15.036  1.00  0.00    -0.316 N 
HETATM    7  C8  UNK     1      18.706  -2.545  15.661  1.00  0.00     0.262 C 
HETATM    8  O3  UNK     1      17.630  -3.129  15.768  1.00  0.00    -0.267 OA
HETATM    9  H2  UNK     1      20.694  -2.385  15.047  1.00  0.00     0.169 HD
BRANCH   7  10
HETATM   10  C6  UNK     1      18.865  -1.207  16.244  1.00  0.00     0.108 A 
HETATM   11  C14 UNK     1      19.221  -0.029  15.423  1.00  0.00     0.304 A 
HETATM   12  O1  UNK     1      19.342   1.187  16.092  1.00  0.00    -0.274 OA
HETATM   13  O5  UNK     1      19.401  -0.112  14.213  1.00  0.00    -0.259 OA
HETATM   14  C10 UNK     1      19.137   1.294  17.482  1.00  0.00     0.089 A 
HETATM   15  C7  UNK     1      18.803   0.172  18.235  1.00  0.00    -0.001 A 
HETATM   16  C18 UNK     1      19.280   2.552  18.062  1.00  0.00     0.038 A 
HETATM   17  C15 UNK     1      18.608   0.319  19.611  1.00  0.00     0.014 A 
HETATM   18  C9  UNK     1      18.669  -1.112  17.565  1.00  0.00     0.037 A 
HETATM   19  C20 UNK     1      18.748   1.576  20.207  1.00  0.00     0.001 A 
HETATM   20  C21 UNK     1      19.084   2.689  19.434  1.00  0.00     0.003 A 
ENDBRANCH   7  10
ENDBRANCH   4   6
BRANCH   3  21
HETATM   21  C13 UNK     1      19.640  -3.557  12.040  1.00  0.00     0.296 C 
HETATM   22  O4  UNK     1      18.627  -3.618  11.329  1.00  0.00    -0.259 OA
BRANCH  21  23
HETATM   23  O2  UNK     1      20.569  -2.548  11.912  1.00  0.00    -0.322 OA
HETATM   24  C22 UNK     1      21.052  -2.277  10.591  1.00  0.00     0.213 C 
ENDBRANCH  21  23
ENDBRANCH   3  21
BRANCH   2  25
HETATM   25  C4  UNK     1      20.224  -6.616  11.603  1.00  0.00    -0.023 A 
HETATM   26  C11 UNK     1      19.022  -7.052  11.050  1.00  0.00     0.038 A 
HETATM   27  C16 UNK     1      19.025  -7.741   9.838  1.00  0.00     0.056 A 
HETATM   28  C19 UNK     1      20.230  -7.993   9.181  1.00  0.00     0.055 A 
HETATM   29 Cl1  UNK     1      17.504  -8.259   9.197  1.00  0.00    -0.083 Cl
HETATM   30  C17 UNK     1      21.432  -7.556   9.738  1.00  0.00     0.026 A 
HETATM   31 Cl2  UNK     1      20.299  -8.844   7.678  1.00  0.00    -0.083 Cl
HETATM   32  C12 UNK     1      21.429  -6.867  10.951  1.00  0.00     0.014 A 
ENDBRANCH   2  25
TORSDOF 5
ENDMDL
MODEL 10
REMARK VINA RESULT:      -8.6      1.447      1.988
REMARK  5 active torsions:
REMARK  status: ('A' for Active; 'I' for Inactive)
REMARK    1  A    between atoms: C13_22  and  O2_5 
REMARK    2  A    between atoms: C3_12  and  N1_9 
REMARK       I    between atoms: C8_17  and  N1_9 
REMARK    3  A    between atoms: C1_10  and  C4_13 
REMARK    4  A    between atoms: C13_22  and  C2_11 
REMARK    5  A    between atoms: C6_15  and  C8_17 
ROOT
HETATM    1  S1  UNK     1      17.677   0.221  37.536  1.00  0.00    -0.082 SA
HETATM    2  C1  UNK     1      18.694  -2.010  36.770  1.00  0.00    -0.000 A 
HETATM    3  C2  UNK     1      18.740  -1.145  35.638  1.00  0.00     0.085 A 
HETATM    4  C3  UNK     1      18.222   0.075  35.933  1.00  0.00     0.094 A 
HETATM    5  C5  UNK     1      18.139  -1.394  37.870  1.00  0.00     0.065 A 
ENDROOT
BRANCH   4   6
HETATM    6  N1  UNK     1      18.069   1.212  35.134  1.00  0.00    -0.316 N 
HETATM    7  C8  UNK     1      18.892   2.330  35.138  1.00  0.00     0.262 C 
HETATM    8  O3  UNK     1      19.891   2.546  35.821  1.00  0.00    -0.267 OA
HETATM    9  H2  UNK     1      17.283   1.169  34.491  1.00  0.00     0.169 HD
BRANCH   7  10
HETATM   10  C6  UNK     1      18.443   3.342  34.174  1.00  0.00     0.108 A 
HETATM   11  C14 UNK     1      18.002   2.984  32.807  1.00  0.00     0.304 A 
HETATM   12  O1  UNK     1      17.598   4.032  31.985  1.00  0.00    -0.274 OA
HETATM   13  O5  UNK     1      17.989   1.823  32.414  1.00  0.00    -0.259 OA
HETATM   14  C10 UNK     1      17.608   5.370  32.428  1.00  0.00     0.089 A 
HETATM   15  C7  UNK     1      18.027   5.684  33.716  1.00  0.00    -0.001 A 
HETATM   16  C18 UNK     1      17.186   6.351  31.533  1.00  0.00     0.038 A 
HETATM   17  C15 UNK     1      18.023   7.023  34.118  1.00  0.00     0.014 A 
HETATM   18  C9  UNK     1      18.455   4.611  34.600  1.00  0.00     0.037 A 
HETATM   19  C20 UNK     1      17.602   8.018  33.231  1.00  0.00     0.001 A 
HETATM   20  C21 UNK     1      17.185   7.683  31.941  1.00  0.00     0.003 A 
ENDBRANCH   7  10
ENDBRANCH   4   6
BRANCH   3  21
HETATM   21  C13 UNK     1      19.261  -1.492  34.339  1.00  0.00     0.296 C 
HETATM   22  O4  UNK     1      18.645  -1.314  33.278  1.00  0.00    -0.259 OA
BRANCH  21  23
HETATM   23  O2  UNK     1      20.522  -2.046  34.372  1.00  0.00    -0.322 OA
HETATM   24  C22 UNK     1      20.987  -2.670  33.169  1.00  0.00     0.213 C 
ENDBRANCH  21  23
ENDBRANCH   3  21
BRANCH   2  25
HETATM   25  C4  UNK     1      19.146  -3.375  36.855  1.00  0.00    -0.023 A 
HETATM   26  C11 UNK     1      20.374  -3.664  37.445  1.00  0.00     0.038 A 
HETATM   27  C16 UNK     1      20.811  -4.985  37.528  1.00  0.00     0.056 A 
HETATM   28  C19 UNK     1      20.018  -6.015  37.020  1.00  0.00     0.055 A 
HETATM   29 Cl1  UNK     1      22.344  -5.286  38.270  1.00  0.00    -0.083 Cl
HETATM   30  C17 UNK     1      18.789  -5.722  36.428  1.00  0.00     0.026 A 
HETATM   31 Cl2  UNK     1      20.505  -7.672  37.090  1.00  0.00    -0.083 Cl
HETATM   32  C12 UNK     1      18.352  -4.400  36.345  1.00  0.00     0.014 A 
ENDBRANCH   2  25
TORSDOF 5
ENDMDL
