MODEL 1
REMARK VINA RESULT:      -8.4      0.000      0.000
REMARK  3 active torsions:
REMARK  status: ('A' for Active; 'I' for Inactive)
REMARK    1  A    between atoms: C7_11  and  O2_2 
REMARK    2  A    between atoms: C11_15  and  O4_4 
REMARK    3  A    between atoms: C1_5  and  C4_8 
ROOT
HETATM    1  O1  UNK     1      18.979  -0.073  32.966  1.00  0.00    -0.309 OA
HETATM    2  O3  UNK     1      18.629   2.950  30.258  1.00  0.00    -0.287 OA
HETATM    3  C1  UNK     1      18.444   1.158  33.314  1.00  0.00     0.093 A 
HETATM    4  C2  UNK     1      19.294   0.725  30.693  1.00  0.00     0.048 A 
HETATM    5  C3  UNK     1      19.387  -0.264  31.670  1.00  0.00     0.093 A 
HETATM    6  C5  UNK     1      18.308   2.190  32.466  1.00  0.00     0.094 A 
HETATM    7  C6  UNK     1      18.736   2.036  31.062  1.00  0.00     0.187 A 
HETATM    8  C8  UNK     1      19.725   0.474  29.389  1.00  0.00     0.021 A 
HETATM    9  C9  UNK     1      19.915  -1.515  31.347  1.00  0.00     0.074 A 
HETATM   10  C11 UNK     1      20.347  -1.770  30.045  1.00  0.00     0.068 A 
HETATM   11  C12 UNK     1      20.252  -0.778  29.068  1.00  0.00     0.037 A 
ENDROOT
BRANCH   3  12
HETATM   12  C4  UNK     1      18.044   1.258  34.732  1.00  0.00     0.031 A 
HETATM   13  C10 UNK     1      18.866   1.951  35.625  1.00  0.00     0.017 A 
HETATM   14  C14 UNK     1      18.510   2.059  36.969  1.00  0.00     0.001 A 
HETATM   15  C15 UNK     1      17.327   1.476  37.426  1.00  0.00     0.003 A 
HETATM   16  C13 UNK     1      16.503   0.783  36.539  1.00  0.00     0.038 A 
HETATM   17  C7  UNK     1      16.860   0.675  35.195  1.00  0.00     0.081 A 
BRANCH  17  18
HETATM   18  O2  UNK     1      16.037  -0.007  34.350  1.00  0.00    -0.355 OA
HETATM   19  C16 UNK     1      15.943  -1.418  34.536  1.00  0.00     0.210 C 
ENDBRANCH  17  18
ENDBRANCH   3  12
BRANCH  10  20
HETATM   20  O4  UNK     1      20.861  -2.990  29.727  1.00  0.00    -0.361 OA
HETATM   21  H12 UNK     1      20.786  -3.124  28.767  1.00  0.00     0.217 HD
ENDBRANCH  10  20
TORSDOF 3
ENDMDL
MODEL 2
REMARK VINA RESULT:      -8.2      0.984      2.068
REMARK  3 active torsions:
REMARK  status: ('A' for Active; 'I' for Inactive)
REMARK    1  A    between atoms: C7_11  and  O2_2 
REMARK    2  A    between atoms: C11_15  and  O4_4 
REMARK    3  A    between atoms: C1_5  and  C4_8 
ROOT
HETATM    1  O1  UNK     1      18.766  -0.376  33.128  1.00  0.00    -0.309 OA
HETATM    2  O3  UNK     1      18.896   2.859  30.655  1.00  0.00    -0.287 OA
HETATM    3  C1  UNK     1      18.242   0.850  33.506  1.00  0.00     0.093 A 
HETATM    4  C2  UNK     1      19.407   0.575  30.986  1.00  0.00     0.048 A 
HETATM    5  C3  UNK     1      19.331  -0.489  31.883  1.00  0.00     0.093 A 
HETATM    6  C5  UNK     1      18.260   1.950  32.736  1.00  0.00     0.094 A 
HETATM    7  C6  UNK     1      18.860   1.881  31.389  1.00  0.00     0.187 A 
HETATM    8  C8  UNK     1      19.993   0.402  29.731  1.00  0.00     0.021 A 
HETATM    9  C9  UNK     1      19.844  -1.737  31.527  1.00  0.00     0.074 A 
HETATM   10  C11 UNK     1      20.431  -1.914  30.274  1.00  0.00     0.068 A 
HETATM   11  C12 UNK     1      20.505  -0.846  29.377  1.00  0.00     0.037 A 
ENDROOT
BRANCH   3  12
HETATM   12  C4  UNK     1      17.665   0.863  34.865  1.00  0.00     0.031 A 
HETATM   13  C10 UNK     1      16.328   0.492  35.042  1.00  0.00     0.017 A 
HETATM   14  C14 UNK     1      15.761   0.496  36.316  1.00  0.00     0.001 A 
HETATM   15  C15 UNK     1      16.528   0.869  37.420  1.00  0.00     0.003 A 
HETATM   16  C13 UNK     1      17.861   1.240  37.249  1.00  0.00     0.038 A 
HETATM   17  C7  UNK     1      18.429   1.237  35.975  1.00  0.00     0.081 A 
BRANCH  17  18
HETATM   18  O2  UNK     1      19.735   1.603  35.837  1.00  0.00    -0.355 OA
HETATM   19  C16 UNK     1      20.073   2.941  36.198  1.00  0.00     0.210 C 
ENDBRANCH  17  18
ENDBRANCH   3  12
BRANCH  10  20
HETATM   20  O4  UNK     1      20.931  -3.131  29.924  1.00  0.00    -0.361 OA
HETATM   21  H12 UNK     1      20.573  -3.382  29.056  1.00  0.00     0.217 HD
ENDBRANCH  10  20
TORSDOF 3
ENDMDL
MODEL 3
REMARK VINA RESULT:      -8.1     23.867     25.949
REMARK  3 active torsions:
REMARK  status: ('A' for Active; 'I' for Inactive)
REMARK    1  A    between atoms: C7_11  and  O2_2 
REMARK    2  A    between atoms: C11_15  and  O4_4 
REMARK    3  A    between atoms: C1_5  and  C4_8 
ROOT
HETATM    1  O1  UNK     1      13.355   7.504   8.537  1.00  0.00    -0.309 OA
HETATM    2  O3  UNK     1      15.418   4.181   9.673  1.00  0.00    -0.287 OA
HETATM    3  C1  UNK     1      12.848   6.230   8.338  1.00  0.00     0.093 A 
HETATM    4  C2  UNK     1      15.337   6.539   9.558  1.00  0.00     0.048 A 
HETATM    5  C3  UNK     1      14.580   7.633   9.142  1.00  0.00     0.093 A 
HETATM    6  C5  UNK     1      13.484   5.100   8.688  1.00  0.00     0.094 A 
HETATM    7  C6  UNK     1      14.806   5.185   9.339  1.00  0.00     0.187 A 
HETATM    8  C8  UNK     1      16.578   6.730  10.168  1.00  0.00     0.021 A 
HETATM    9  C9  UNK     1      15.062   8.928   9.336  1.00  0.00     0.074 A 
HETATM   10  C11 UNK     1      16.301   9.123   9.945  1.00  0.00     0.068 A 
HETATM   11  C12 UNK     1      17.058   8.026  10.361  1.00  0.00     0.037 A 
ENDROOT
BRANCH   3  12
HETATM   12  C4  UNK     1      11.529   6.206   7.675  1.00  0.00     0.031 A 
HETATM   13  C10 UNK     1      11.450   6.465   6.303  1.00  0.00     0.017 A 
HETATM   14  C14 UNK     1      10.216   6.449   5.654  1.00  0.00     0.001 A 
HETATM   15  C15 UNK     1       9.053   6.172   6.375  1.00  0.00     0.003 A 
HETATM   16  C13 UNK     1       9.125   5.914   7.743  1.00  0.00     0.038 A 
HETATM   17  C7  UNK     1      10.360   5.930   8.392  1.00  0.00     0.081 A 
BRANCH  17  18
HETATM   18  O2  UNK     1      10.402   5.674   9.730  1.00  0.00    -0.355 OA
HETATM   19  C16 UNK     1      10.004   4.371  10.153  1.00  0.00     0.210 C 
ENDBRANCH  17  18
ENDBRANCH   3  12
BRANCH  10  20
HETATM   20  O4  UNK     1      16.773  10.386  10.136  1.00  0.00    -0.361 OA
HETATM   21  H12 UNK     1      16.054  10.943  10.480  1.00  0.00     0.217 HD
ENDBRANCH  10  20
TORSDOF 3
ENDMDL
MODEL 4
REMARK VINA RESULT:      -8.1     12.798     16.968
REMARK  3 active torsions:
REMARK  status: ('A' for Active; 'I' for Inactive)
REMARK    1  A    between atoms: C7_11  and  O2_2 
REMARK    2  A    between atoms: C11_15  and  O4_4 
REMARK    3  A    between atoms: C1_5  and  C4_8 
ROOT
HETATM    1  O1  UNK     1      19.133  -1.060  17.684  1.00  0.00    -0.309 OA
HETATM    2  O3  UNK     1      19.223   2.291  15.369  1.00  0.00    -0.287 OA
HETATM    3  C1  UNK     1      19.168  -1.132  16.300  1.00  0.00     0.093 A 
HETATM    4  C2  UNK     1      19.172   1.365  17.543  1.00  0.00     0.048 A 
HETATM    5  C3  UNK     1      19.139   0.179  18.274  1.00  0.00     0.093 A 
HETATM    6  C5  UNK     1      19.195  -0.063  15.488  1.00  0.00     0.094 A 
HETATM    7  C6  UNK     1      19.199   1.292  16.073  1.00  0.00     0.187 A 
HETATM    8  C8  UNK     1      19.177   2.599  18.197  1.00  0.00     0.021 A 
HETATM    9  C9  UNK     1      19.111   0.221  19.668  1.00  0.00     0.074 A 
HETATM   10  C11 UNK     1      19.115   1.451  20.325  1.00  0.00     0.068 A 
HETATM   11  C12 UNK     1      19.148   2.638  19.591  1.00  0.00     0.037 A 
ENDROOT
BRANCH   3  12
HETATM   12  C4  UNK     1      19.153  -2.510  15.771  1.00  0.00     0.031 A 
HETATM   13  C10 UNK     1      17.966  -3.021  15.234  1.00  0.00     0.017 A 
HETATM   14  C14 UNK     1      17.926  -4.321  14.728  1.00  0.00     0.001 A 
HETATM   15  C15 UNK     1      19.073  -5.115  14.756  1.00  0.00     0.003 A 
HETATM   16  C13 UNK     1      20.258  -4.611  15.291  1.00  0.00     0.038 A 
HETATM   17  C7  UNK     1      20.298  -3.312  15.796  1.00  0.00     0.081 A 
BRANCH  17  18
HETATM   18  O2  UNK     1      21.470  -2.844  16.313  1.00  0.00    -0.355 OA
HETATM   19  C16 UNK     1      22.647  -3.600  16.038  1.00  0.00     0.210 C 
ENDBRANCH  17  18
ENDBRANCH   3  12
BRANCH  10  20
HETATM   20  O4  UNK     1      19.088   1.494  21.686  1.00  0.00    -0.361 OA
HETATM   21  H12 UNK     1      19.998   1.585  22.017  1.00  0.00     0.217 HD
ENDBRANCH  10  20
TORSDOF 3
ENDMDL
MODEL 5
REMARK VINA RESULT:      -8.0      1.964      6.563
REMARK  3 active torsions:
REMARK  status: ('A' for Active; 'I' for Inactive)
REMARK    1  A    between atoms: C7_11  and  O2_2 
REMARK    2  A    between atoms: C11_15  and  O4_4 
REMARK    3  A    between atoms: C1_5  and  C4_8 
ROOT
HETATM    1  O1  UNK     1      18.345  -0.440  33.298  1.00  0.00    -0.309 OA
HETATM    2  O3  UNK     1      20.486  -2.946  35.691  1.00  0.00    -0.287 OA
HETATM    3  C1  UNK     1      19.388  -1.205  32.802  1.00  0.00     0.093 A 
HETATM    4  C2  UNK     1      18.721  -1.387  35.504  1.00  0.00     0.048 A 
HETATM    5  C3  UNK     1      18.032  -0.548  34.630  1.00  0.00     0.093 A 
HETATM    6  C5  UNK     1      20.130  -2.044  33.542  1.00  0.00     0.094 A 
HETATM    7  C6  UNK     1      19.835  -2.193  34.981  1.00  0.00     0.187 A 
HETATM    8  C8  UNK     1      18.358  -1.457  36.850  1.00  0.00     0.021 A 
HETATM    9  C9  UNK     1      16.972   0.229  35.100  1.00  0.00     0.074 A 
HETATM   10  C11 UNK     1      16.607   0.163  36.445  1.00  0.00     0.068 A 
HETATM   11  C12 UNK     1      17.298  -0.679  37.318  1.00  0.00     0.037 A 
ENDROOT
BRANCH   3  12
HETATM   12  C4  UNK     1      19.644  -1.008  31.361  1.00  0.00     0.031 A 
HETATM   13  C10 UNK     1      20.163  -2.067  30.609  1.00  0.00     0.017 A 
HETATM   14  C14 UNK     1      20.413  -1.905  29.246  1.00  0.00     0.001 A 
HETATM   15  C15 UNK     1      20.144  -0.683  28.628  1.00  0.00     0.003 A 
HETATM   16  C13 UNK     1      19.626   0.377  29.374  1.00  0.00     0.038 A 
HETATM   17  C7  UNK     1      19.376   0.215  30.736  1.00  0.00     0.081 A 
BRANCH  17  18
HETATM   18  O2  UNK     1      18.870   1.266  31.441  1.00  0.00    -0.355 OA
HETATM   19  C16 UNK     1      18.581   2.456  30.710  1.00  0.00     0.210 C 
ENDBRANCH  17  18
ENDBRANCH   3  12
BRANCH  10  20
HETATM   20  O4  UNK     1      15.573   0.919  36.906  1.00  0.00    -0.361 OA
HETATM   21  H12 UNK     1      15.389   1.626  36.264  1.00  0.00     0.217 HD
ENDBRANCH  10  20
TORSDOF 3
ENDMDL
MODEL 6
REMARK VINA RESULT:      -8.0     23.501     26.341
REMARK  3 active torsions:
REMARK  status: ('A' for Active; 'I' for Inactive)
REMARK    1  A    between atoms: C7_11  and  O2_2 
REMARK    2  A    between atoms: C11_15  and  O4_4 
REMARK    3  A    between atoms: C1_5  and  C4_8 
ROOT
HETATM    1  O1  UNK     1      11.644   7.799   9.123  1.00  0.00    -0.309 OA
HETATM    2  O3  UNK     1      11.940   6.058   5.452  1.00  0.00    -0.287 OA
HETATM    3  C1  UNK     1      12.871   7.599   8.510  1.00  0.00     0.093 A 
HETATM    4  C2  UNK     1      10.539   6.806   7.202  1.00  0.00     0.048 A 
HETATM    5  C3  UNK     1      10.510   7.405   8.460  1.00  0.00     0.093 A 
HETATM    6  C5  UNK     1      13.029   7.027   7.305  1.00  0.00     0.094 A 
HETATM    7  C6  UNK     1      11.840   6.582   6.552  1.00  0.00     0.187 A 
HETATM    8  C8  UNK     1       9.351   6.425   6.573  1.00  0.00     0.021 A 
HETATM    9  C9  UNK     1       9.289   7.627   9.098  1.00  0.00     0.074 A 
HETATM   10  C11 UNK     1       8.101   7.247   8.474  1.00  0.00     0.068 A 
HETATM   11  C12 UNK     1       8.132   6.647   7.213  1.00  0.00     0.037 A 
ENDROOT
BRANCH   3  12
HETATM   12  C4  UNK     1      14.024   8.053   9.312  1.00  0.00     0.031 A 
HETATM   13  C10 UNK     1      14.499   9.358   9.145  1.00  0.00     0.017 A 
HETATM   14  C14 UNK     1      15.587   9.811   9.891  1.00  0.00     0.001 A 
HETATM   15  C15 UNK     1      16.205   8.961  10.809  1.00  0.00     0.003 A 
HETATM   16  C13 UNK     1      15.736   7.659  10.980  1.00  0.00     0.038 A 
HETATM   17  C7  UNK     1      14.648   7.206  10.233  1.00  0.00     0.081 A 
BRANCH  17  18
HETATM   18  O2  UNK     1      14.209   5.929  10.420  1.00  0.00    -0.355 OA
HETATM   19  C16 UNK     1      15.051   4.880   9.946  1.00  0.00     0.210 C 
ENDBRANCH  17  18
ENDBRANCH   3  12
BRANCH  10  20
HETATM   20  O4  UNK     1       6.908   7.463   9.094  1.00  0.00    -0.361 OA
HETATM   21  H12 UNK     1       6.697   8.410   9.050  1.00  0.00     0.217 HD
ENDBRANCH  10  20
TORSDOF 3
ENDMDL
MODEL 7
REMARK VINA RESULT:      -8.0      1.786      3.348
REMARK  3 active torsions:
REMARK  status: ('A' for Active; 'I' for Inactive)
REMARK    1  A    between atoms: C7_11  and  O2_2 
REMARK    2  A    between atoms: C11_15  and  O4_4 
REMARK    3  A    between atoms: C1_5  and  C4_8 
ROOT
HETATM    1  O1  UNK     1      18.464   0.117  32.889  1.00  0.00    -0.309 OA
HETATM    2  O3  UNK     1      20.721  -3.224  33.473  1.00  0.00    -0.287 OA
HETATM    3  C1  UNK     1      18.544  -0.500  34.128  1.00  0.00     0.093 A 
HETATM    4  C2  UNK     1      19.970  -1.557  31.976  1.00  0.00     0.048 A 
HETATM    5  C3  UNK     1      19.176  -0.418  31.845  1.00  0.00     0.093 A 
HETATM    6  C5  UNK     1      19.267  -1.603  34.377  1.00  0.00     0.094 A 
HETATM    7  C6  UNK     1      20.049  -2.219  33.288  1.00  0.00     0.187 A 
HETATM    8  C8  UNK     1      20.674  -2.057  30.879  1.00  0.00     0.021 A 
HETATM    9  C9  UNK     1      19.082   0.228  30.612  1.00  0.00     0.074 A 
HETATM   10  C11 UNK     1      19.784  -0.269  29.513  1.00  0.00     0.068 A 
HETATM   11  C12 UNK     1      20.578  -1.410  29.647  1.00  0.00     0.037 A 
ENDROOT
BRANCH   3  12
HETATM   12  C4  UNK     1      17.735   0.154  35.176  1.00  0.00     0.031 A 
HETATM   13  C10 UNK     1      16.376  -0.156  35.281  1.00  0.00     0.017 A 
HETATM   14  C14 UNK     1      15.591   0.448  36.263  1.00  0.00     0.001 A 
HETATM   15  C15 UNK     1      16.162   1.365  37.145  1.00  0.00     0.003 A 
HETATM   16  C13 UNK     1      17.517   1.679  37.045  1.00  0.00     0.038 A 
HETATM   17  C7  UNK     1      18.302   1.075  36.063  1.00  0.00     0.081 A 
BRANCH  17  18
HETATM   18  O2  UNK     1      19.624   1.399  35.987  1.00  0.00    -0.355 OA
HETATM   19  C16 UNK     1      19.965   2.772  36.164  1.00  0.00     0.210 C 
ENDBRANCH  17  18
ENDBRANCH   3  12
BRANCH  10  20
HETATM   20  O4  UNK     1      19.694   0.359  28.309  1.00  0.00    -0.361 OA
HETATM   21  H12 UNK     1      19.095   1.120  28.395  1.00  0.00     0.217 HD
ENDBRANCH  10  20
TORSDOF 3
ENDMDL
MODEL 8
REMARK VINA RESULT:      -7.9      1.417      1.864
REMARK  3 active torsions:
REMARK  status: ('A' for Active; 'I' for Inactive)
REMARK    1  A    between atoms: C7_11  and  O2_2 
REMARK    2  A    between atoms: C11_15  and  O4_4 
REMARK    3  A    between atoms: C1_5  and  C4_8 
ROOT
HETATM    1  O1  UNK     1      18.962  -0.810  32.965  1.00  0.00    -0.309 OA
HETATM    2  O3  UNK     1      18.903   2.587  30.717  1.00  0.00    -0.287 OA
HETATM    3  C1  UNK     1      18.410   0.369  33.442  1.00  0.00     0.093 A 
HETATM    4  C2  UNK     1      19.499   0.306  30.875  1.00  0.00     0.048 A 
HETATM    5  C3  UNK     1      19.489  -0.819  31.699  1.00  0.00     0.093 A 
HETATM    6  C5  UNK     1      18.367   1.518  32.749  1.00  0.00     0.094 A 
HETATM    7  C6  UNK     1      18.923   1.562  31.383  1.00  0.00     0.187 A 
HETATM    8  C8  UNK     1      20.049   0.239  29.593  1.00  0.00     0.021 A 
HETATM    9  C9  UNK     1      20.030  -2.021  31.242  1.00  0.00     0.074 A 
HETATM   10  C11 UNK     1      20.581  -2.092  29.962  1.00  0.00     0.068 A 
HETATM   11  C12 UNK     1      20.590  -0.964  29.140  1.00  0.00     0.037 A 
ENDROOT
BRANCH   3  12
HETATM   12  C4  UNK     1      17.879   0.269  34.816  1.00  0.00     0.031 A 
HETATM   13  C10 UNK     1      16.576   0.707  35.077  1.00  0.00     0.017 A 
HETATM   14  C14 UNK     1      16.052   0.624  36.367  1.00  0.00     0.001 A 
HETATM   15  C15 UNK     1      16.827   0.100  37.402  1.00  0.00     0.003 A 
HETATM   16  C13 UNK     1      18.127  -0.337  37.148  1.00  0.00     0.038 A 
HETATM   17  C7  UNK     1      18.652  -0.253  35.858  1.00  0.00     0.081 A 
BRANCH  17  18
HETATM   18  O2  UNK     1      19.924  -0.688  35.637  1.00  0.00    -0.355 OA
HETATM   19  C16 UNK     1      20.216  -2.041  35.984  1.00  0.00     0.210 C 
ENDBRANCH  17  18
ENDBRANCH   3  12
BRANCH  10  20
HETATM   20  O4  UNK     1      21.109  -3.264  29.515  1.00  0.00    -0.361 OA
HETATM   21  H12 UNK     1      20.807  -3.419  28.604  1.00  0.00     0.217 HD
ENDBRANCH  10  20
TORSDOF 3
ENDMDL
MODEL 9
REMARK VINA RESULT:      -7.9     23.999     26.178
REMARK  3 active torsions:
REMARK  status: ('A' for Active; 'I' for Inactive)
REMARK    1  A    between atoms: C7_11  and  O2_2 
REMARK    2  A    between atoms: C11_15  and  O4_4 
REMARK    3  A    between atoms: C1_5  and  C4_8 
ROOT
HETATM    1  O1  UNK     1      13.359   7.737   8.459  1.00  0.00    -0.309 OA
HETATM    2  O3  UNK     1      15.335   4.366   9.607  1.00  0.00    -0.287 OA
HETATM    3  C1  UNK     1      12.813   6.476   8.277  1.00  0.00     0.093 A 
HETATM    4  C2  UNK     1      15.322   6.725   9.469  1.00  0.00     0.048 A 
HETATM    5  C3  UNK     1      14.592   7.836   9.050  1.00  0.00     0.093 A 
HETATM    6  C5  UNK     1      13.419   5.332   8.631  1.00  0.00     0.094 A 
HETATM    7  C6  UNK     1      14.749   5.384   9.269  1.00  0.00     0.187 A 
HETATM    8  C8  UNK     1      16.574   6.885  10.066  1.00  0.00     0.021 A 
HETATM    9  C9  UNK     1      15.113   9.118   9.227  1.00  0.00     0.074 A 
HETATM   10  C11 UNK     1      16.364   9.283   9.823  1.00  0.00     0.068 A 
HETATM   11  C12 UNK     1      17.093   8.168  10.242  1.00  0.00     0.037 A 
ENDROOT
BRANCH   3  12
HETATM   12  C4  UNK     1      11.487   6.485   7.627  1.00  0.00     0.031 A 
HETATM   13  C10 UNK     1      11.361   5.981   6.328  1.00  0.00     0.017 A 
HETATM   14  C14 UNK     1      10.119   5.979   5.693  1.00  0.00     0.001 A 
HETATM   15  C15 UNK     1       8.996   6.479   6.354  1.00  0.00     0.003 A 
HETATM   16  C13 UNK     1       9.117   6.983   7.649  1.00  0.00     0.038 A 
HETATM   17  C7  UNK     1      10.358   6.985   8.284  1.00  0.00     0.081 A 
BRANCH  17  18
HETATM   18  O2  UNK     1      10.448   7.483   9.550  1.00  0.00    -0.355 OA
HETATM   19  C16 UNK     1      10.267   8.889   9.707  1.00  0.00     0.210 C 
ENDBRANCH  17  18
ENDBRANCH   3  12
BRANCH  10  20
HETATM   20  O4  UNK     1      16.874  10.533   9.997  1.00  0.00    -0.361 OA
HETATM   21  H12 UNK     1      17.448  10.747   9.242  1.00  0.00     0.217 HD
ENDBRANCH  10  20
TORSDOF 3
ENDMDL
MODEL 10
REMARK VINA RESULT:      -7.8     13.387     16.218
REMARK  3 active torsions:
REMARK  status: ('A' for Active; 'I' for Inactive)
REMARK    1  A    between atoms: C7_11  and  O2_2 
REMARK    2  A    between atoms: C11_15  and  O4_4 
REMARK    3  A    between atoms: C1_5  and  C4_8 
ROOT
HETATM    1  O1  UNK     1      20.500  -1.926  17.635  1.00  0.00    -0.309 OA
HETATM    2  O3  UNK     1      17.855  -3.143  14.785  1.00  0.00    -0.287 OA
HETATM    3  C1  UNK     1      19.298  -1.266  17.428  1.00  0.00     0.093 A 
HETATM    4  C2  UNK     1      19.926  -3.492  15.869  1.00  0.00     0.048 A 
HETATM    5  C3  UNK     1      20.786  -3.021  16.860  1.00  0.00     0.093 A 
HETATM    6  C5  UNK     1      18.392  -1.618  16.502  1.00  0.00     0.094 A 
HETATM    7  C6  UNK     1      18.654  -2.787  15.640  1.00  0.00     0.187 A 
HETATM    8  C8  UNK     1      20.269  -4.612  15.110  1.00  0.00     0.021 A 
HETATM    9  C9  UNK     1      21.998  -3.669  17.096  1.00  0.00     0.074 A 
HETATM   10  C11 UNK     1      22.345  -4.789  16.339  1.00  0.00     0.068 A 
HETATM   11  C12 UNK     1      21.482  -5.259  15.348  1.00  0.00     0.037 A 
ENDROOT
BRANCH   3  12
HETATM   12  C4  UNK     1      19.094  -0.100  18.311  1.00  0.00     0.031 A 
HETATM   13  C10 UNK     1      18.947  -0.304  19.687  1.00  0.00     0.017 A 
HETATM   14  C14 UNK     1      18.753   0.781  20.541  1.00  0.00     0.001 A 
HETATM   15  C15 UNK     1      18.706   2.076  20.024  1.00  0.00     0.003 A 
HETATM   16  C13 UNK     1      18.852   2.285  18.653  1.00  0.00     0.038 A 
HETATM   17  C7  UNK     1      19.046   1.200  17.798  1.00  0.00     0.081 A 
BRANCH  17  18
HETATM   18  O2  UNK     1      19.185   1.433  16.462  1.00  0.00    -0.355 OA
HETATM   19  C16 UNK     1      19.561   2.752  16.071  1.00  0.00     0.210 C 
ENDBRANCH  17  18
ENDBRANCH   3  12
BRANCH  10  20
HETATM   20  O4  UNK     1      23.528  -5.424  16.569  1.00  0.00    -0.361 OA
HETATM   21  H12 UNK     1      23.361  -6.378  16.655  1.00  0.00     0.217 HD
ENDBRANCH  10  20
TORSDOF 3
ENDMDL
