MODEL 1
REMARK VINA RESULT:      -7.8      0.000      0.000
REMARK  3 active torsions:
REMARK  status: ('A' for Active; 'I' for Inactive)
REMARK    1  A    between atoms: C1_6  and  N1_5 
REMARK       I    between atoms: C5_10  and  N1_5 
REMARK    2  A    between atoms: C1_6  and  C2_7 
REMARK    3  A    between atoms: C5_10  and  C6_11 
ROOT
HETATM    1  C1  UNK     1      16.700   6.891  32.328  1.00  0.00     0.092 C 
HETATM    2  C3  UNK     1      17.396   7.331  31.033  1.00  0.00     0.053 C 
HETATM    3  C7  UNK     1      15.242   7.077  32.191  1.00  0.00    -0.086 C 
HETATM    4  C16 UNK     1      14.056   7.230  32.076  1.00  0.00     0.015 C 
ENDROOT
BRANCH   1   5
HETATM    5  N1  UNK     1      16.993   5.489  32.526  1.00  0.00    -0.337 N 
HETATM    6  C5  UNK     1      18.233   5.028  32.932  1.00  0.00     0.259 C 
HETATM    7  O2  UNK     1      19.221   5.719  33.171  1.00  0.00    -0.267 OA
HETATM    8  H3  UNK     1      16.255   4.821  32.321  1.00  0.00     0.164 HD
BRANCH   6   9
HETATM    9  C6  UNK     1      18.283   3.568  33.065  1.00  0.00     0.108 A 
HETATM   10  C11 UNK     1      18.399   2.675  31.889  1.00  0.00     0.304 A 
HETATM   11  O1  UNK     1      18.437   1.307  32.145  1.00  0.00    -0.274 OA
HETATM   12  O3  UNK     1      18.461   3.114  30.746  1.00  0.00    -0.259 OA
HETATM   13  C10 UNK     1      18.367   0.793  33.454  1.00  0.00     0.089 A 
HETATM   14  C13 UNK     1      18.412  -0.591  33.609  1.00  0.00     0.039 A 
HETATM   15  C8  UNK     1      18.257   1.649  34.545  1.00  0.00     0.000 A 
HETATM   16  C15 UNK     1      18.346  -1.129  34.892  1.00  0.00     0.022 A 
HETATM   17  C14 UNK     1      18.234  -0.285  36.000  1.00  0.00     0.011 A 
HETATM   18 Br1  UNK     1      18.142  -1.023  37.739  1.00  0.00    -0.051 Br
HETATM   19  C12 UNK     1      18.190   1.101  35.828  1.00  0.00     0.033 A 
HETATM   20  C9  UNK     1      18.215   3.085  34.311  1.00  0.00     0.037 A 
ENDBRANCH   6   9
ENDBRANCH   1   5
BRANCH   1  21
HETATM   21  C2  UNK     1      17.259   7.695  33.520  1.00  0.00     0.040 C 
HETATM   22  C4  UNK     1      16.520   7.485  34.840  1.00  0.00     0.009 C 
ENDBRANCH   1  21
TORSDOF 3
ENDMDL
MODEL 2
REMARK VINA RESULT:      -7.8     17.063     19.317
REMARK  3 active torsions:
REMARK  status: ('A' for Active; 'I' for Inactive)
REMARK    1  A    between atoms: C1_6  and  N1_5 
REMARK       I    between atoms: C5_10  and  N1_5 
REMARK    2  A    between atoms: C1_6  and  C2_7 
REMARK    3  A    between atoms: C5_10  and  C6_11 
ROOT
HETATM    1  C1  UNK     1      20.009  -5.064  14.977  1.00  0.00     0.092 C 
HETATM    2  C3  UNK     1      18.924  -5.794  15.780  1.00  0.00     0.053 C 
HETATM    3  C7  UNK     1      19.769  -5.257  13.534  1.00  0.00    -0.086 C 
HETATM    4  C16 UNK     1      19.571  -5.418  12.361  1.00  0.00     0.015 C 
ENDROOT
BRANCH   1   5
HETATM    5  N1  UNK     1      19.918  -3.658  15.300  1.00  0.00    -0.337 N 
HETATM    6  C5  UNK     1      18.760  -2.919  15.136  1.00  0.00     0.259 C 
HETATM    7  O2  UNK     1      17.687  -3.339  14.708  1.00  0.00    -0.267 OA
HETATM    8  H3  UNK     1      20.762  -3.196  15.630  1.00  0.00     0.164 HD
BRANCH   6   9
HETATM    9  C6  UNK     1      18.916  -1.516  15.536  1.00  0.00     0.108 A 
HETATM   10  C11 UNK     1      19.176  -0.443  14.550  1.00  0.00     0.304 A 
HETATM   11  O1  UNK     1      19.305   0.849  15.052  1.00  0.00    -0.274 OA
HETATM   12  O3  UNK     1      19.272  -0.674  13.350  1.00  0.00    -0.259 OA
HETATM   13  C10 UNK     1      19.196   1.126  16.429  1.00  0.00     0.089 A 
HETATM   14  C13 UNK     1      19.340   2.450  16.836  1.00  0.00     0.039 A 
HETATM   15  C8  UNK     1      18.953   0.102  17.339  1.00  0.00     0.000 A 
HETATM   16  C15 UNK     1      19.237   2.756  18.192  1.00  0.00     0.022 A 
HETATM   17  C14 UNK     1      18.994   1.741  19.120  1.00  0.00     0.011 A 
HETATM   18 Br1  UNK     1      18.857   2.161  20.959  1.00  0.00    -0.051 Br
HETATM   19  C12 UNK     1      18.851   0.417  18.696  1.00  0.00     0.033 A 
HETATM   20  C9  UNK     1      18.812  -1.259  16.845  1.00  0.00     0.037 A 
ENDBRANCH   6   9
ENDBRANCH   1   5
BRANCH   1  21
HETATM   21  C2  UNK     1      21.401  -5.585  15.390  1.00  0.00     0.040 C 
HETATM   22  C4  UNK     1      22.240  -4.602  16.205  1.00  0.00     0.009 C 
ENDBRANCH   1  21
TORSDOF 3
ENDMDL
MODEL 3
REMARK VINA RESULT:      -7.7      3.097      6.568
REMARK  3 active torsions:
REMARK  status: ('A' for Active; 'I' for Inactive)
REMARK    1  A    between atoms: C1_6  and  N1_5 
REMARK       I    between atoms: C5_10  and  N1_5 
REMARK    2  A    between atoms: C1_6  and  C2_7 
REMARK    3  A    between atoms: C5_10  and  C6_11 
ROOT
HETATM    1  C1  UNK     1      17.193  -0.040  35.658  1.00  0.00     0.092 C 
HETATM    2  C3  UNK     1      16.186  -0.954  34.946  1.00  0.00     0.053 C 
HETATM    3  C7  UNK     1      18.447  -0.782  35.897  1.00  0.00    -0.086 C 
HETATM    4  C16 UNK     1      19.465  -1.388  36.090  1.00  0.00     0.015 C 
ENDROOT
BRANCH   1   5
HETATM    5  N1  UNK     1      17.452   1.085  34.788  1.00  0.00    -0.337 N 
HETATM    6  C5  UNK     1      18.148   0.974  33.599  1.00  0.00     0.259 C 
HETATM    7  O2  UNK     1      18.628  -0.058  33.131  1.00  0.00    -0.267 OA
HETATM    8  H3  UNK     1      17.131   1.999  35.095  1.00  0.00     0.164 HD
BRANCH   6   9
HETATM    9  C6  UNK     1      18.279   2.253  32.892  1.00  0.00     0.108 A 
HETATM   10  C11 UNK     1      18.407   2.327  31.419  1.00  0.00     0.304 A 
HETATM   11  O1  UNK     1      18.525   3.599  30.865  1.00  0.00    -0.274 OA
HETATM   12  O3  UNK     1      18.408   1.322  30.717  1.00  0.00    -0.259 OA
HETATM   13  C10 UNK     1      18.524   4.760  31.662  1.00  0.00     0.089 A 
HETATM   14  C13 UNK     1      18.647   5.988  31.017  1.00  0.00     0.039 A 
HETATM   15  C8  UNK     1      18.404   4.668  33.045  1.00  0.00     0.000 A 
HETATM   16  C15 UNK     1      18.650   7.155  31.779  1.00  0.00     0.022 A 
HETATM   17  C14 UNK     1      18.531   7.082  33.169  1.00  0.00     0.011 A 
HETATM   18 Br1  UNK     1      18.536   8.669  34.197  1.00  0.00    -0.051 Br
HETATM   19  C12 UNK     1      18.408   5.842  33.802  1.00  0.00     0.033 A 
HETATM   20  C9  UNK     1      18.279   3.352  33.655  1.00  0.00     0.037 A 
ENDBRANCH   6   9
ENDBRANCH   1   5
BRANCH   1  21
HETATM   21  C2  UNK     1      16.585   0.474  36.979  1.00  0.00     0.040 C 
HETATM   22  C4  UNK     1      17.539   1.286  37.852  1.00  0.00     0.009 C 
ENDBRANCH   1  21
TORSDOF 3
ENDMDL
MODEL 4
REMARK VINA RESULT:      -7.4     23.788     25.655
REMARK  3 active torsions:
REMARK  status: ('A' for Active; 'I' for Inactive)
REMARK    1  A    between atoms: C1_6  and  N1_5 
REMARK       I    between atoms: C5_10  and  N1_5 
REMARK    2  A    between atoms: C1_6  and  C2_7 
REMARK    3  A    between atoms: C5_10  and  C6_11 
ROOT
HETATM    1  C1  UNK     1      10.338   6.181   8.277  1.00  0.00     0.092 C 
HETATM    2  C3  UNK     1      11.687   5.471   8.456  1.00  0.00     0.053 C 
HETATM    3  C7  UNK     1       9.960   6.167   6.851  1.00  0.00    -0.086 C 
HETATM    4  C16 UNK     1       9.656   6.155   5.689  1.00  0.00     0.015 C 
ENDROOT
BRANCH   1   5
HETATM    5  N1  UNK     1       9.356   5.451   9.047  1.00  0.00    -0.337 N 
HETATM    6  C5  UNK     1       8.015   5.789   9.073  1.00  0.00     0.259 C 
HETATM    7  O2  UNK     1       7.489   6.722   8.469  1.00  0.00    -0.267 OA
HETATM    8  H3  UNK     1       9.687   4.678   9.617  1.00  0.00     0.164 HD
BRANCH   6   9
HETATM    9  C6  UNK     1       7.218   4.897   9.923  1.00  0.00     0.108 A 
HETATM   10  C11 UNK     1       6.754   3.571   9.453  1.00  0.00     0.304 A 
HETATM   11  O1  UNK     1       6.005   2.817  10.352  1.00  0.00    -0.274 OA
HETATM   12  O3  UNK     1       7.014   3.154   8.331  1.00  0.00    -0.259 OA
HETATM   13  C10 UNK     1       5.700   3.287  11.644  1.00  0.00     0.089 A 
HETATM   14  C13 UNK     1       4.944   2.461  12.472  1.00  0.00     0.039 A 
HETATM   15  C8  UNK     1       6.145   4.536  12.065  1.00  0.00     0.000 A 
HETATM   16  C15 UNK     1       4.627   2.898  13.757  1.00  0.00     0.022 A 
HETATM   17  C14 UNK     1       5.065   4.150  14.197  1.00  0.00     0.011 A 
HETATM   18 Br1  UNK     1       4.630   4.738  15.940  1.00  0.00    -0.051 Br
HETATM   19  C12 UNK     1       5.822   4.968  13.354  1.00  0.00     0.033 A 
HETATM   20  C9  UNK     1       6.931   5.349  11.149  1.00  0.00     0.037 A 
ENDBRANCH   6   9
ENDBRANCH   1   5
BRANCH   1  21
HETATM   21  C2  UNK     1      10.432   7.622   8.820  1.00  0.00     0.040 C 
HETATM   22  C4  UNK     1      11.703   8.374   8.428  1.00  0.00     0.009 C 
ENDBRANCH   1  21
TORSDOF 3
ENDMDL
MODEL 5
REMARK VINA RESULT:      -7.4      4.547      7.981
REMARK  3 active torsions:
REMARK  status: ('A' for Active; 'I' for Inactive)
REMARK    1  A    between atoms: C1_6  and  N1_5 
REMARK       I    between atoms: C5_10  and  N1_5 
REMARK    2  A    between atoms: C1_6  and  C2_7 
REMARK    3  A    between atoms: C5_10  and  C6_11 
ROOT
HETATM    1  C1  UNK     1      19.000   5.831  31.506  1.00  0.00     0.092 C 
HETATM    2  C3  UNK     1      19.284   5.871  29.998  1.00  0.00     0.053 C 
HETATM    3  C7  UNK     1      20.240   6.130  32.248  1.00  0.00    -0.086 C 
HETATM    4  C16 UNK     1      21.251   6.373  32.849  1.00  0.00     0.015 C 
ENDROOT
BRANCH   1   5
HETATM    5  N1  UNK     1      18.008   6.844  31.789  1.00  0.00    -0.337 N 
HETATM    6  C5  UNK     1      17.453   7.027  33.042  1.00  0.00     0.259 C 
HETATM    7  O2  UNK     1      17.714   6.377  34.053  1.00  0.00    -0.267 OA
HETATM    8  H3  UNK     1      17.689   7.419  31.013  1.00  0.00     0.164 HD
BRANCH   6   9
HETATM    9  C6  UNK     1      16.473   8.118  33.079  1.00  0.00     0.108 A 
HETATM   10  C11 UNK     1      15.864   8.669  31.847  1.00  0.00     0.304 A 
HETATM   11  O1  UNK     1      14.948   9.703  32.011  1.00  0.00    -0.274 OA
HETATM   12  O3  UNK     1      16.148   8.238  30.735  1.00  0.00    -0.259 OA
HETATM   13  C10 UNK     1      14.614  10.206  33.284  1.00  0.00     0.089 A 
HETATM   14  C13 UNK     1      13.686  11.243  33.348  1.00  0.00     0.039 A 
HETATM   15  C8  UNK     1      15.199   9.675  34.429  1.00  0.00     0.000 A 
HETATM   16  C15 UNK     1      13.335  11.760  34.593  1.00  0.00     0.022 A 
HETATM   17  C14 UNK     1      13.913  11.241  35.754  1.00  0.00     0.011 A 
HETATM   18 Br1  UNK     1      13.434  11.948  37.441  1.00  0.00    -0.051 Br
HETATM   19  C12 UNK     1      14.842  10.200  35.674  1.00  0.00     0.033 A 
HETATM   20  C9  UNK     1      16.161   8.592  34.291  1.00  0.00     0.037 A 
ENDBRANCH   6   9
ENDBRANCH   1   5
BRANCH   1  21
HETATM   21  C2  UNK     1      18.433   4.450  31.892  1.00  0.00     0.040 C 
HETATM   22  C4  UNK     1      18.539   3.384  30.804  1.00  0.00     0.009 C 
ENDBRANCH   1  21
TORSDOF 3
ENDMDL
MODEL 6
REMARK VINA RESULT:      -7.4      5.847     10.120
REMARK  3 active torsions:
REMARK  status: ('A' for Active; 'I' for Inactive)
REMARK    1  A    between atoms: C1_6  and  N1_5 
REMARK       I    between atoms: C5_10  and  N1_5 
REMARK    2  A    between atoms: C1_6  and  C2_7 
REMARK    3  A    between atoms: C5_10  and  C6_11 
ROOT
HETATM    1  C1  UNK     1      19.523  -6.308  36.913  1.00  0.00     0.092 C 
HETATM    2  C3  UNK     1      18.140  -6.902  37.215  1.00  0.00     0.053 C 
HETATM    3  C7  UNK     1      20.298  -7.258  36.092  1.00  0.00    -0.086 C 
HETATM    4  C16 UNK     1      20.927  -8.035  35.426  1.00  0.00     0.015 C 
ENDROOT
BRANCH   1   5
HETATM    5  N1  UNK     1      19.319  -5.083  36.173  1.00  0.00    -0.337 N 
HETATM    6  C5  UNK     1      20.223  -4.037  36.182  1.00  0.00     0.259 C 
HETATM    7  O2  UNK     1      21.287  -4.002  36.797  1.00  0.00    -0.267 OA
HETATM    8  H3  UNK     1      18.449  -4.986  35.655  1.00  0.00     0.164 HD
BRANCH   6   9
HETATM    9  C6  UNK     1      19.795  -2.905  35.353  1.00  0.00     0.108 A 
HETATM   10  C11 UNK     1      18.913  -1.836  35.877  1.00  0.00     0.304 A 
HETATM   11  O1  UNK     1      18.576  -0.815  34.993  1.00  0.00    -0.274 OA
HETATM   12  O3  UNK     1      18.500  -1.845  37.031  1.00  0.00    -0.259 OA
HETATM   13  C10 UNK     1      19.046  -0.795  33.665  1.00  0.00     0.089 A 
HETATM   14  C13 UNK     1      18.654   0.269  32.856  1.00  0.00     0.039 A 
HETATM   15  C8  UNK     1      19.872  -1.809  33.193  1.00  0.00     0.000 A 
HETATM   16  C15 UNK     1      19.103   0.316  31.538  1.00  0.00     0.022 A 
HETATM   17  C14 UNK     1      19.933  -0.694  31.045  1.00  0.00     0.011 A 
HETATM   18 Br1  UNK     1      20.538  -0.624  29.255  1.00  0.00    -0.051 Br
HETATM   19  C12 UNK     1      20.318  -1.755  31.870  1.00  0.00     0.033 A 
HETATM   20  C9  UNK     1      20.244  -2.891  34.092  1.00  0.00     0.037 A 
ENDBRANCH   6   9
ENDBRANCH   1   5
BRANCH   1  21
HETATM   21  C2  UNK     1      20.250  -5.983  38.234  1.00  0.00     0.040 C 
HETATM   22  C4  UNK     1      19.936  -6.931  39.389  1.00  0.00     0.009 C 
ENDBRANCH   1  21
TORSDOF 3
ENDMDL
MODEL 7
REMARK VINA RESULT:      -7.4     24.217     26.255
REMARK  3 active torsions:
REMARK  status: ('A' for Active; 'I' for Inactive)
REMARK    1  A    between atoms: C1_6  and  N1_5 
REMARK       I    between atoms: C5_10  and  N1_5 
REMARK    2  A    between atoms: C1_6  and  C2_7 
REMARK    3  A    between atoms: C5_10  and  C6_11 
ROOT
HETATM    1  C1  UNK     1      11.384   6.573   7.745  1.00  0.00     0.092 C 
HETATM    2  C3  UNK     1      11.568   5.124   8.218  1.00  0.00     0.053 C 
HETATM    3  C7  UNK     1      10.229   7.174   8.441  1.00  0.00    -0.086 C 
HETATM    4  C16 UNK     1       9.289   7.660   9.008  1.00  0.00     0.015 C 
ENDROOT
BRANCH   1   5
HETATM    5  N1  UNK     1      12.587   7.298   8.084  1.00  0.00    -0.337 N 
HETATM    6  C5  UNK     1      13.036   7.449   9.384  1.00  0.00     0.259 C 
HETATM    7  O2  UNK     1      12.495   7.005  10.395  1.00  0.00    -0.267 OA
HETATM    8  H3  UNK     1      13.097   7.742   7.325  1.00  0.00     0.164 HD
BRANCH   6   9
HETATM    9  C6  UNK     1      14.280   8.222   9.472  1.00  0.00     0.108 A 
HETATM   10  C11 UNK     1      15.382   7.836  10.383  1.00  0.00     0.304 A 
HETATM   11  O1  UNK     1      16.512   8.649  10.377  1.00  0.00    -0.274 OA
HETATM   12  O3  UNK     1      15.309   6.849  11.107  1.00  0.00    -0.259 OA
HETATM   13  C10 UNK     1      16.606   9.784   9.548  1.00  0.00     0.089 A 
HETATM   14  C13 UNK     1      17.777  10.537   9.612  1.00  0.00     0.039 A 
HETATM   15  C8  UNK     1      15.559  10.130   8.701  1.00  0.00     0.000 A 
HETATM   16  C15 UNK     1      17.900  11.665   8.805  1.00  0.00     0.022 A 
HETATM   17  C14 UNK     1      16.858  12.028   7.948  1.00  0.00     0.011 A 
HETATM   18 Br1  UNK     1      17.031  13.562   6.855  1.00  0.00    -0.051 Br
HETATM   19  C12 UNK     1      15.690  11.263   7.894  1.00  0.00     0.033 A 
HETATM   20  C9  UNK     1      14.364   9.300   8.683  1.00  0.00     0.037 A 
ENDBRANCH   6   9
ENDBRANCH   1   5
BRANCH   1  21
HETATM   21  C2  UNK     1      11.194   6.601   6.215  1.00  0.00     0.040 C 
HETATM   22  C4  UNK     1       9.820   6.144   5.729  1.00  0.00     0.009 C 
ENDBRANCH   1  21
TORSDOF 3
ENDMDL
MODEL 8
REMARK VINA RESULT:      -7.3      5.358     10.036
REMARK  3 active torsions:
REMARK  status: ('A' for Active; 'I' for Inactive)
REMARK    1  A    between atoms: C1_6  and  N1_5 
REMARK       I    between atoms: C5_10  and  N1_5 
REMARK    2  A    between atoms: C1_6  and  C2_7 
REMARK    3  A    between atoms: C5_10  and  C6_11 
ROOT
HETATM    1  C1  UNK     1      19.679  -6.918  36.782  1.00  0.00     0.092 C 
HETATM    2  C3  UNK     1      20.965  -7.404  36.101  1.00  0.00     0.053 C 
HETATM    3  C7  UNK     1      19.876  -6.891  38.245  1.00  0.00    -0.086 C 
HETATM    4  C16 UNK     1      20.040  -6.871  39.434  1.00  0.00     0.015 C 
ENDROOT
BRANCH   1   5
HETATM    5  N1  UNK     1      19.411  -5.580  36.304  1.00  0.00    -0.337 N 
HETATM    6  C5  UNK     1      20.256  -4.512  36.538  1.00  0.00     0.259 C 
HETATM    7  O2  UNK     1      21.314  -4.547  37.164  1.00  0.00    -0.267 OA
HETATM    8  H3  UNK     1      18.540  -5.427  35.803  1.00  0.00     0.164 HD
BRANCH   6   9
HETATM    9  C6  UNK     1      19.770  -3.259  35.949  1.00  0.00     0.108 A 
HETATM   10  C11 UNK     1      20.060  -2.887  34.545  1.00  0.00     0.304 A 
HETATM   11  O1  UNK     1      19.544  -1.672  34.102  1.00  0.00    -0.274 OA
HETATM   12  O3  UNK     1      20.719  -3.609  33.806  1.00  0.00    -0.259 OA
HETATM   13  C10 UNK     1      18.784  -0.835  34.943  1.00  0.00     0.089 A 
HETATM   14  C13 UNK     1      18.311   0.361  34.408  1.00  0.00     0.039 A 
HETATM   15  C8  UNK     1      18.525  -1.204  36.259  1.00  0.00     0.000 A 
HETATM   16  C15 UNK     1      17.556   1.209  35.216  1.00  0.00     0.022 A 
HETATM   17  C14 UNK     1      17.286   0.857  36.540  1.00  0.00     0.011 A 
HETATM   18 Br1  UNK     1      16.262   2.013  37.631  1.00  0.00    -0.051 Br
HETATM   19  C12 UNK     1      17.768  -0.347  37.062  1.00  0.00     0.033 A 
HETATM   20  C9  UNK     1      19.050  -2.468  36.753  1.00  0.00     0.037 A 
ENDBRANCH   6   9
ENDBRANCH   1   5
BRANCH   1  21
HETATM   21  C2  UNK     1      18.503  -7.837  36.391  1.00  0.00     0.040 C 
HETATM   22  C4  UNK     1      17.560  -7.260  35.338  1.00  0.00     0.009 C 
ENDBRANCH   1  21
TORSDOF 3
ENDMDL
MODEL 9
REMARK VINA RESULT:      -7.3      3.016      3.841
REMARK  3 active torsions:
REMARK  status: ('A' for Active; 'I' for Inactive)
REMARK    1  A    between atoms: C1_6  and  N1_5 
REMARK       I    between atoms: C5_10  and  N1_5 
REMARK    2  A    between atoms: C1_6  and  C2_7 
REMARK    3  A    between atoms: C5_10  and  C6_11 
ROOT
HETATM    1  C1  UNK     1      18.685   5.996  32.340  1.00  0.00     0.092 C 
HETATM    2  C3  UNK     1      20.022   6.737  32.477  1.00  0.00     0.053 C 
HETATM    3  C7  UNK     1      17.733   6.834  31.586  1.00  0.00    -0.086 C 
HETATM    4  C16 UNK     1      16.960   7.519  30.974  1.00  0.00     0.015 C 
ENDROOT
BRANCH   1   5
HETATM    5  N1  UNK     1      18.939   4.773  31.611  1.00  0.00    -0.337 N 
HETATM    6  C5  UNK     1      18.332   3.570  31.922  1.00  0.00     0.259 C 
HETATM    7  O2  UNK     1      17.525   3.377  32.828  1.00  0.00    -0.267 OA
HETATM    8  H3  UNK     1      19.622   4.808  30.859  1.00  0.00     0.164 HD
BRANCH   6   9
HETATM    9  C6  UNK     1      18.748   2.476  31.037  1.00  0.00     0.108 A 
HETATM   10  C11 UNK     1      18.683   2.591  29.562  1.00  0.00     0.304 A 
HETATM   11  O1  UNK     1      19.105   1.485  28.830  1.00  0.00    -0.274 OA
HETATM   12  O3  UNK     1      18.281   3.608  29.008  1.00  0.00    -0.259 OA
HETATM   13  C10 UNK     1      19.569   0.312  29.456  1.00  0.00     0.089 A 
HETATM   14  C13 UNK     1      19.970  -0.743  28.639  1.00  0.00     0.039 A 
HETATM   15  C8  UNK     1      19.621   0.224  30.843  1.00  0.00     0.000 A 
HETATM   16  C15 UNK     1      20.434  -1.916  29.229  1.00  0.00     0.022 A 
HETATM   17  C14 UNK     1      20.492  -2.023  30.620  1.00  0.00     0.011 A 
HETATM   18 Br1  UNK     1      21.122  -3.619  31.415  1.00  0.00    -0.051 Br
HETATM   19  C12 UNK     1      20.087  -0.956  31.427  1.00  0.00     0.033 A 
HETATM   20  C9  UNK     1      19.187   1.364  31.637  1.00  0.00     0.037 A 
ENDBRANCH   6   9
ENDBRANCH   1   5
BRANCH   1  21
HETATM   21  C2  UNK     1      18.139   5.643  33.738  1.00  0.00     0.040 C 
HETATM   22  C4  UNK     1      17.236   6.705  34.362  1.00  0.00     0.009 C 
ENDBRANCH   1  21
TORSDOF 3
ENDMDL
MODEL 10
REMARK VINA RESULT:      -7.3     24.379     25.995
REMARK  3 active torsions:
REMARK  status: ('A' for Active; 'I' for Inactive)
REMARK    1  A    between atoms: C1_6  and  N1_5 
REMARK       I    between atoms: C5_10  and  N1_5 
REMARK    2  A    between atoms: C1_6  and  C2_7 
REMARK    3  A    between atoms: C5_10  and  C6_11 
ROOT
HETATM    1  C1  UNK     1       9.992   6.498   8.593  1.00  0.00     0.092 C 
HETATM    2  C3  UNK     1       8.951   7.524   9.063  1.00  0.00     0.053 C 
HETATM    3  C7  UNK     1       9.864   6.299   7.136  1.00  0.00    -0.086 C 
HETATM    4  C16 UNK     1       9.756   6.139   5.951  1.00  0.00     0.015 C 
ENDROOT
BRANCH   1   5
HETATM    5  N1  UNK     1      11.299   7.033   8.897  1.00  0.00    -0.337 N 
HETATM    6  C5  UNK     1      12.475   6.366   8.603  1.00  0.00     0.259 C 
HETATM    7  O2  UNK     1      12.569   5.265   8.063  1.00  0.00    -0.267 OA
HETATM    8  H3  UNK     1      11.340   7.927   9.380  1.00  0.00     0.164 HD
BRANCH   6   9
HETATM    9  C6  UNK     1      13.672   7.113   9.005  1.00  0.00     0.108 A 
HETATM   10  C11 UNK     1      14.644   6.572   9.982  1.00  0.00     0.304 A 
HETATM   11  O1  UNK     1      15.740   7.376  10.283  1.00  0.00    -0.274 OA
HETATM   12  O3  UNK     1      14.497   5.472  10.501  1.00  0.00    -0.259 OA
HETATM   13  C10 UNK     1      15.919   8.642   9.691  1.00  0.00     0.089 A 
HETATM   14  C13 UNK     1      17.047   9.373  10.055  1.00  0.00     0.039 A 
HETATM   15  C8  UNK     1      14.993   9.131   8.776  1.00  0.00     0.000 A 
HETATM   16  C15 UNK     1      17.252  10.628   9.486  1.00  0.00     0.022 A 
HETATM   17  C14 UNK     1      16.332  11.137   8.566  1.00  0.00     0.011 A 
HETATM   18 Br1  UNK     1      16.614  12.842   7.799  1.00  0.00    -0.051 Br
HETATM   19  C12 UNK     1      15.205  10.391   8.210  1.00  0.00     0.033 A 
HETATM   20  C9  UNK     1      13.836   8.315   8.440  1.00  0.00     0.037 A 
ENDBRANCH   6   9
ENDBRANCH   1   5
BRANCH   1  21
HETATM   21  C2  UNK     1       9.799   5.174   9.360  1.00  0.00     0.040 C 
HETATM   22  C4  UNK     1       8.378   4.922   9.860  1.00  0.00     0.009 C 
ENDBRANCH   1  21
TORSDOF 3
ENDMDL
