MODEL 1
REMARK VINA RESULT:     -10.8      0.000      0.000
REMARK  2 active torsions:
REMARK  status: ('A' for Active; 'I' for Inactive)
REMARK       I    between atoms: C7_13  and  N1_5 
REMARK    1  A    between atoms: C1_7  and  C6_12 
REMARK    2  A    between atoms: C7_13  and  C8_14 
ROOT
HETATM    1  O1  UNK     1      16.668  -0.743  35.092  1.00  0.00    -0.267 OA
HETATM    2  N1  UNK     1      18.766  -1.553  35.684  1.00  0.00    -0.348 N 
HETATM    3  C1  UNK     1      20.059  -3.866  36.849  1.00  0.00     0.048 C 
HETATM    4  C2  UNK     1      20.512  -3.275  35.499  1.00  0.00     0.031 C 
HETATM    5  C3  UNK     1      18.577  -3.540  37.121  1.00  0.00     0.031 C 
HETATM    6  C4  UNK     1      20.194  -1.783  35.427  1.00  0.00     0.127 C 
HETATM    7  C5  UNK     1      18.310  -2.041  36.989  1.00  0.00     0.127 C 
HETATM    8  C7  UNK     1      17.859  -0.927  34.834  1.00  0.00     0.259 C 
ENDROOT
BRANCH   8   9
HETATM    9  C8  UNK     1      18.355  -0.456  33.526  1.00  0.00     0.108 A 
HETATM   10  C11 UNK     1      18.961  -1.370  32.759  1.00  0.00     0.037 A 
HETATM   11  C15 UNK     1      19.484  -1.001  31.453  1.00  0.00    -0.001 A 
HETATM   12  C16 UNK     1      19.343   0.313  31.018  1.00  0.00     0.089 A 
HETATM   13  C19 UNK     1      20.124  -1.922  30.619  1.00  0.00     0.014 A 
HETATM   14  O2  UNK     1      18.705   1.271  31.830  1.00  0.00    -0.274 OA
HETATM   15  C20 UNK     1      19.822   0.731  29.778  1.00  0.00     0.038 A 
HETATM   16  C14 UNK     1      18.194   0.947  33.084  1.00  0.00     0.304 A 
HETATM   17  O3  UNK     1      17.640   1.787  33.784  1.00  0.00    -0.259 OA
HETATM   18  C22 UNK     1      20.459  -0.193  28.953  1.00  0.00     0.003 A 
HETATM   19  C21 UNK     1      20.609  -1.517  29.372  1.00  0.00     0.001 A 
ENDBRANCH   8   9
BRANCH   3  20
HETATM   20  C6  UNK     1      20.339  -5.358  36.941  1.00  0.00     0.080 A 
HETATM   21  S1  UNK     1      20.397  -6.096  38.480  1.00  0.00    -0.072 SA
HETATM   22  C9  UNK     1      20.727  -7.611  37.725  1.00  0.00     0.035 A 
HETATM   23  C10 UNK     1      20.769  -7.432  36.340  1.00  0.00     0.074 A 
HETATM   24  C12 UNK     1      20.935  -8.867  38.318  1.00  0.00     0.021 A 
HETATM   25  N2  UNK     1      20.544  -6.133  35.906  1.00  0.00    -0.244 NA
HETATM   26  C13 UNK     1      21.028  -8.552  35.519  1.00  0.00     0.033 A 
HETATM   27  C18 UNK     1      21.235  -9.805  36.102  1.00  0.00     0.002 A 
HETATM   28  C17 UNK     1      21.190  -9.958  37.483  1.00  0.00     0.002 A 
ENDBRANCH   3  20
TORSDOF 2
ENDMDL
MODEL 2
REMARK VINA RESULT:     -10.3     26.922     29.877
REMARK  2 active torsions:
REMARK  status: ('A' for Active; 'I' for Inactive)
REMARK       I    between atoms: C7_13  and  N1_5 
REMARK    1  A    between atoms: C1_7  and  C6_12 
REMARK    2  A    between atoms: C7_13  and  C8_14 
ROOT
HETATM    1  O1  UNK     1      14.998   4.609   9.225  1.00  0.00    -0.267 OA
HETATM    2  N1  UNK     1      14.936   6.820   9.943  1.00  0.00    -0.348 N 
HETATM    3  C1  UNK     1      16.459   9.280   9.846  1.00  0.00     0.048 C 
HETATM    4  C2  UNK     1      14.975   9.225   9.430  1.00  0.00     0.031 C 
HETATM    5  C3  UNK     1      17.128   7.902   9.674  1.00  0.00     0.031 C 
HETATM    6  C4  UNK     1      14.248   8.099  10.163  1.00  0.00     0.127 C 
HETATM    7  C5  UNK     1      16.332   6.810  10.389  1.00  0.00     0.127 C 
HETATM    8  C7  UNK     1      14.390   5.669   9.383  1.00  0.00     0.259 C 
ENDROOT
BRANCH   8   9
HETATM    9  C8  UNK     1      12.983   5.721   8.939  1.00  0.00     0.108 A 
HETATM   10  C11 UNK     1      12.774   6.117   7.678  1.00  0.00     0.037 A 
HETATM   11  C15 UNK     1      11.421   6.201   7.150  1.00  0.00    -0.001 A 
HETATM   12  C16 UNK     1      10.354   5.864   7.977  1.00  0.00     0.089 A 
HETATM   13  C19 UNK     1      11.157   6.608   5.840  1.00  0.00     0.014 A 
HETATM   14  O2  UNK     1      10.579   5.449   9.303  1.00  0.00    -0.274 OA
HETATM   15  C20 UNK     1       9.035   5.924   7.533  1.00  0.00     0.038 A 
HETATM   16  C14 UNK     1      11.863   5.358   9.837  1.00  0.00     0.304 A 
HETATM   17  O3  UNK     1      12.050   4.996  10.993  1.00  0.00    -0.259 OA
HETATM   18  C22 UNK     1       8.780   6.331   6.225  1.00  0.00     0.003 A 
HETATM   19  C21 UNK     1       9.838   6.673   5.381  1.00  0.00     0.001 A 
ENDBRANCH   8   9
BRANCH   3  20
HETATM   20  C6  UNK     1      17.217  10.376   9.114  1.00  0.00     0.080 A 
HETATM   21  S1  UNK     1      16.342  11.501   8.173  1.00  0.00    -0.072 SA
HETATM   22  C9  UNK     1      17.822  12.284   7.759  1.00  0.00     0.035 A 
HETATM   23  C10 UNK     1      18.882  11.616   8.380  1.00  0.00     0.074 A 
HETATM   24  C12 UNK     1      18.029  13.408   6.944  1.00  0.00     0.021 A 
HETATM   25  N2  UNK     1      18.518  10.524   9.154  1.00  0.00    -0.244 NA
HETATM   26  C13 UNK     1      20.195  12.092   8.176  1.00  0.00     0.033 A 
HETATM   27  C18 UNK     1      20.408  13.211   7.365  1.00  0.00     0.002 A 
HETATM   28  C17 UNK     1      19.339  13.858   6.758  1.00  0.00     0.002 A 
ENDBRANCH   3  20
TORSDOF 2
ENDMDL
MODEL 3
REMARK VINA RESULT:     -10.1     27.148     29.965
REMARK  2 active torsions:
REMARK  status: ('A' for Active; 'I' for Inactive)
REMARK       I    between atoms: C7_13  and  N1_5 
REMARK    1  A    between atoms: C1_7  and  C6_12 
REMARK    2  A    between atoms: C7_13  and  C8_14 
ROOT
HETATM    1  O1  UNK     1      14.956   4.992   9.199  1.00  0.00    -0.267 OA
HETATM    2  N1  UNK     1      14.881   7.245   9.769  1.00  0.00    -0.348 N 
HETATM    3  C1  UNK     1      16.528   9.624   9.838  1.00  0.00     0.048 C 
HETATM    4  C2  UNK     1      15.151   9.608   9.144  1.00  0.00     0.031 C 
HETATM    5  C3  UNK     1      17.140   8.210   9.874  1.00  0.00     0.031 C 
HETATM    6  C4  UNK     1      14.235   8.564   9.782  1.00  0.00     0.127 C 
HETATM    7  C5  UNK     1      16.163   7.202  10.478  1.00  0.00     0.127 C 
HETATM    8  C7  UNK     1      14.389   6.086   9.178  1.00  0.00     0.259 C 
ENDROOT
BRANCH   8   9
HETATM    9  C8  UNK     1      13.098   6.171   8.466  1.00  0.00     0.108 A 
HETATM   10  C11 UNK     1      12.013   5.818   9.164  1.00  0.00     0.037 A 
HETATM   11  C15 UNK     1      10.696   5.868   8.548  1.00  0.00    -0.001 A 
HETATM   12  C16 UNK     1      10.586   6.288   7.227  1.00  0.00     0.089 A 
HETATM   13  C19 UNK     1       9.536   5.509   9.240  1.00  0.00     0.014 A 
HETATM   14  O2  UNK     1      11.732   6.658   6.496  1.00  0.00    -0.274 OA
HETATM   15  C20 UNK     1       9.355   6.358   6.578  1.00  0.00     0.038 A 
HETATM   16  C14 UNK     1      13.006   6.621   7.058  1.00  0.00     0.304 A 
HETATM   17  O3  UNK     1      13.998   6.944   6.415  1.00  0.00    -0.259 OA
HETATM   18  C22 UNK     1       8.203   5.998   7.274  1.00  0.00     0.003 A 
HETATM   19  C21 UNK     1       8.293   5.574   8.602  1.00  0.00     0.001 A 
ENDBRANCH   8   9
BRANCH   3  20
HETATM   20  C6  UNK     1      17.472  10.637   9.209  1.00  0.00     0.080 A 
HETATM   21  S1  UNK     1      16.848  11.768   8.091  1.00  0.00    -0.072 SA
HETATM   22  C9  UNK     1      18.426  12.439   7.911  1.00  0.00     0.035 A 
HETATM   23  C10 UNK     1      19.318  11.738   8.729  1.00  0.00     0.074 A 
HETATM   24  C12 UNK     1      18.845  13.508   7.104  1.00  0.00     0.021 A 
HETATM   25  N2  UNK     1      18.754  10.707   9.467  1.00  0.00    -0.244 NA
HETATM   26  C13 UNK     1      20.676  12.123   8.738  1.00  0.00     0.033 A 
HETATM   27  C18 UNK     1      21.099  13.187   7.937  1.00  0.00     0.002 A 
HETATM   28  C17 UNK     1      20.195  13.869   7.131  1.00  0.00     0.002 A 
ENDBRANCH   3  20
TORSDOF 2
ENDMDL
MODEL 4
REMARK VINA RESULT:      -9.8      3.750      9.137
REMARK  2 active torsions:
REMARK  status: ('A' for Active; 'I' for Inactive)
REMARK       I    between atoms: C7_13  and  N1_5 
REMARK    1  A    between atoms: C1_7  and  C6_12 
REMARK    2  A    between atoms: C7_13  and  C8_14 
ROOT
HETATM    1  O1  UNK     1      19.008  -1.264  38.315  1.00  0.00    -0.267 OA
HETATM    2  N1  UNK     1      17.858  -0.746  36.361  1.00  0.00    -0.348 N 
HETATM    3  C1  UNK     1      17.435   1.416  34.483  1.00  0.00     0.048 C 
HETATM    4  C2  UNK     1      17.872   0.011  34.021  1.00  0.00     0.031 C 
HETATM    5  C3  UNK     1      17.875   1.676  35.937  1.00  0.00     0.031 C 
HETATM    6  C4  UNK     1      17.391  -1.056  35.003  1.00  0.00     0.127 C 
HETATM    7  C5  UNK     1      17.406   0.555  36.864  1.00  0.00     0.127 C 
HETATM    8  C7  UNK     1      18.645  -1.556  37.174  1.00  0.00     0.259 C 
ENDROOT
BRANCH   8   9
HETATM    9  C8  UNK     1      19.086  -2.855  36.629  1.00  0.00     0.108 A 
HETATM   10  C11 UNK     1      18.387  -3.928  37.017  1.00  0.00     0.037 A 
HETATM   11  C15 UNK     1      18.746  -5.252  36.533  1.00  0.00    -0.001 A 
HETATM   12  C16 UNK     1      19.825  -5.381  35.665  1.00  0.00     0.089 A 
HETATM   13  C19 UNK     1      18.043  -6.399  36.911  1.00  0.00     0.014 A 
HETATM   14  O2  UNK     1      20.559  -4.249  35.261  1.00  0.00    -0.274 OA
HETATM   15  C20 UNK     1      20.222  -6.621  35.167  1.00  0.00     0.038 A 
HETATM   16  C14 UNK     1      20.239  -2.969  35.707  1.00  0.00     0.304 A 
HETATM   17  O3  UNK     1      20.883  -1.989  35.350  1.00  0.00    -0.259 OA
HETATM   18  C22 UNK     1      19.516  -7.760  35.548  1.00  0.00     0.003 A 
HETATM   19  C21 UNK     1      18.429  -7.649  36.419  1.00  0.00     0.001 A 
ENDBRANCH   8   9
BRANCH   3  20
HETATM   20  C6  UNK     1      17.921   2.503  33.538  1.00  0.00     0.080 A 
HETATM   21  S1  UNK     1      18.385   4.014  34.183  1.00  0.00    -0.072 SA
HETATM   22  C9  UNK     1      18.752   4.566  32.591  1.00  0.00     0.035 A 
HETATM   23  C10 UNK     1      18.487   3.540  31.679  1.00  0.00     0.074 A 
HETATM   24  C12 UNK     1      19.238   5.816  32.179  1.00  0.00     0.021 A 
HETATM   25  N2  UNK     1      18.011   2.362  32.238  1.00  0.00    -0.244 NA
HETATM   26  C13 UNK     1      18.718   3.776  30.307  1.00  0.00     0.033 A 
HETATM   27  C18 UNK     1      19.203   5.019  29.890  1.00  0.00     0.002 A 
HETATM   28  C17 UNK     1      19.458   6.024  30.814  1.00  0.00     0.002 A 
ENDBRANCH   3  20
TORSDOF 2
ENDMDL
MODEL 5
REMARK VINA RESULT:      -9.7     27.548     30.645
REMARK  2 active torsions:
REMARK  status: ('A' for Active; 'I' for Inactive)
REMARK       I    between atoms: C7_13  and  N1_5 
REMARK    1  A    between atoms: C1_7  and  C6_12 
REMARK    2  A    between atoms: C7_13  and  C8_14 
ROOT
HETATM    1  O1  UNK     1      14.834   6.018   9.834  1.00  0.00    -0.267 OA
HETATM    2  N1  UNK     1      14.763   8.332   9.623  1.00  0.00    -0.348 N 
HETATM    3  C1  UNK     1      16.476  10.625   9.185  1.00  0.00     0.048 C 
HETATM    4  C2  UNK     1      15.227  10.365   8.318  1.00  0.00     0.031 C 
HETATM    5  C3  UNK     1      17.015   9.308   9.778  1.00  0.00     0.031 C 
HETATM    6  C4  UNK     1      14.179   9.575   9.100  1.00  0.00     0.127 C 
HETATM    7  C5  UNK     1      15.912   8.540  10.508  1.00  0.00     0.127 C 
HETATM    8  C7  UNK     1      14.324   7.037   9.367  1.00  0.00     0.259 C 
ENDROOT
BRANCH   8   9
HETATM    9  C8  UNK     1      13.167   6.869   8.464  1.00  0.00     0.108 A 
HETATM   10  C11 UNK     1      11.971   6.743   9.051  1.00  0.00     0.037 A 
HETATM   11  C15 UNK     1      10.773   6.572   8.245  1.00  0.00    -0.001 A 
HETATM   12  C16 UNK     1      10.893   6.541   6.859  1.00  0.00     0.089 A 
HETATM   13  C19 UNK     1       9.505   6.438   8.815  1.00  0.00     0.014 A 
HETATM   14  O2  UNK     1      12.154   6.673   6.246  1.00  0.00    -0.274 OA
HETATM   15  C20 UNK     1       9.784   6.379   6.030  1.00  0.00     0.038 A 
HETATM   16  C14 UNK     1      13.319   6.838   6.992  1.00  0.00     0.304 A 
HETATM   17  O3  UNK     1      14.412   6.952   6.450  1.00  0.00    -0.259 OA
HETATM   18  C22 UNK     1       8.523   6.246   6.607  1.00  0.00     0.003 A 
HETATM   19  C21 UNK     1       8.383   6.275   7.996  1.00  0.00     0.001 A 
ENDBRANCH   8   9
BRANCH   3  20
HETATM   20  C6  UNK     1      17.549  11.388   8.426  1.00  0.00     0.080 A 
HETATM   21  S1  UNK     1      19.020  11.752   9.212  1.00  0.00    -0.072 SA
HETATM   22  C9  UNK     1      19.576  12.535   7.780  1.00  0.00     0.035 A 
HETATM   23  C10 UNK     1      18.582  12.457   6.801  1.00  0.00     0.074 A 
HETATM   24  C12 UNK     1      20.804  13.172   7.541  1.00  0.00     0.021 A 
HETATM   25  N2  UNK     1      17.425  11.795   7.187  1.00  0.00    -0.244 NA
HETATM   26  C13 UNK     1      18.828  13.038   5.538  1.00  0.00     0.033 A 
HETATM   27  C18 UNK     1      20.048  13.674   5.293  1.00  0.00     0.002 A 
HETATM   28  C17 UNK     1      21.021  13.739   6.283  1.00  0.00     0.002 A 
ENDBRANCH   3  20
TORSDOF 2
ENDMDL
MODEL 6
REMARK VINA RESULT:      -9.7     27.368     29.293
REMARK  2 active torsions:
REMARK  status: ('A' for Active; 'I' for Inactive)
REMARK       I    between atoms: C7_13  and  N1_5 
REMARK    1  A    between atoms: C1_7  and  C6_12 
REMARK    2  A    between atoms: C7_13  and  C8_14 
ROOT
HETATM    1  O1  UNK     1       7.615   6.859   7.322  1.00  0.00    -0.267 OA
HETATM    2  N1  UNK     1       9.649   5.975   8.019  1.00  0.00    -0.348 N 
HETATM    3  C1  UNK     1      12.466   6.623   8.189  1.00  0.00     0.048 C 
HETATM    4  C2  UNK     1      11.670   6.127   9.413  1.00  0.00     0.031 C 
HETATM    5  C3  UNK     1      11.534   7.307   7.169  1.00  0.00     0.031 C 
HETATM    6  C4  UNK     1      10.496   5.252   8.978  1.00  0.00     0.127 C 
HETATM    7  C5  UNK     1      10.355   6.404   6.808  1.00  0.00     0.127 C 
HETATM    8  C7  UNK     1       8.294   6.259   8.156  1.00  0.00     0.259 C 
ENDROOT
BRANCH   8   9
HETATM    9  C8  UNK     1       7.621   5.816   9.394  1.00  0.00     0.108 A 
HETATM   10  C11 UNK     1       7.164   4.559   9.402  1.00  0.00     0.037 A 
HETATM   11  C15 UNK     1       6.486   4.032  10.576  1.00  0.00    -0.001 A 
HETATM   12  C16 UNK     1       6.323   4.856  11.685  1.00  0.00     0.089 A 
HETATM   13  C19 UNK     1       5.993   2.726  10.628  1.00  0.00     0.014 A 
HETATM   14  O2  UNK     1       6.806   6.179  11.671  1.00  0.00    -0.274 OA
HETATM   15  C20 UNK     1       5.682   4.414  12.840  1.00  0.00     0.038 A 
HETATM   16  C14 UNK     1       7.459   6.711  10.562  1.00  0.00     0.304 A 
HETATM   17  O3  UNK     1       7.875   7.864  10.558  1.00  0.00    -0.259 OA
HETATM   18  C22 UNK     1       5.193   3.110  12.885  1.00  0.00     0.003 A 
HETATM   19  C21 UNK     1       5.348   2.268  11.781  1.00  0.00     0.001 A 
ENDBRANCH   8   9
BRANCH   3  20
HETATM   20  C6  UNK     1      13.628   7.518   8.588  1.00  0.00     0.080 A 
HETATM   21  S1  UNK     1      14.830   6.898   9.630  1.00  0.00    -0.072 SA
HETATM   22  C9  UNK     1      15.655   8.411   9.555  1.00  0.00     0.035 A 
HETATM   23  C10 UNK     1      14.938   9.282   8.729  1.00  0.00     0.074 A 
HETATM   24  C12 UNK     1      16.850   8.799  10.182  1.00  0.00     0.021 A 
HETATM   25  N2  UNK     1      13.777   8.754   8.182  1.00  0.00    -0.244 NA
HETATM   26  C13 UNK     1      15.437  10.587   8.525  1.00  0.00     0.033 A 
HETATM   27  C18 UNK     1      16.626  10.979   9.146  1.00  0.00     0.002 A 
HETATM   28  C17 UNK     1      17.321  10.096   9.963  1.00  0.00     0.002 A 
ENDBRANCH   3  20
TORSDOF 2
ENDMDL
MODEL 7
REMARK VINA RESULT:      -9.7      6.548     11.679
REMARK  2 active torsions:
REMARK  status: ('A' for Active; 'I' for Inactive)
REMARK       I    between atoms: C7_13  and  N1_5 
REMARK    1  A    between atoms: C1_7  and  C6_12 
REMARK    2  A    between atoms: C7_13  and  C8_14 
ROOT
HETATM    1  O1  UNK     1      18.186   3.232  28.580  1.00  0.00    -0.267 OA
HETATM    2  N1  UNK     1      19.003   4.524  30.332  1.00  0.00    -0.348 N 
HETATM    3  C1  UNK     1      18.434   6.935  31.829  1.00  0.00     0.048 C 
HETATM    4  C2  UNK     1      18.675   5.582  32.528  1.00  0.00     0.031 C 
HETATM    5  C3  UNK     1      17.910   6.727  30.394  1.00  0.00     0.031 C 
HETATM    6  C4  UNK     1      19.571   4.685  31.676  1.00  0.00     0.127 C 
HETATM    7  C5  UNK     1      18.821   5.785  29.607  1.00  0.00     0.127 C 
HETATM    8  C7  UNK     1      18.651   3.327  29.717  1.00  0.00     0.259 C 
ENDROOT
BRANCH   8   9
HETATM    9  C8  UNK     1      18.842   2.078  30.482  1.00  0.00     0.108 A 
HETATM   10  C11 UNK     1      19.576   1.128  29.892  1.00  0.00     0.037 A 
HETATM   11  C15 UNK     1      19.818  -0.137  30.568  1.00  0.00    -0.001 A 
HETATM   12  C16 UNK     1      19.275  -0.339  31.832  1.00  0.00     0.089 A 
HETATM   13  C19 UNK     1      20.579  -1.156  29.989  1.00  0.00     0.014 A 
HETATM   14  O2  UNK     1      18.503   0.664  32.449  1.00  0.00    -0.274 OA
HETATM   15  C20 UNK     1      19.469  -1.528  32.532  1.00  0.00     0.038 A 
HETATM   16  C14 UNK     1      18.253   1.885  31.827  1.00  0.00     0.304 A 
HETATM   17  O3  UNK     1      17.580   2.753  32.371  1.00  0.00    -0.259 OA
HETATM   18  C22 UNK     1      20.229  -2.540  31.949  1.00  0.00     0.003 A 
HETATM   19  C21 UNK     1      20.782  -2.355  30.680  1.00  0.00     0.001 A 
ENDBRANCH   8   9
BRANCH   3  20
HETATM   20  C6  UNK     1      17.523   7.843  32.641  1.00  0.00     0.080 A 
HETATM   21  S1  UNK     1      15.957   7.296  33.045  1.00  0.00    -0.072 SA
HETATM   22  C9  UNK     1      15.666   8.783  33.869  1.00  0.00     0.035 A 
HETATM   23  C10 UNK     1      16.803   9.591  33.770  1.00  0.00     0.074 A 
HETATM   24  C12 UNK     1      14.515   9.204  34.554  1.00  0.00     0.021 A 
HETATM   25  N2  UNK     1      17.860   9.037  33.062  1.00  0.00    -0.244 NA
HETATM   26  C13 UNK     1      16.784  10.865  34.378  1.00  0.00     0.033 A 
HETATM   27  C18 UNK     1      15.642  11.290  35.062  1.00  0.00     0.002 A 
HETATM   28  C17 UNK     1      14.523  10.469  35.147  1.00  0.00     0.002 A 
ENDBRANCH   3  20
TORSDOF 2
ENDMDL
MODEL 8
REMARK VINA RESULT:      -9.7     27.993     31.009
REMARK  2 active torsions:
REMARK  status: ('A' for Active; 'I' for Inactive)
REMARK       I    between atoms: C7_13  and  N1_5 
REMARK    1  A    between atoms: C1_7  and  C6_12 
REMARK    2  A    between atoms: C7_13  and  C8_14 
ROOT
HETATM    1  O1  UNK     1      15.742   6.741   9.843  1.00  0.00    -0.267 OA
HETATM    2  N1  UNK     1      15.501   9.053   9.770  1.00  0.00    -0.348 N 
HETATM    3  C1  UNK     1      16.830  11.444   8.824  1.00  0.00     0.048 C 
HETATM    4  C2  UNK     1      15.361  11.138   8.473  1.00  0.00     0.031 C 
HETATM    5  C3  UNK     1      17.606  10.145   9.120  1.00  0.00     0.031 C 
HETATM    6  C4  UNK     1      14.713  10.274   9.554  1.00  0.00     0.127 C 
HETATM    7  C5  UNK     1      16.888   9.302  10.173  1.00  0.00     0.127 C 
HETATM    8  C7  UNK     1      15.052   7.742   9.642  1.00  0.00     0.259 C 
ENDROOT
BRANCH   8   9
HETATM    9  C8  UNK     1      13.651   7.532   9.227  1.00  0.00     0.108 A 
HETATM   10  C11 UNK     1      13.462   7.110   7.971  1.00  0.00     0.037 A 
HETATM   11  C15 UNK     1      12.117   6.876   7.470  1.00  0.00    -0.001 A 
HETATM   12  C16 UNK     1      11.036   7.098   8.316  1.00  0.00     0.089 A 
HETATM   13  C19 UNK     1      11.874   6.434   6.167  1.00  0.00     0.014 A 
HETATM   14  O2  UNK     1      11.240   7.543   9.637  1.00  0.00    -0.274 OA
HETATM   15  C20 UNK     1       9.722   6.894   7.898  1.00  0.00     0.038 A 
HETATM   16  C14 UNK     1      12.515   7.776  10.145  1.00  0.00     0.304 A 
HETATM   17  O3  UNK     1      12.684   8.163  11.295  1.00  0.00    -0.259 OA
HETATM   18  C22 UNK     1       9.488   6.453   6.597  1.00  0.00     0.003 A 
HETATM   19  C21 UNK     1      10.561   6.225   5.733  1.00  0.00     0.001 A 
ENDBRANCH   8   9
BRANCH   3  20
HETATM   20  C6  UNK     1      17.510  12.282   7.754  1.00  0.00     0.080 A 
HETATM   21  S1  UNK     1      17.385  13.983   7.830  1.00  0.00    -0.072 SA
HETATM   22  C9  UNK     1      18.339  14.104   6.398  1.00  0.00     0.035 A 
HETATM   23  C10 UNK     1      18.682  12.819   5.968  1.00  0.00     0.074 A 
HETATM   24  C12 UNK     1      18.752  15.252   5.706  1.00  0.00     0.021 A 
HETATM   25  N2  UNK     1      18.199  11.784   6.757  1.00  0.00    -0.244 NA
HETATM   26  C13 UNK     1      19.468  12.681   4.803  1.00  0.00     0.033 A 
HETATM   27  C18 UNK     1      19.883  13.821   4.109  1.00  0.00     0.002 A 
HETATM   28  C17 UNK     1      19.529  15.088   4.556  1.00  0.00     0.002 A 
ENDBRANCH   3  20
TORSDOF 2
ENDMDL
MODEL 9
REMARK VINA RESULT:      -9.5     25.536     28.014
REMARK  2 active torsions:
REMARK  status: ('A' for Active; 'I' for Inactive)
REMARK       I    between atoms: C7_13  and  N1_5 
REMARK    1  A    between atoms: C1_7  and  C6_12 
REMARK    2  A    between atoms: C7_13  and  C8_14 
ROOT
HETATM    1  O1  UNK     1       5.936   6.428   9.827  1.00  0.00    -0.267 OA
HETATM    2  N1  UNK     1       7.858   5.168   9.476  1.00  0.00    -0.348 N 
HETATM    3  C1  UNK     1      10.713   5.446   9.085  1.00  0.00     0.048 C 
HETATM    4  C2  UNK     1      10.128   4.512  10.163  1.00  0.00     0.031 C 
HETATM    5  C3  UNK     1       9.733   6.590   8.758  1.00  0.00     0.031 C 
HETATM    6  C4  UNK     1       8.736   4.025   9.760  1.00  0.00     0.127 C 
HETATM    7  C5  UNK     1       8.348   6.044   8.408  1.00  0.00     0.127 C 
HETATM    8  C7  UNK     1       6.651   5.463  10.102  1.00  0.00     0.259 C 
ENDROOT
BRANCH   8   9
HETATM    9  C8  UNK     1       6.196   4.561  11.178  1.00  0.00     0.108 A 
HETATM   10  C11 UNK     1       6.283   5.037  12.426  1.00  0.00     0.037 A 
HETATM   11  C15 UNK     1       5.859   4.221  13.553  1.00  0.00    -0.001 A 
HETATM   12  C16 UNK     1       5.364   2.943  13.311  1.00  0.00     0.089 A 
HETATM   13  C19 UNK     1       5.931   4.677  14.872  1.00  0.00     0.014 A 
HETATM   14  O2  UNK     1       5.276   2.447  11.996  1.00  0.00    -0.274 OA
HETATM   15  C20 UNK     1       4.943   2.111  14.346  1.00  0.00     0.038 A 
HETATM   16  C14 UNK     1       5.674   3.204  10.897  1.00  0.00     0.304 A 
HETATM   17  O3  UNK     1       5.593   2.765   9.756  1.00  0.00    -0.259 OA
HETATM   18  C22 UNK     1       5.018   2.574  15.658  1.00  0.00     0.003 A 
HETATM   19  C21 UNK     1       5.511   3.854  15.921  1.00  0.00     0.001 A 
ENDBRANCH   8   9
BRANCH   3  20
HETATM   20  C6  UNK     1      12.088   5.968   9.469  1.00  0.00     0.080 A 
HETATM   21  S1  UNK     1      13.470   5.072   9.018  1.00  0.00    -0.072 SA
HETATM   22  C9  UNK     1      14.469   6.259   9.772  1.00  0.00     0.035 A 
HETATM   23  C10 UNK     1      13.658   7.260  10.317  1.00  0.00     0.074 A 
HETATM   24  C12 UNK     1      15.868   6.302   9.874  1.00  0.00     0.021 A 
HETATM   25  N2  UNK     1      12.295   7.078  10.134  1.00  0.00    -0.244 NA
HETATM   26  C13 UNK     1      14.273   8.340  10.986  1.00  0.00     0.033 A 
HETATM   27  C18 UNK     1      15.665   8.388  11.091  1.00  0.00     0.002 A 
HETATM   28  C17 UNK     1      16.451   7.382  10.543  1.00  0.00     0.002 A 
ENDBRANCH   3  20
TORSDOF 2
ENDMDL
MODEL 10
REMARK VINA RESULT:      -9.5     27.557     29.383
REMARK  2 active torsions:
REMARK  status: ('A' for Active; 'I' for Inactive)
REMARK       I    between atoms: C7_13  and  N1_5 
REMARK    1  A    between atoms: C1_7  and  C6_12 
REMARK    2  A    between atoms: C7_13  and  C8_14 
ROOT
HETATM    1  O1  UNK     1       7.638   6.892   7.167  1.00  0.00    -0.267 OA
HETATM    2  N1  UNK     1       9.633   6.001   7.960  1.00  0.00    -0.348 N 
HETATM    3  C1  UNK     1      12.454   6.609   8.197  1.00  0.00     0.048 C 
HETATM    4  C2  UNK     1      11.611   6.172   9.413  1.00  0.00     0.031 C 
HETATM    5  C3  UNK     1      11.567   7.270   7.124  1.00  0.00     0.031 C 
HETATM    6  C4  UNK     1      10.436   5.300   8.972  1.00  0.00     0.127 C 
HETATM    7  C5  UNK     1      10.384   6.373   6.758  1.00  0.00     0.127 C 
HETATM    8  C7  UNK     1       8.280   6.311   8.044  1.00  0.00     0.259 C 
ENDROOT
BRANCH   8   9
HETATM    9  C8  UNK     1       7.560   5.926   9.274  1.00  0.00     0.108 A 
HETATM   10  C11 UNK     1       7.310   6.910  10.146  1.00  0.00     0.037 A 
HETATM   11  C15 UNK     1       6.606   6.628  11.387  1.00  0.00    -0.001 A 
HETATM   12  C16 UNK     1       6.202   5.323  11.651  1.00  0.00     0.089 A 
HETATM   13  C19 UNK     1       6.323   7.624  12.326  1.00  0.00     0.014 A 
HETATM   14  O2  UNK     1       6.469   4.291  10.730  1.00  0.00    -0.274 OA
HETATM   15  C20 UNK     1       5.525   4.987  12.821  1.00  0.00     0.038 A 
HETATM   16  C14 UNK     1       7.140   4.530   9.533  1.00  0.00     0.304 A 
HETATM   17  O3  UNK     1       7.368   3.627   8.737  1.00  0.00    -0.259 OA
HETATM   18  C22 UNK     1       5.246   5.985  13.752  1.00  0.00     0.003 A 
HETATM   19  C21 UNK     1       5.645   7.301  13.505  1.00  0.00     0.001 A 
ENDBRANCH   8   9
BRANCH   3  20
HETATM   20  C6  UNK     1      13.618   7.499   8.601  1.00  0.00     0.080 A 
HETATM   21  S1  UNK     1      14.874   6.840   9.553  1.00  0.00    -0.072 SA
HETATM   22  C9  UNK     1      15.671   8.369   9.535  1.00  0.00     0.035 A 
HETATM   23  C10 UNK     1      14.906   9.275   8.794  1.00  0.00     0.074 A 
HETATM   24  C12 UNK     1      16.885   8.740  10.133  1.00  0.00     0.021 A 
HETATM   25  N2  UNK     1      13.731   8.760   8.265  1.00  0.00    -0.244 NA
HETATM   26  C13 UNK     1      15.376  10.598   8.649  1.00  0.00     0.033 A 
HETATM   27  C18 UNK     1      16.584  10.974   9.242  1.00  0.00     0.002 A 
HETATM   28  C17 UNK     1      17.327  10.056   9.974  1.00  0.00     0.002 A 
ENDBRANCH   3  20
TORSDOF 2
ENDMDL
