MODEL 1
REMARK VINA RESULT:     -10.5      0.000      0.000
REMARK  3 active torsions:
REMARK  status: ('A' for Active; 'I' for Inactive)
REMARK       I    between atoms: C11_19  and  N1_7 
REMARK    1  A    between atoms: C2_10  and  N1_7 
REMARK    2  A    between atoms: C16_24  and  N2_8 
REMARK    3  A    between atoms: C11_19  and  C12_20 
ROOT
HETATM    1  O2  UNK     1      17.889   3.213  33.269  1.00  0.00    -0.267 OA
HETATM    2  N1  UNK     1      18.172   4.883  31.640  1.00  0.00    -0.322 N 
HETATM    3  C11 UNK     1      18.145   3.570  32.125  1.00  0.00     0.256 C 
HETATM    4  H3  UNK     1      18.354   5.011  30.651  1.00  0.00     0.169 HD
ENDROOT
BRANCH   2   5
HETATM    5  C2  UNK     1      17.915   6.064  32.343  1.00  0.00     0.042 A 
HETATM    6  C3  UNK     1      18.962   6.828  32.854  1.00  0.00    -0.033 A 
HETATM    7  C7  UNK     1      18.686   8.001  33.549  1.00  0.00     0.047 A 
HETATM    8  C8  UNK     1      20.386   6.415  32.672  1.00  0.00     0.050 C 
HETATM    9  C4  UNK     1      17.358   8.393  33.723  1.00  0.00     0.090 A 
HETATM   10  C1  UNK     1      16.288   7.647  33.223  1.00  0.00     0.006 A 
HETATM   11  O1  UNK     1      17.141   9.589  34.436  1.00  0.00    -0.275 OA
HETATM   12  C5  UNK     1      16.588   6.469  32.526  1.00  0.00     0.044 A 
HETATM   13  C6  UNK     1      14.922   8.134  33.453  1.00  0.00    -0.043 A 
HETATM   14  C10 UNK     1      13.751   7.357  32.928  1.00  0.00     0.049 C 
HETATM   15  C9  UNK     1      14.746   9.276  34.134  1.00  0.00     0.090 A 
HETATM   16  C13 UNK     1      15.863  10.073  34.668  1.00  0.00     0.288 A 
HETATM   17  O3  UNK     1      15.664  11.113  35.286  1.00  0.00    -0.260 OA
ENDBRANCH   2   5
BRANCH   3  18
HETATM   18  C12 UNK     1      18.494   2.519  31.133  1.00  0.00     0.034 A 
HETATM   19  C14 UNK     1      19.152   1.387  31.567  1.00  0.00     0.054 A 
HETATM   20  C16 UNK     1      19.478   0.401  30.636  1.00  0.00     0.125 A 
HETATM   21  C18 UNK     1      19.140   0.569  29.293  1.00  0.00     0.067 A 
HETATM   22  C17 UNK     1      18.476   1.725  28.881  1.00  0.00     0.027 A 
HETATM   23 Cl1  UNK     1      19.523  -0.622  28.102  1.00  0.00    -0.082 Cl
HETATM   24  C15 UNK     1      18.148   2.711  29.812  1.00  0.00     0.019 A 
BRANCH  20  25
HETATM   25  N2  UNK     1      20.158  -0.763  31.094  1.00  0.00    -0.114 N 
HETATM   26  O4  UNK     1      21.384  -0.689  31.340  1.00  0.00    -0.532 OA
HETATM   27  O5  UNK     1      19.510  -1.825  31.235  1.00  0.00    -0.532 OA
ENDBRANCH  20  25
ENDBRANCH   3  18
TORSDOF 3
ENDMDL
MODEL 2
REMARK VINA RESULT:      -9.7      6.242      9.133
REMARK  3 active torsions:
REMARK  status: ('A' for Active; 'I' for Inactive)
REMARK       I    between atoms: C11_19  and  N1_7 
REMARK    1  A    between atoms: C2_10  and  N1_7 
REMARK    2  A    between atoms: C16_24  and  N2_8 
REMARK    3  A    between atoms: C11_19  and  C12_20 
ROOT
HETATM    1  O2  UNK     1      21.401  -2.067  35.630  1.00  0.00    -0.267 OA
HETATM    2  N1  UNK     1      19.163  -2.300  34.950  1.00  0.00    -0.322 N 
HETATM    3  C11 UNK     1      20.325  -2.657  35.643  1.00  0.00     0.256 C 
HETATM    4  H3  UNK     1      18.336  -2.866  35.104  1.00  0.00     0.169 HD
ENDROOT
BRANCH   2   5
HETATM    5  C2  UNK     1      18.971  -1.207  34.100  1.00  0.00     0.042 A 
HETATM    6  C3  UNK     1      18.366  -0.042  34.566  1.00  0.00    -0.033 A 
HETATM    7  C7  UNK     1      18.185   1.035  33.704  1.00  0.00     0.047 A 
HETATM    8  C8  UNK     1      17.904   0.080  35.981  1.00  0.00     0.050 C 
HETATM    9  C4  UNK     1      18.614   0.927  32.380  1.00  0.00     0.090 A 
HETATM   10  C1  UNK     1      19.222  -0.227  31.885  1.00  0.00     0.006 A 
HETATM   11  O1  UNK     1      18.402   2.051  31.555  1.00  0.00    -0.275 OA
HETATM   12  C5  UNK     1      19.395  -1.300  32.769  1.00  0.00     0.044 A 
HETATM   13  C6  UNK     1      19.642  -0.253  30.478  1.00  0.00    -0.043 A 
HETATM   14  C10 UNK     1      20.299  -1.479  29.914  1.00  0.00     0.049 C 
HETATM   15  C9  UNK     1      19.429   0.830  29.717  1.00  0.00     0.090 A 
HETATM   16  C13 UNK     1      18.789   2.055  30.224  1.00  0.00     0.288 A 
HETATM   17  O3  UNK     1      18.609   3.027  29.499  1.00  0.00    -0.260 OA
ENDBRANCH   2   5
BRANCH   3  18
HETATM   18  C12 UNK     1      20.227  -3.900  36.452  1.00  0.00     0.034 A 
HETATM   19  C14 UNK     1      19.209  -4.790  36.183  1.00  0.00     0.054 A 
HETATM   20  C16 UNK     1      19.118  -5.957  36.942  1.00  0.00     0.125 A 
HETATM   21  C18 UNK     1      20.047  -6.206  37.953  1.00  0.00     0.067 A 
HETATM   22  C17 UNK     1      21.066  -5.288  38.205  1.00  0.00     0.027 A 
HETATM   23 Cl1  UNK     1      19.977  -7.635  38.922  1.00  0.00    -0.082 Cl
HETATM   24  C15 UNK     1      21.158  -4.121  37.445  1.00  0.00     0.019 A 
BRANCH  20  25
HETATM   25  N2  UNK     1      18.063  -6.869  36.657  1.00  0.00    -0.114 N 
HETATM   26  O4  UNK     1      16.887  -6.538  36.935  1.00  0.00    -0.532 OA
HETATM   27  O5  UNK     1      18.343  -7.975  36.139  1.00  0.00    -0.532 OA
ENDBRANCH  20  25
ENDBRANCH   3  18
TORSDOF 3
ENDMDL
MODEL 3
REMARK VINA RESULT:      -9.0      6.860      9.362
REMARK  3 active torsions:
REMARK  status: ('A' for Active; 'I' for Inactive)
REMARK       I    between atoms: C11_19  and  N1_7 
REMARK    1  A    between atoms: C2_10  and  N1_7 
REMARK    2  A    between atoms: C16_24  and  N2_8 
REMARK    3  A    between atoms: C11_19  and  C12_20 
ROOT
HETATM    1  O2  UNK     1      21.233  -2.719  36.046  1.00  0.00    -0.267 OA
HETATM    2  N1  UNK     1      18.897  -2.732  35.789  1.00  0.00    -0.322 N 
HETATM    3  C11 UNK     1      20.136  -3.249  36.184  1.00  0.00     0.256 C 
HETATM    4  H3  UNK     1      18.071  -3.273  36.019  1.00  0.00     0.169 HD
ENDROOT
BRANCH   2   5
HETATM    5  C2  UNK     1      18.636  -1.512  35.159  1.00  0.00     0.042 A 
HETATM    6  C3  UNK     1      17.987  -0.485  35.840  1.00  0.00    -0.033 A 
HETATM    7  C7  UNK     1      17.738   0.723  35.196  1.00  0.00     0.047 A 
HETATM    8  C8  UNK     1      17.548  -0.650  37.258  1.00  0.00     0.050 C 
HETATM    9  C4  UNK     1      18.145   0.884  33.871  1.00  0.00     0.090 A 
HETATM   10  C1  UNK     1      18.797  -0.127  33.163  1.00  0.00     0.006 A 
HETATM   11  O1  UNK     1      17.865   2.129  33.271  1.00  0.00    -0.275 OA
HETATM   12  C5  UNK     1      19.039  -1.335  33.830  1.00  0.00     0.044 A 
HETATM   13  C6  UNK     1      19.191   0.129  31.771  1.00  0.00    -0.043 A 
HETATM   14  C10 UNK     1      19.893  -0.936  30.983  1.00  0.00     0.049 C 
HETATM   15  C9  UNK     1      18.912   1.322  31.227  1.00  0.00     0.090 A 
HETATM   16  C13 UNK     1      18.225   2.399  31.961  1.00  0.00     0.288 A 
HETATM   17  O3  UNK     1      17.986   3.478  31.430  1.00  0.00    -0.260 OA
ENDBRANCH   2   5
BRANCH   3  18
HETATM   18  C12 UNK     1      20.093  -4.597  36.809  1.00  0.00     0.034 A 
HETATM   19  C14 UNK     1      21.225  -5.079  37.431  1.00  0.00     0.054 A 
HETATM   20  C16 UNK     1      21.184  -6.344  38.018  1.00  0.00     0.125 A 
HETATM   21  C18 UNK     1      20.011  -7.098  37.968  1.00  0.00     0.067 A 
HETATM   22  C17 UNK     1      18.879  -6.587  37.332  1.00  0.00     0.027 A 
HETATM   23 Cl1  UNK     1      19.908  -8.670  38.679  1.00  0.00    -0.082 Cl
HETATM   24  C15 UNK     1      18.921  -5.322  36.745  1.00  0.00     0.019 A 
BRANCH  20  25
HETATM   25  N2  UNK     1      22.358  -6.833  38.657  1.00  0.00    -0.114 N 
HETATM   26  O4  UNK     1      23.261  -7.341  37.953  1.00  0.00    -0.532 OA
HETATM   27  O5  UNK     1      22.451  -6.740  39.902  1.00  0.00    -0.532 OA
ENDBRANCH  20  25
ENDBRANCH   3  18
TORSDOF 3
ENDMDL
MODEL 4
REMARK VINA RESULT:      -9.0     14.405     19.239
REMARK  3 active torsions:
REMARK  status: ('A' for Active; 'I' for Inactive)
REMARK       I    between atoms: C11_19  and  N1_7 
REMARK    1  A    between atoms: C2_10  and  N1_7 
REMARK    2  A    between atoms: C16_24  and  N2_8 
REMARK    3  A    between atoms: C11_19  and  C12_20 
ROOT
HETATM    1  O2  UNK     1      17.690  -1.466  17.312  1.00  0.00    -0.267 OA
HETATM    2  N1  UNK     1      19.229  -1.318  15.542  1.00  0.00    -0.322 N 
HETATM    3  C11 UNK     1      18.565  -0.873  16.690  1.00  0.00     0.256 C 
HETATM    4  H3  UNK     1      19.967  -0.729  15.172  1.00  0.00     0.169 HD
ENDROOT
BRANCH   2   5
HETATM    5  C2  UNK     1      19.046  -2.522  14.856  1.00  0.00     0.042 A 
HETATM    6  C3  UNK     1      19.667  -2.742  13.628  1.00  0.00    -0.033 A 
HETATM    7  C7  UNK     1      19.474  -3.948  12.962  1.00  0.00     0.047 A 
HETATM    8  C8  UNK     1      20.543  -1.705  13.005  1.00  0.00     0.050 C 
HETATM    9  C4  UNK     1      18.656  -4.921  13.538  1.00  0.00     0.090 A 
HETATM   10  C1  UNK     1      18.021  -4.729  14.766  1.00  0.00     0.006 A 
HETATM   11  O1  UNK     1      18.498  -6.121  12.816  1.00  0.00    -0.275 OA
HETATM   12  C5  UNK     1      18.228  -3.508  15.421  1.00  0.00     0.044 A 
HETATM   13  C6  UNK     1      17.178  -5.807  15.298  1.00  0.00    -0.043 A 
HETATM   14  C10 UNK     1      16.481  -5.632  16.616  1.00  0.00     0.049 C 
HETATM   15  C9  UNK     1      17.046  -6.938  14.590  1.00  0.00     0.090 A 
HETATM   16  C13 UNK     1      17.709  -7.155  13.294  1.00  0.00     0.288 A 
HETATM   17  O3  UNK     1      17.566  -8.203  12.673  1.00  0.00    -0.260 OA
ENDBRANCH   2   5
BRANCH   3  18
HETATM   18  C12 UNK     1      18.962   0.476  17.172  1.00  0.00     0.034 A 
HETATM   19  C14 UNK     1      19.074   0.692  18.530  1.00  0.00     0.054 A 
HETATM   20  C16 UNK     1      19.447   1.958  18.981  1.00  0.00     0.125 A 
HETATM   21  C18 UNK     1      19.698   2.979  18.064  1.00  0.00     0.067 A 
HETATM   22  C17 UNK     1      19.577   2.734  16.696  1.00  0.00     0.027 A 
HETATM   23 Cl1  UNK     1      20.162   4.564  18.572  1.00  0.00    -0.082 Cl
HETATM   24  C15 UNK     1      19.204   1.468  16.245  1.00  0.00     0.019 A 
BRANCH  20  25
HETATM   25  N2  UNK     1      19.559   2.171  20.384  1.00  0.00    -0.114 N 
HETATM   26  O4  UNK     1      18.513   2.292  21.062  1.00  0.00    -0.532 OA
HETATM   27  O5  UNK     1      20.700   2.230  20.897  1.00  0.00    -0.532 OA
ENDBRANCH  20  25
ENDBRANCH   3  18
TORSDOF 3
ENDMDL
MODEL 5
REMARK VINA RESULT:      -8.8      3.371      8.852
REMARK  3 active torsions:
REMARK  status: ('A' for Active; 'I' for Inactive)
REMARK       I    between atoms: C11_19  and  N1_7 
REMARK    1  A    between atoms: C2_10  and  N1_7 
REMARK    2  A    between atoms: C16_24  and  N2_8 
REMARK    3  A    between atoms: C11_19  and  C12_20 
ROOT
HETATM    1  O2  UNK     1      19.593   5.444  32.620  1.00  0.00    -0.267 OA
HETATM    2  N1  UNK     1      17.714   4.114  32.148  1.00  0.00    -0.322 N 
HETATM    3  C11 UNK     1      18.382   5.250  32.619  1.00  0.00     0.256 C 
HETATM    4  H3  UNK     1      16.700   4.127  32.172  1.00  0.00     0.169 HD
ENDROOT
BRANCH   2   5
HETATM    5  C2  UNK     1      18.268   2.964  31.580  1.00  0.00     0.042 A 
HETATM    6  C3  UNK     1      18.724   2.970  30.264  1.00  0.00    -0.033 A 
HETATM    7  C7  UNK     1      19.275   1.815  29.717  1.00  0.00     0.047 A 
HETATM    8  C8  UNK     1      18.636   4.198  29.417  1.00  0.00     0.050 C 
HETATM    9  C4  UNK     1      19.359   0.664  30.503  1.00  0.00     0.090 A 
HETATM   10  C1  UNK     1      18.910   0.628  31.824  1.00  0.00     0.006 A 
HETATM   11  O1  UNK     1      19.926  -0.474  29.895  1.00  0.00    -0.275 OA
HETATM   12  C5  UNK     1      18.359   1.802  32.355  1.00  0.00     0.044 A 
HETATM   13  C6  UNK     1      19.038  -0.626  32.577  1.00  0.00    -0.043 A 
HETATM   14  C10 UNK     1      18.566  -0.698  33.999  1.00  0.00     0.049 C 
HETATM   15  C9  UNK     1      19.581  -1.693  31.973  1.00  0.00     0.090 A 
HETATM   16  C13 UNK     1      20.060  -1.671  30.581  1.00  0.00     0.288 A 
HETATM   17  O3  UNK     1      20.551  -2.667  30.061  1.00  0.00    -0.260 OA
ENDBRANCH   2   5
BRANCH   3  18
HETATM   18  C12 UNK     1      17.512   6.306  33.199  1.00  0.00     0.034 A 
HETATM   19  C14 UNK     1      16.280   6.543  32.625  1.00  0.00     0.054 A 
HETATM   20  C16 UNK     1      15.463   7.534  33.170  1.00  0.00     0.125 A 
HETATM   21  C18 UNK     1      15.897   8.265  34.277  1.00  0.00     0.067 A 
HETATM   22  C17 UNK     1      17.147   8.005  34.838  1.00  0.00     0.027 A 
HETATM   23 Cl1  UNK     1      14.923   9.502  34.988  1.00  0.00    -0.082 Cl
HETATM   24  C15 UNK     1      17.964   7.013  34.293  1.00  0.00     0.019 A 
BRANCH  20  25
HETATM   25  N2  UNK     1      14.195   7.772  32.570  1.00  0.00    -0.114 N 
HETATM   26  O4  UNK     1      13.626   6.832  31.967  1.00  0.00    -0.532 OA
HETATM   27  O5  UNK     1      13.687   8.913  32.662  1.00  0.00    -0.532 OA
ENDBRANCH  20  25
ENDBRANCH   3  18
TORSDOF 3
ENDMDL
MODEL 6
REMARK VINA RESULT:      -8.8      2.140      3.311
REMARK  3 active torsions:
REMARK  status: ('A' for Active; 'I' for Inactive)
REMARK       I    between atoms: C11_19  and  N1_7 
REMARK    1  A    between atoms: C2_10  and  N1_7 
REMARK    2  A    between atoms: C16_24  and  N2_8 
REMARK    3  A    between atoms: C11_19  and  C12_20 
ROOT
HETATM    1  O2  UNK     1      18.699   5.864  30.657  1.00  0.00    -0.267 OA
HETATM    2  N1  UNK     1      17.597   5.803  32.732  1.00  0.00    -0.322 N 
HETATM    3  C11 UNK     1      18.266   5.257  31.631  1.00  0.00     0.256 C 
HETATM    4  H3  UNK     1      17.344   5.171  33.484  1.00  0.00     0.169 HD
ENDROOT
BRANCH   2   5
HETATM    5  C2  UNK     1      17.278   7.143  32.966  1.00  0.00     0.042 A 
HETATM    6  C3  UNK     1      15.989   7.617  32.735  1.00  0.00    -0.033 A 
HETATM    7  C7  UNK     1      15.690   8.955  32.975  1.00  0.00     0.047 A 
HETATM    8  C8  UNK     1      14.909   6.716  32.231  1.00  0.00     0.050 C 
HETATM    9  C4  UNK     1      16.695   9.802  33.445  1.00  0.00     0.090 A 
HETATM   10  C1  UNK     1      17.996   9.356  33.685  1.00  0.00     0.006 A 
HETATM   11  O1  UNK     1      16.333  11.146  33.669  1.00  0.00    -0.275 OA
HETATM   12  C5  UNK     1      18.275   8.006  33.437  1.00  0.00     0.044 A 
HETATM   13  C6  UNK     1      18.989  10.317  34.180  1.00  0.00    -0.043 A 
HETATM   14  C10 UNK     1      20.396   9.870  34.448  1.00  0.00     0.049 C 
HETATM   15  C9  UNK     1      18.617  11.589  34.384  1.00  0.00     0.090 A 
HETATM   16  C13 UNK     1      17.249  12.075  34.136  1.00  0.00     0.288 A 
HETATM   17  O3  UNK     1      16.944  13.246  34.334  1.00  0.00    -0.260 OA
ENDBRANCH   2   5
BRANCH   3  18
HETATM   18  C12 UNK     1      18.433   3.780  31.656  1.00  0.00     0.034 A 
HETATM   19  C14 UNK     1      18.759   3.127  30.485  1.00  0.00     0.054 A 
HETATM   20  C16 UNK     1      18.916   1.741  30.510  1.00  0.00     0.125 A 
HETATM   21  C18 UNK     1      18.743   1.040  31.704  1.00  0.00     0.067 A 
HETATM   22  C17 UNK     1      18.413   1.725  32.873  1.00  0.00     0.027 A 
HETATM   23 Cl1  UNK     1      18.925  -0.676  31.786  1.00  0.00    -0.082 Cl
HETATM   24  C15 UNK     1      18.256   3.112  32.849  1.00  0.00     0.019 A 
BRANCH  20  25
HETATM   25  N2  UNK     1      19.251   1.076  29.296  1.00  0.00    -0.114 N 
HETATM   26  O4  UNK     1      20.313   0.414  29.245  1.00  0.00    -0.532 OA
HETATM   27  O5  UNK     1      18.475   1.176  28.319  1.00  0.00    -0.532 OA
ENDBRANCH  20  25
ENDBRANCH   3  18
TORSDOF 3
ENDMDL
MODEL 7
REMARK VINA RESULT:      -8.8      2.176      3.409
REMARK  3 active torsions:
REMARK  status: ('A' for Active; 'I' for Inactive)
REMARK       I    between atoms: C11_19  and  N1_7 
REMARK    1  A    between atoms: C2_10  and  N1_7 
REMARK    2  A    between atoms: C16_24  and  N2_8 
REMARK    3  A    between atoms: C11_19  and  C12_20 
ROOT
HETATM    1  O2  UNK     1      18.583   5.718  30.568  1.00  0.00    -0.267 OA
HETATM    2  N1  UNK     1      17.683   5.714  32.740  1.00  0.00    -0.322 N 
HETATM    3  C11 UNK     1      18.250   5.138  31.597  1.00  0.00     0.256 C 
HETATM    4  H3  UNK     1      17.509   5.104  33.531  1.00  0.00     0.169 HD
ENDROOT
BRANCH   2   5
HETATM    5  C2  UNK     1      17.375   7.058  32.962  1.00  0.00     0.042 A 
HETATM    6  C3  UNK     1      16.096   7.546  32.704  1.00  0.00    -0.033 A 
HETATM    7  C7  UNK     1      15.808   8.887  32.934  1.00  0.00     0.047 A 
HETATM    8  C8  UNK     1      15.016   6.655  32.182  1.00  0.00     0.050 C 
HETATM    9  C4  UNK     1      16.812   9.725  33.421  1.00  0.00     0.090 A 
HETATM   10  C1  UNK     1      18.103   9.265  33.688  1.00  0.00     0.006 A 
HETATM   11  O1  UNK     1      16.461  11.074  33.634  1.00  0.00    -0.275 OA
HETATM   12  C5  UNK     1      18.372   7.911  33.450  1.00  0.00     0.044 A 
HETATM   13  C6  UNK     1      19.097  10.217  34.199  1.00  0.00    -0.043 A 
HETATM   14  C10 UNK     1      20.493   9.755  34.497  1.00  0.00     0.049 C 
HETATM   15  C9  UNK     1      18.736  11.494  34.392  1.00  0.00     0.090 A 
HETATM   16  C13 UNK     1      17.378  11.994  34.115  1.00  0.00     0.288 A 
HETATM   17  O3  UNK     1      17.083  13.169  34.303  1.00  0.00    -0.260 OA
ENDBRANCH   2   5
BRANCH   3  18
HETATM   18  C12 UNK     1      18.433   3.664  31.650  1.00  0.00     0.034 A 
HETATM   19  C14 UNK     1      18.183   3.005  32.835  1.00  0.00     0.054 A 
HETATM   20  C16 UNK     1      18.354   1.621  32.884  1.00  0.00     0.125 A 
HETATM   21  C18 UNK     1      18.772   0.929  31.748  1.00  0.00     0.067 A 
HETATM   22  C17 UNK     1      19.019   1.621  30.561  1.00  0.00     0.027 A 
HETATM   23 Cl1  UNK     1      19.000  -0.784  31.757  1.00  0.00    -0.082 Cl
HETATM   24  C15 UNK     1      18.847   3.005  30.512  1.00  0.00     0.019 A 
BRANCH  20  25
HETATM   25  N2  UNK     1      18.094   0.950  34.113  1.00  0.00    -0.114 N 
HETATM   26  O4  UNK     1      16.946   0.493  34.320  1.00  0.00    -0.532 OA
HETATM   27  O5  UNK     1      19.020   0.839  34.948  1.00  0.00    -0.532 OA
ENDBRANCH  20  25
ENDBRANCH   3  18
TORSDOF 3
ENDMDL
MODEL 8
REMARK VINA RESULT:      -8.7      3.699      8.747
REMARK  3 active torsions:
REMARK  status: ('A' for Active; 'I' for Inactive)
REMARK       I    between atoms: C11_19  and  N1_7 
REMARK    1  A    between atoms: C2_10  and  N1_7 
REMARK    2  A    between atoms: C16_24  and  N2_8 
REMARK    3  A    between atoms: C11_19  and  C12_20 
ROOT
HETATM    1  O2  UNK     1      20.119   6.573  33.649  1.00  0.00    -0.267 OA
HETATM    2  N1  UNK     1      18.028   5.887  32.823  1.00  0.00    -0.322 N 
HETATM    3  C11 UNK     1      18.947   6.794  33.362  1.00  0.00     0.256 C 
HETATM    4  H3  UNK     1      17.105   6.239  32.593  1.00  0.00     0.169 HD
ENDROOT
BRANCH   2   5
HETATM    5  C2  UNK     1      18.237   4.544  32.497  1.00  0.00     0.042 A 
HETATM    6  C3  UNK     1      18.582   4.173  31.199  1.00  0.00    -0.033 A 
HETATM    7  C7  UNK     1      18.787   2.832  30.894  1.00  0.00     0.047 A 
HETATM    8  C8  UNK     1      18.739   5.191  30.117  1.00  0.00     0.050 C 
HETATM    9  C4  UNK     1      18.641   1.875  31.901  1.00  0.00     0.090 A 
HETATM   10  C1  UNK     1      18.295   2.216  33.209  1.00  0.00     0.006 A 
HETATM   11  O1  UNK     1      18.860   0.533  31.532  1.00  0.00    -0.275 OA
HETATM   12  C5  UNK     1      18.093   3.573  33.495  1.00  0.00     0.044 A 
HETATM   13  C6  UNK     1      18.163   1.145  34.204  1.00  0.00    -0.043 A 
HETATM   14  C10 UNK     1      17.793   1.478  35.620  1.00  0.00     0.049 C 
HETATM   15  C9  UNK     1      18.378  -0.123  33.826  1.00  0.00     0.090 A 
HETATM   16  C13 UNK     1      18.743  -0.499  32.449  1.00  0.00     0.288 A 
HETATM   17  O3  UNK     1      18.932  -1.670  32.139  1.00  0.00    -0.260 OA
ENDBRANCH   2   5
BRANCH   3  18
HETATM   18  C12 UNK     1      18.414   8.156  33.629  1.00  0.00     0.034 A 
HETATM   19  C14 UNK     1      17.052   8.361  33.571  1.00  0.00     0.054 A 
HETATM   20  C16 UNK     1      16.552   9.639  33.822  1.00  0.00     0.125 A 
HETATM   21  C18 UNK     1      17.427  10.683  34.125  1.00  0.00     0.067 A 
HETATM   22  C17 UNK     1      18.801  10.449  34.176  1.00  0.00     0.027 A 
HETATM   23 Cl1  UNK     1      16.859  12.284  34.443  1.00  0.00    -0.082 Cl
HETATM   24  C15 UNK     1      19.301   9.170  33.925  1.00  0.00     0.019 A 
BRANCH  20  25
HETATM   25  N2  UNK     1      15.145   9.840  33.759  1.00  0.00    -0.114 N 
HETATM   26  O4  UNK     1      14.623  10.114  32.654  1.00  0.00    -0.532 OA
HETATM   27  O5  UNK     1      14.472   9.739  34.811  1.00  0.00    -0.532 OA
ENDBRANCH  20  25
ENDBRANCH   3  18
TORSDOF 3
ENDMDL
MODEL 9
REMARK VINA RESULT:      -8.5     13.591     15.973
REMARK  3 active torsions:
REMARK  status: ('A' for Active; 'I' for Inactive)
REMARK       I    between atoms: C11_19  and  N1_7 
REMARK    1  A    between atoms: C2_10  and  N1_7 
REMARK    2  A    between atoms: C16_24  and  N2_8 
REMARK    3  A    between atoms: C11_19  and  C12_20 
ROOT
HETATM    1  O2  UNK     1      24.924  -6.419  38.695  1.00  0.00    -0.267 OA
HETATM    2  N1  UNK     1      23.936  -8.491  38.193  1.00  0.00    -0.322 N 
HETATM    3  C11 UNK     1      24.996  -7.624  38.479  1.00  0.00     0.256 C 
HETATM    4  H3  UNK     1      24.154  -9.476  38.088  1.00  0.00     0.169 HD
ENDROOT
BRANCH   2   5
HETATM    5  C2  UNK     1      22.577  -8.182  38.090  1.00  0.00     0.042 A 
HETATM    6  C3  UNK     1      21.773  -8.120  39.226  1.00  0.00    -0.033 A 
HETATM    7  C7  UNK     1      20.423  -7.810  39.102  1.00  0.00     0.047 A 
HETATM    8  C8  UNK     1      22.332  -8.382  40.586  1.00  0.00     0.050 C 
HETATM    9  C4  UNK     1      19.894  -7.565  37.833  1.00  0.00     0.090 A 
HETATM   10  C1  UNK     1      20.675  -7.620  36.677  1.00  0.00     0.006 A 
HETATM   11  O1  UNK     1      18.521  -7.256  37.771  1.00  0.00    -0.275 OA
HETATM   12  C5  UNK     1      22.032  -7.934  36.824  1.00  0.00     0.044 A 
HETATM   13  C6  UNK     1      20.035  -7.348  35.383  1.00  0.00    -0.043 A 
HETATM   14  C10 UNK     1      20.846  -7.398  34.122  1.00  0.00     0.049 C 
HETATM   15  C9  UNK     1      18.727  -7.056  35.354  1.00  0.00     0.090 A 
HETATM   16  C13 UNK     1      17.891  -6.994  36.564  1.00  0.00     0.288 A 
HETATM   17  O3  UNK     1      16.696  -6.724  36.500  1.00  0.00    -0.260 OA
ENDBRANCH   2   5
BRANCH   3  18
HETATM   18  C12 UNK     1      26.344  -8.250  38.492  1.00  0.00     0.034 A 
HETATM   19  C14 UNK     1      27.304  -7.782  37.619  1.00  0.00     0.054 A 
HETATM   20  C16 UNK     1      28.569  -8.369  37.632  1.00  0.00     0.125 A 
HETATM   21  C18 UNK     1      28.845  -9.412  38.517  1.00  0.00     0.067 A 
HETATM   22  C17 UNK     1      27.856  -9.867  39.389  1.00  0.00     0.027 A 
HETATM   23 Cl1  UNK     1      30.395 -10.173  38.571  1.00  0.00    -0.082 Cl
HETATM   24  C15 UNK     1      26.591  -9.279  39.377  1.00  0.00     0.019 A 
BRANCH  20  25
HETATM   25  N2  UNK     1      29.552  -7.879  36.727  1.00  0.00    -0.114 N 
HETATM   26  O4  UNK     1      29.698  -8.455  35.624  1.00  0.00    -0.532 OA
HETATM   27  O5  UNK     1      30.242  -6.889  37.062  1.00  0.00    -0.532 OA
ENDBRANCH  20  25
ENDBRANCH   3  18
TORSDOF 3
ENDMDL
MODEL 10
REMARK VINA RESULT:      -8.4      8.567     13.524
REMARK  3 active torsions:
REMARK  status: ('A' for Active; 'I' for Inactive)
REMARK       I    between atoms: C11_19  and  N1_7 
REMARK    1  A    between atoms: C2_10  and  N1_7 
REMARK    2  A    between atoms: C16_24  and  N2_8 
REMARK    3  A    between atoms: C11_19  and  C12_20 
ROOT
HETATM    1  O2  UNK     1      20.372  -3.265  36.056  1.00  0.00    -0.267 OA
HETATM    2  N1  UNK     1      18.490  -4.445  36.824  1.00  0.00    -0.322 N 
HETATM    3  C11 UNK     1      19.222  -3.303  36.480  1.00  0.00     0.256 C 
HETATM    4  H3  UNK     1      17.527  -4.312  37.115  1.00  0.00     0.169 HD
ENDROOT
BRANCH   2   5
HETATM    5  C2  UNK     1      18.899  -5.780  36.761  1.00  0.00     0.042 A 
HETATM    6  C3  UNK     1      18.056  -6.758  36.237  1.00  0.00    -0.033 A 
HETATM    7  C7  UNK     1      18.483  -8.081  36.182  1.00  0.00     0.047 A 
HETATM    8  C8  UNK     1      16.693  -6.417  35.730  1.00  0.00     0.050 C 
HETATM    9  C4  UNK     1      19.755  -8.406  36.655  1.00  0.00     0.090 A 
HETATM   10  C1  UNK     1      20.621  -7.448  37.185  1.00  0.00     0.006 A 
HETATM   11  O1  UNK     1      20.132  -9.762  36.573  1.00  0.00    -0.275 OA
HETATM   12  C5  UNK     1      20.173  -6.122  37.232  1.00  0.00     0.044 A 
HETATM   13  C6  UNK     1      21.942  -7.879  37.660  1.00  0.00    -0.043 A 
HETATM   14  C10 UNK     1      22.897  -6.874  38.235  1.00  0.00     0.049 C 
HETATM   15  C9  UNK     1      22.274  -9.175  37.570  1.00  0.00     0.090 A 
HETATM   16  C13 UNK     1      21.372 -10.198  37.013  1.00  0.00     0.288 A 
HETATM   17  O3  UNK     1      21.708 -11.375  36.946  1.00  0.00    -0.260 OA
ENDBRANCH   2   5
BRANCH   3  18
HETATM   18  C12 UNK     1      18.518  -2.010  36.686  1.00  0.00     0.034 A 
HETATM   19  C14 UNK     1      18.023  -1.339  35.587  1.00  0.00     0.054 A 
HETATM   20  C16 UNK     1      17.362  -0.126  35.781  1.00  0.00     0.125 A 
HETATM   21  C18 UNK     1      17.211   0.388  37.069  1.00  0.00     0.067 A 
HETATM   22  C17 UNK     1      17.722  -0.310  38.164  1.00  0.00     0.027 A 
HETATM   23 Cl1  UNK     1      16.402   1.886  37.362  1.00  0.00    -0.082 Cl
HETATM   24  C15 UNK     1      18.383  -1.524  37.970  1.00  0.00     0.019 A 
BRANCH  20  25
HETATM   25  N2  UNK     1      16.856   0.558  34.641  1.00  0.00    -0.114 N 
HETATM   26  O4  UNK     1      17.655   1.192  33.913  1.00  0.00    -0.532 OA
HETATM   27  O5  UNK     1      15.627   0.507  34.401  1.00  0.00    -0.532 OA
ENDBRANCH  20  25
ENDBRANCH   3  18
TORSDOF 3
ENDMDL
