MODEL 1
REMARK VINA RESULT:      -8.1      0.000      0.000
REMARK  3 active torsions:
REMARK  status: ('A' for Active; 'I' for Inactive)
REMARK    1  A    between atoms: C5_11  and  N1_6 
REMARK       I    between atoms: C6_12  and  N1_6 
REMARK    2  A    between atoms: C2_8  and  C6_12 
REMARK    3  A    between atoms: C5_11  and  C7_13 
ROOT
HETATM    1 Br1  UNK     1      21.266  -3.278  32.602  1.00  0.00    -0.051 Br
HETATM    2  O1  UNK     1      18.954   0.640  28.587  1.00  0.00    -0.274 OA
HETATM    3  O3  UNK     1      18.050   2.681  28.101  1.00  0.00    -0.259 OA
HETATM    4  C1  UNK     1      19.588   0.122  30.876  1.00  0.00     0.000 A 
HETATM    5  C2  UNK     1      18.629   2.287  30.365  1.00  0.00     0.108 A 
HETATM    6  C3  UNK     1      19.488  -0.251  29.540  1.00  0.00     0.089 A 
HETATM    7  C4  UNK     1      19.134   1.445  31.274  1.00  0.00     0.037 A 
HETATM    8  C8  UNK     1      20.121  -0.789  31.791  1.00  0.00     0.033 A 
HETATM    9  C9  UNK     1      18.512   1.912  28.937  1.00  0.00     0.304 A 
HETATM   10  C10 UNK     1      19.904  -1.503  29.093  1.00  0.00     0.039 A 
HETATM   11  C11 UNK     1      20.544  -2.049  31.358  1.00  0.00     0.011 A 
HETATM   12  C12 UNK     1      20.436  -2.406  30.013  1.00  0.00     0.022 A 
ENDROOT
BRANCH   5  13
HETATM   13  C6  UNK     1      18.199   3.599  30.862  1.00  0.00     0.258 C 
HETATM   14  O2  UNK     1      17.451   3.690  31.834  1.00  0.00    -0.267 OA
HETATM   15  N1  UNK     1      18.720   4.650  30.130  1.00  0.00    -0.352 N 
HETATM   16  H4  UNK     1      19.317   4.468  29.330  1.00  0.00     0.163 HD
BRANCH  15  17
HETATM   17  C5  UNK     1      18.436   6.035  30.427  1.00  0.00     0.169 C 
BRANCH  17  18
HETATM   18  C7  UNK     1      19.081   6.478  31.709  1.00  0.00     0.000 A 
HETATM   19  C13 UNK     1      20.348   6.214  32.141  1.00  0.00     0.017 A 
HETATM   20  C14 UNK     1      20.596   6.808  33.412  1.00  0.00     0.008 A 
HETATM   21  C15 UNK     1      19.501   7.496  33.884  1.00  0.00     0.050 A 
HETATM   22  S1  UNK     1      18.180   7.425  32.797  1.00  0.00    -0.105 SA
ENDBRANCH  17  18
ENDBRANCH  15  17
ENDBRANCH   5  13
TORSDOF 3
ENDMDL
MODEL 2
REMARK VINA RESULT:      -8.1      5.873      8.793
REMARK  3 active torsions:
REMARK  status: ('A' for Active; 'I' for Inactive)
REMARK    1  A    between atoms: C5_11  and  N1_6 
REMARK       I    between atoms: C6_12  and  N1_6 
REMARK    2  A    between atoms: C2_8  and  C6_12 
REMARK    3  A    between atoms: C5_11  and  C7_13 
ROOT
HETATM    1 Br1  UNK     1      18.276   2.341  29.087  1.00  0.00    -0.051 Br
HETATM    2  O1  UNK     1      20.851  -2.906  30.712  1.00  0.00    -0.274 OA
HETATM    3  O3  UNK     1      21.551  -4.354  32.335  1.00  0.00    -0.259 OA
HETATM    4  C1  UNK     1      19.809  -0.805  31.347  1.00  0.00     0.000 A 
HETATM    5  C2  UNK     1      20.549  -2.337  33.071  1.00  0.00     0.108 A 
HETATM    6  C3  UNK     1      20.250  -1.682  30.362  1.00  0.00     0.089 A 
HETATM    7  C4  UNK     1      19.978  -1.172  32.744  1.00  0.00     0.037 A 
HETATM    8  C8  UNK     1      19.218   0.401  30.961  1.00  0.00     0.033 A 
HETATM    9  C9  UNK     1      21.027  -3.286  32.040  1.00  0.00     0.304 A 
HETATM   10  C10 UNK     1      20.117  -1.390  29.006  1.00  0.00     0.039 A 
HETATM   11  C11 UNK     1      19.077   0.708  29.604  1.00  0.00     0.011 A 
HETATM   12  C12 UNK     1      19.526  -0.185  28.629  1.00  0.00     0.022 A 
ENDROOT
BRANCH   5  13
HETATM   13  C6  UNK     1      20.675  -2.619  34.506  1.00  0.00     0.258 C 
HETATM   14  O2  UNK     1      21.466  -1.988  35.205  1.00  0.00    -0.267 OA
HETATM   15  N1  UNK     1      19.834  -3.630  34.932  1.00  0.00    -0.352 N 
HETATM   16  H4  UNK     1      19.228  -4.103  34.269  1.00  0.00     0.163 HD
BRANCH  15  17
HETATM   17  C5  UNK     1      19.781  -4.087  36.302  1.00  0.00     0.169 C 
BRANCH  17  18
HETATM   18  C7  UNK     1      20.338  -5.473  36.454  1.00  0.00     0.000 A 
HETATM   19  C13 UNK     1      20.213  -6.522  35.590  1.00  0.00     0.017 A 
HETATM   20  C14 UNK     1      20.883  -7.680  36.082  1.00  0.00     0.008 A 
HETATM   21  C15 UNK     1      21.486  -7.451  37.299  1.00  0.00     0.050 A 
HETATM   22  S1  UNK     1      21.243  -5.846  37.845  1.00  0.00    -0.105 SA
ENDBRANCH  17  18
ENDBRANCH  15  17
ENDBRANCH   5  13
TORSDOF 3
ENDMDL
MODEL 3
REMARK VINA RESULT:      -7.7      1.702      2.551
REMARK  3 active torsions:
REMARK  status: ('A' for Active; 'I' for Inactive)
REMARK    1  A    between atoms: C5_11  and  N1_6 
REMARK       I    between atoms: C6_12  and  N1_6 
REMARK    2  A    between atoms: C2_8  and  C6_12 
REMARK    3  A    between atoms: C5_11  and  C7_13 
ROOT
HETATM    1 Br1  UNK     1      20.150  -2.854  35.667  1.00  0.00    -0.051 Br
HETATM    2  O1  UNK     1      20.499  -1.890  29.687  1.00  0.00    -0.274 OA
HETATM    3  O3  UNK     1      20.125  -0.560  27.866  1.00  0.00    -0.259 OA
HETATM    4  C1  UNK     1      19.844  -1.112  31.895  1.00  0.00     0.000 A 
HETATM    5  C2  UNK     1      19.446   0.300  29.967  1.00  0.00     0.108 A 
HETATM    6  C3  UNK     1      20.406  -2.088  31.079  1.00  0.00     0.089 A 
HETATM    7  C4  UNK     1      19.355   0.116  31.290  1.00  0.00     0.037 A 
HETATM    8  C8  UNK     1      19.769  -1.346  33.270  1.00  0.00     0.033 A 
HETATM    9  C9  UNK     1      20.040  -0.725  29.079  1.00  0.00     0.304 A 
HETATM   10  C10 UNK     1      20.894  -3.286  31.596  1.00  0.00     0.039 A 
HETATM   11  C11 UNK     1      20.255  -2.543  33.804  1.00  0.00     0.011 A 
HETATM   12  C12 UNK     1      20.815  -3.511  32.969  1.00  0.00     0.022 A 
ENDROOT
BRANCH   5  13
HETATM   13  C6  UNK     1      18.926   1.571  29.451  1.00  0.00     0.258 C 
HETATM   14  O2  UNK     1      18.334   1.619  28.373  1.00  0.00    -0.267 OA
HETATM   15  N1  UNK     1      19.180   2.639  30.291  1.00  0.00    -0.352 N 
HETATM   16  H4  UNK     1      19.694   2.498  31.155  1.00  0.00     0.163 HD
BRANCH  15  17
HETATM   17  C5  UNK     1      18.767   3.992  29.994  1.00  0.00     0.169 C 
BRANCH  17  18
HETATM   18  C7  UNK     1      19.057   4.930  31.131  1.00  0.00     0.000 A 
HETATM   19  C13 UNK     1      20.084   5.821  31.236  1.00  0.00     0.017 A 
HETATM   20  C14 UNK     1      20.024   6.537  32.467  1.00  0.00     0.008 A 
HETATM   21  C15 UNK     1      18.949   6.152  33.237  1.00  0.00     0.050 A 
HETATM   22  S1  UNK     1      18.018   4.932  32.477  1.00  0.00    -0.105 SA
ENDBRANCH  17  18
ENDBRANCH  15  17
ENDBRANCH   5  13
TORSDOF 3
ENDMDL
MODEL 4
REMARK VINA RESULT:      -7.7      5.029      7.145
REMARK  3 active torsions:
REMARK  status: ('A' for Active; 'I' for Inactive)
REMARK    1  A    between atoms: C5_11  and  N1_6 
REMARK       I    between atoms: C6_12  and  N1_6 
REMARK    2  A    between atoms: C2_8  and  C6_12 
REMARK    3  A    between atoms: C5_11  and  C7_13 
ROOT
HETATM    1 Br1  UNK     1      18.074   8.627  33.617  1.00  0.00    -0.051 Br
HETATM    2  O1  UNK     1      18.736   3.352  30.695  1.00  0.00    -0.274 OA
HETATM    3  O3  UNK     1      18.728   1.067  30.698  1.00  0.00    -0.259 OA
HETATM    4  C1  UNK     1      18.263   4.556  32.752  1.00  0.00     0.000 A 
HETATM    5  C2  UNK     1      18.254   2.134  32.760  1.00  0.00     0.108 A 
HETATM    6  C3  UNK     1      18.576   4.562  31.397  1.00  0.00     0.089 A 
HETATM    7  C4  UNK     1      18.102   3.281  33.432  1.00  0.00     0.037 A 
HETATM    8  C8  UNK     1      18.114   5.777  33.414  1.00  0.00     0.033 A 
HETATM    9  C9  UNK     1      18.588   2.116  31.318  1.00  0.00     0.304 A 
HETATM   10  C10 UNK     1      18.744   5.750  30.687  1.00  0.00     0.039 A 
HETATM   11  C11 UNK     1      18.278   6.977  32.715  1.00  0.00     0.011 A 
HETATM   12  C12 UNK     1      18.592   6.963  31.355  1.00  0.00     0.022 A 
ENDROOT
BRANCH   5  13
HETATM   13  C6  UNK     1      18.072   0.900  33.532  1.00  0.00     0.258 C 
HETATM   14  O2  UNK     1      18.989   0.088  33.650  1.00  0.00    -0.267 OA
HETATM   15  N1  UNK     1      16.804   0.784  34.072  1.00  0.00    -0.352 N 
HETATM   16  H4  UNK     1      16.109   1.504  33.901  1.00  0.00     0.163 HD
BRANCH  15  17
HETATM   17  C5  UNK     1      16.386  -0.347  34.869  1.00  0.00     0.169 C 
BRANCH  17  18
HETATM   18  C7  UNK     1      17.022  -0.340  36.229  1.00  0.00     0.000 A 
HETATM   19  C13 UNK     1      17.053   0.682  37.132  1.00  0.00     0.017 A 
HETATM   20  C14 UNK     1      17.751   0.307  38.316  1.00  0.00     0.008 A 
HETATM   21  C15 UNK     1      18.218  -0.987  38.253  1.00  0.00     0.050 A 
HETATM   22  S1  UNK     1      17.814  -1.745  36.771  1.00  0.00    -0.105 SA
ENDBRANCH  17  18
ENDBRANCH  15  17
ENDBRANCH   5  13
TORSDOF 3
ENDMDL
MODEL 5
REMARK VINA RESULT:      -7.5     15.129     17.780
REMARK  3 active torsions:
REMARK  status: ('A' for Active; 'I' for Inactive)
REMARK    1  A    between atoms: C5_11  and  N1_6 
REMARK       I    between atoms: C6_12  and  N1_6 
REMARK    2  A    between atoms: C2_8  and  C6_12 
REMARK    3  A    between atoms: C5_11  and  C7_13 
ROOT
HETATM    1 Br1  UNK     1      19.035   1.993  21.065  1.00  0.00    -0.051 Br
HETATM    2  O1  UNK     1      19.226   0.847  15.110  1.00  0.00    -0.274 OA
HETATM    3  O3  UNK     1      19.143  -0.632  13.371  1.00  0.00    -0.259 OA
HETATM    4  C1  UNK     1      19.001   0.033  17.389  1.00  0.00     0.000 A 
HETATM    5  C2  UNK     1      18.913  -1.539  15.548  1.00  0.00     0.108 A 
HETATM    6  C3  UNK     1      19.177   1.085  16.498  1.00  0.00     0.089 A 
HETATM    7  C4  UNK     1      18.867  -1.318  16.867  1.00  0.00     0.037 A 
HETATM    8  C8  UNK     1      18.959   0.309  18.758  1.00  0.00     0.033 A 
HETATM    9  C9  UNK     1      19.100  -0.434  14.580  1.00  0.00     0.304 A 
HETATM   10  C10 UNK     1      19.312   2.402  16.933  1.00  0.00     0.039 A 
HETATM   11  C11 UNK     1      19.093   1.626  19.211  1.00  0.00     0.011 A 
HETATM   12  C12 UNK     1      19.269   2.669  18.301  1.00  0.00     0.022 A 
ENDROOT
BRANCH   5  13
HETATM   13  C6  UNK     1      18.768  -2.934  15.118  1.00  0.00     0.258 C 
HETATM   14  O2  UNK     1      17.814  -3.614  15.493  1.00  0.00    -0.267 OA
HETATM   15  N1  UNK     1      19.790  -3.350  14.285  1.00  0.00    -0.352 N 
HETATM   16  H4  UNK     1      20.545  -2.715  14.046  1.00  0.00     0.163 HD
BRANCH  15  17
HETATM   17  C5  UNK     1      19.865  -4.685  13.735  1.00  0.00     0.169 C 
BRANCH  17  18
HETATM   18  C7  UNK     1      19.379  -4.736  12.315  1.00  0.00     0.000 A 
HETATM   19  C13 UNK     1      19.242  -3.696  11.442  1.00  0.00     0.017 A 
HETATM   20  C14 UNK     1      18.751  -4.141  10.181  1.00  0.00     0.008 A 
HETATM   21  C15 UNK     1      18.540  -5.502  10.159  1.00  0.00     0.050 A 
HETATM   22  S1  UNK     1      18.933  -6.238  11.654  1.00  0.00    -0.105 SA
ENDBRANCH  17  18
ENDBRANCH  15  17
ENDBRANCH   5  13
TORSDOF 3
ENDMDL
MODEL 6
REMARK VINA RESULT:      -7.5     14.346     17.115
REMARK  3 active torsions:
REMARK  status: ('A' for Active; 'I' for Inactive)
REMARK    1  A    between atoms: C5_11  and  N1_6 
REMARK       I    between atoms: C6_12  and  N1_6 
REMARK    2  A    between atoms: C2_8  and  C6_12 
REMARK    3  A    between atoms: C5_11  and  C7_13 
ROOT
HETATM    1 Br1  UNK     1      18.842   1.704  20.691  1.00  0.00    -0.051 Br
HETATM    2  O1  UNK     1      19.348   0.609  14.745  1.00  0.00    -0.274 OA
HETATM    3  O3  UNK     1      19.274  -0.842  12.982  1.00  0.00    -0.259 OA
HETATM    4  C1  UNK     1      18.913  -0.210  16.992  1.00  0.00     0.000 A 
HETATM    5  C2  UNK     1      18.834  -1.752  15.125  1.00  0.00     0.108 A 
HETATM    6  C3  UNK     1      19.224   0.836  16.130  1.00  0.00     0.089 A 
HETATM    7  C4  UNK     1      18.716  -1.542  16.441  1.00  0.00     0.037 A 
HETATM    8  C8  UNK     1      18.799   0.054  18.359  1.00  0.00     0.033 A 
HETATM    9  C9  UNK     1      19.165  -0.654  14.189  1.00  0.00     0.304 A 
HETATM   10  C10 UNK     1      19.425   2.134  16.594  1.00  0.00     0.039 A 
HETATM   11  C11 UNK     1      18.997   1.352  18.840  1.00  0.00     0.011 A 
HETATM   12  C12 UNK     1      19.309   2.390  17.959  1.00  0.00     0.022 A 
ENDROOT
BRANCH   5  13
HETATM   13  C6  UNK     1      18.617  -3.128  14.665  1.00  0.00     0.258 C 
HETATM   14  O2  UNK     1      17.975  -3.356  13.641  1.00  0.00    -0.267 OA
HETATM   15  N1  UNK     1      19.197  -4.071  15.493  1.00  0.00    -0.352 N 
HETATM   16  H4  UNK     1      19.694  -3.780  16.329  1.00  0.00     0.163 HD
BRANCH  15  17
HETATM   17  C5  UNK     1      19.115  -5.493  15.247  1.00  0.00     0.169 C 
BRANCH  17  18
HETATM   18  C7  UNK     1      17.737  -6.030  15.508  1.00  0.00     0.000 A 
HETATM   19  C13 UNK     1      17.004  -5.926  16.654  1.00  0.00     0.017 A 
HETATM   20  C14 UNK     1      15.738  -6.564  16.518  1.00  0.00     0.008 A 
HETATM   21  C15 UNK     1      15.572  -7.122  15.270  1.00  0.00     0.050 A 
HETATM   22  S1  UNK     1      16.939  -6.877  14.268  1.00  0.00    -0.105 SA
ENDBRANCH  17  18
ENDBRANCH  15  17
ENDBRANCH   5  13
TORSDOF 3
ENDMDL
MODEL 7
REMARK VINA RESULT:      -7.5     22.668     24.727
REMARK  3 active torsions:
REMARK  status: ('A' for Active; 'I' for Inactive)
REMARK    1  A    between atoms: C5_11  and  N1_6 
REMARK       I    between atoms: C6_12  and  N1_6 
REMARK    2  A    between atoms: C2_8  and  C6_12 
REMARK    3  A    between atoms: C5_11  and  C7_13 
ROOT
HETATM    1 Br1  UNK     1      16.218  13.981   7.106  1.00  0.00    -0.051 Br
HETATM    2  O1  UNK     1      17.060   8.613   9.804  1.00  0.00    -0.274 OA
HETATM    3  O3  UNK     1      16.249   6.593  10.500  1.00  0.00    -0.259 OA
HETATM    4  C1  UNK     1      15.581  10.174   8.671  1.00  0.00     0.000 A 
HETATM    5  C2  UNK     1      14.717   8.033   9.407  1.00  0.00     0.108 A 
HETATM    6  C3  UNK     1      16.837   9.852   9.173  1.00  0.00     0.089 A 
HETATM    7  C4  UNK     1      14.501   9.209   8.806  1.00  0.00     0.037 A 
HETATM    8  C8  UNK     1      15.399  11.412   8.052  1.00  0.00     0.033 A 
HETATM    9  C9  UNK     1      16.046   7.670   9.949  1.00  0.00     0.304 A 
HETATM   10  C10 UNK     1      17.914  10.731   9.075  1.00  0.00     0.039 A 
HETATM   11  C11 UNK     1      16.470  12.305   7.945  1.00  0.00     0.011 A 
HETATM   12  C12 UNK     1      17.724  11.966   8.455  1.00  0.00     0.022 A 
ENDROOT
BRANCH   5  13
HETATM   13  C6  UNK     1      13.567   7.127   9.495  1.00  0.00     0.258 C 
HETATM   14  O2  UNK     1      12.739   7.246  10.397  1.00  0.00    -0.267 OA
HETATM   15  N1  UNK     1      13.547   6.181   8.487  1.00  0.00    -0.352 N 
HETATM   16  H4  UNK     1      14.290   6.155   7.796  1.00  0.00     0.163 HD
BRANCH  15  17
HETATM   17  C5  UNK     1      12.513   5.178   8.367  1.00  0.00     0.169 C 
BRANCH  17  18
HETATM   18  C7  UNK     1      11.331   5.680   7.589  1.00  0.00     0.000 A 
HETATM   19  C13 UNK     1      11.285   6.024   6.269  1.00  0.00     0.017 A 
HETATM   20  C14 UNK     1       9.981   6.456   5.892  1.00  0.00     0.008 A 
HETATM   21  C15 UNK     1       9.098   6.418   6.948  1.00  0.00     0.050 A 
HETATM   22  S1  UNK     1       9.841   5.864   8.388  1.00  0.00    -0.105 SA
ENDBRANCH  17  18
ENDBRANCH  15  17
ENDBRANCH   5  13
TORSDOF 3
ENDMDL
MODEL 8
REMARK VINA RESULT:      -7.4      6.604      9.733
REMARK  3 active torsions:
REMARK  status: ('A' for Active; 'I' for Inactive)
REMARK    1  A    between atoms: C5_11  and  N1_6 
REMARK       I    between atoms: C6_12  and  N1_6 
REMARK    2  A    between atoms: C2_8  and  C6_12 
REMARK    3  A    between atoms: C5_11  and  C7_13 
ROOT
HETATM    1 Br1  UNK     1      20.593  -0.914  29.025  1.00  0.00    -0.051 Br
HETATM    2  O1  UNK     1      18.609  -0.502  34.743  1.00  0.00    -0.274 OA
HETATM    3  O3  UNK     1      18.478  -1.344  36.864  1.00  0.00    -0.259 OA
HETATM    4  C1  UNK     1      19.859  -1.713  33.046  1.00  0.00     0.000 A 
HETATM    5  C2  UNK     1      19.722  -2.609  35.293  1.00  0.00     0.108 A 
HETATM    6  C3  UNK     1      19.083  -0.622  33.422  1.00  0.00     0.089 A 
HETATM    7  C4  UNK     1      20.174  -2.728  34.039  1.00  0.00     0.037 A 
HETATM    8  C8  UNK     1      20.309  -1.797  31.727  1.00  0.00     0.033 A 
HETATM    9  C9  UNK     1      18.894  -1.457  35.715  1.00  0.00     0.304 A 
HETATM   10  C10 UNK     1      18.746   0.385  32.520  1.00  0.00     0.039 A 
HETATM   11  C11 UNK     1      19.980  -0.795  30.810  1.00  0.00     0.011 A 
HETATM   12  C12 UNK     1      19.200   0.294  31.205  1.00  0.00     0.022 A 
ENDROOT
BRANCH   5  13
HETATM   13  C6  UNK     1      20.092  -3.683  36.222  1.00  0.00     0.258 C 
HETATM   14  O2  UNK     1      21.134  -3.622  36.873  1.00  0.00    -0.267 OA
HETATM   15  N1  UNK     1      19.165  -4.708  36.258  1.00  0.00    -0.352 N 
HETATM   16  H4  UNK     1      18.342  -4.673  35.665  1.00  0.00     0.163 HD
BRANCH  15  17
HETATM   17  C5  UNK     1      19.314  -5.877  37.095  1.00  0.00     0.169 C 
BRANCH  17  18
HETATM   18  C7  UNK     1      20.170  -6.927  36.447  1.00  0.00     0.000 A 
HETATM   19  C13 UNK     1      20.163  -7.321  35.140  1.00  0.00     0.017 A 
HETATM   20  C14 UNK     1      21.122  -8.347  34.903  1.00  0.00     0.008 A 
HETATM   21  C15 UNK     1      21.813  -8.683  36.047  1.00  0.00     0.050 A 
HETATM   22  S1  UNK     1      21.305  -7.763  37.398  1.00  0.00    -0.105 SA
ENDBRANCH  17  18
ENDBRANCH  15  17
ENDBRANCH   5  13
TORSDOF 3
ENDMDL
MODEL 9
REMARK VINA RESULT:      -7.4      3.591      4.342
REMARK  3 active torsions:
REMARK  status: ('A' for Active; 'I' for Inactive)
REMARK    1  A    between atoms: C5_11  and  N1_6 
REMARK       I    between atoms: C6_12  and  N1_6 
REMARK    2  A    between atoms: C2_8  and  C6_12 
REMARK    3  A    between atoms: C5_11  and  C7_13 
ROOT
HETATM    1 Br1  UNK     1      18.208  -0.902  37.956  1.00  0.00    -0.051 Br
HETATM    2  O1  UNK     1      18.340   1.380  32.336  1.00  0.00    -0.274 OA
HETATM    3  O3  UNK     1      18.380   3.176  30.924  1.00  0.00    -0.259 OA
HETATM    4  C1  UNK     1      18.290   1.743  34.739  1.00  0.00     0.000 A 
HETATM    5  C2  UNK     1      18.331   3.650  33.245  1.00  0.00     0.108 A 
HETATM    6  C3  UNK     1      18.310   0.877  33.651  1.00  0.00     0.089 A 
HETATM    7  C4  UNK     1      18.301   3.177  34.497  1.00  0.00     0.037 A 
HETATM    8  C8  UNK     1      18.259   1.206  36.028  1.00  0.00     0.033 A 
HETATM    9  C9  UNK     1      18.352   2.747  32.073  1.00  0.00     0.304 A 
HETATM   10  C10 UNK     1      18.300  -0.507  33.815  1.00  0.00     0.039 A 
HETATM   11  C11 UNK     1      18.250  -0.180  36.208  1.00  0.00     0.011 A 
HETATM   12  C12 UNK     1      18.270  -1.035  35.104  1.00  0.00     0.022 A 
ENDROOT
BRANCH   5  13
HETATM   13  C6  UNK     1      18.341   5.111  33.103  1.00  0.00     0.258 C 
HETATM   14  O2  UNK     1      19.058   5.809  33.818  1.00  0.00    -0.267 OA
HETATM   15  N1  UNK     1      17.485   5.562  32.115  1.00  0.00    -0.352 N 
HETATM   16  H4  UNK     1      16.920   4.902  31.589  1.00  0.00     0.163 HD
BRANCH  15  17
HETATM   17  C5  UNK     1      17.321   6.961  31.792  1.00  0.00     0.169 C 
BRANCH  17  18
HETATM   18  C7  UNK     1      16.256   7.609  32.629  1.00  0.00     0.000 A 
HETATM   19  C13 UNK     1      14.913   7.372  32.601  1.00  0.00     0.017 A 
HETATM   20  C14 UNK     1      14.224   8.184  33.547  1.00  0.00     0.008 A 
HETATM   21  C15 UNK     1      15.082   9.001  34.250  1.00  0.00     0.050 A 
HETATM   22  S1  UNK     1      16.711   8.786  33.769  1.00  0.00    -0.105 SA
ENDBRANCH  17  18
ENDBRANCH  15  17
ENDBRANCH   5  13
TORSDOF 3
ENDMDL
MODEL 10
REMARK VINA RESULT:      -7.3      8.045     10.285
REMARK  3 active torsions:
REMARK  status: ('A' for Active; 'I' for Inactive)
REMARK    1  A    between atoms: C5_11  and  N1_6 
REMARK       I    between atoms: C6_12  and  N1_6 
REMARK    2  A    between atoms: C2_8  and  C6_12 
REMARK    3  A    between atoms: C5_11  and  C7_13 
ROOT
HETATM    1 Br1  UNK     1      23.811 -11.336  36.078  1.00  0.00    -0.051 Br
HETATM    2  O1  UNK     1      18.740  -8.112  36.916  1.00  0.00    -0.274 OA
HETATM    3  O3  UNK     1      17.679  -6.098  37.117  1.00  0.00    -0.259 OA
HETATM    4  C1  UNK     1      21.142  -8.172  36.549  1.00  0.00     0.000 A 
HETATM    5  C2  UNK     1      20.021  -6.035  36.762  1.00  0.00     0.108 A 
HETATM    6  C3  UNK     1      19.932  -8.836  36.719  1.00  0.00     0.089 A 
HETATM    7  C4  UNK     1      21.157  -6.718  36.575  1.00  0.00     0.037 A 
HETATM    8  C8  UNK     1      22.302  -8.925  36.357  1.00  0.00     0.033 A 
HETATM    9  C9  UNK     1      18.722  -6.721  36.946  1.00  0.00     0.304 A 
HETATM   10  C10 UNK     1      19.849 -10.227  36.704  1.00  0.00     0.039 A 
HETATM   11  C11 UNK     1      22.236 -10.322  36.338  1.00  0.00     0.011 A 
HETATM   12  C12 UNK     1      21.012 -10.971  36.511  1.00  0.00     0.022 A 
ENDROOT
BRANCH   5  13
HETATM   13  C6  UNK     1      20.138  -4.572  36.773  1.00  0.00     0.258 C 
HETATM   14  O2  UNK     1      20.487  -3.975  37.790  1.00  0.00    -0.267 OA
HETATM   15  N1  UNK     1      19.819  -3.997  35.557  1.00  0.00    -0.352 N 
HETATM   16  H4  UNK     1      19.524  -4.579  34.779  1.00  0.00     0.163 HD
BRANCH  15  17
HETATM   17  C5  UNK     1      19.856  -2.571  35.325  1.00  0.00     0.169 C 
BRANCH  17  18
HETATM   18  C7  UNK     1      19.950  -2.242  33.862  1.00  0.00     0.000 A 
HETATM   19  C13 UNK     1      20.850  -2.720  32.955  1.00  0.00     0.017 A 
HETATM   20  C14 UNK     1      20.618  -2.175  31.660  1.00  0.00     0.008 A 
HETATM   21  C15 UNK     1      19.548  -1.308  31.647  1.00  0.00     0.050 A 
HETATM   22  S1  UNK     1      18.828  -1.153  33.193  1.00  0.00    -0.105 SA
ENDBRANCH  17  18
ENDBRANCH  15  17
ENDBRANCH   5  13
TORSDOF 3
ENDMDL
