MODEL 1
REMARK VINA RESULT:      -7.4      0.000      0.000
REMARK  4 active torsions:
REMARK  status: ('A' for Active; 'I' for Inactive)
REMARK    1  A    between atoms: C8_14  and  O1_2 
REMARK    2  A    between atoms: C6_12  and  N1_5 
REMARK    3  A    between atoms: C1_7  and  C2_8 
REMARK    4  A    between atoms: C3_9  and  C5_11 
ROOT
HETATM    1  N2  UNK     1      15.924   4.266   9.715  1.00  0.00    -0.191 NA
HETATM    2  C2  UNK     1      12.813   4.883   8.362  1.00  0.00     0.035 C 
HETATM    3  C5  UNK     1      13.800   5.578   8.988  1.00  0.00     0.055 C 
HETATM    4  C15 UNK     1      14.972   4.843   9.387  1.00  0.00     0.100 C 
ENDROOT
BRANCH   3   5
HETATM    5  C3  UNK     1      13.736   7.004   9.266  1.00  0.00    -0.015 A 
HETATM    6  C10 UNK     1      13.225   7.456  10.482  1.00  0.00     0.014 A 
HETATM    7  C12 UNK     1      13.162   8.823  10.748  1.00  0.00     0.024 A 
HETATM    8  C14 UNK     1      13.609   9.740   9.796  1.00  0.00     0.034 A 
HETATM    9  C13 UNK     1      14.119   9.289   8.579  1.00  0.00     0.024 A 
HETATM   10 Cl1  UNK     1      13.531  11.428  10.123  1.00  0.00    -0.084 Cl
HETATM   11  C11 UNK     1      14.182   7.920   8.314  1.00  0.00     0.014 A 
ENDBRANCH   3   5
BRANCH   2  12
HETATM   12  C1  UNK     1      11.534   5.442   7.899  1.00  0.00    -0.032 A 
HETATM   13  C4  UNK     1      10.464   5.519   8.777  1.00  0.00     0.050 A 
HETATM   14  C6  UNK     1       9.251   6.049   8.336  1.00  0.00     0.136 A 
HETATM   15  C8  UNK     1       9.123   6.496   7.021  1.00  0.00     0.098 A 
HETATM   16  C9  UNK     1      10.207   6.412   6.147  1.00  0.00     0.040 A 
HETATM   17  C7  UNK     1      11.419   5.882   6.588  1.00  0.00     0.014 A 
BRANCH  14  18
HETATM   18  N1  UNK     1       8.157   6.126   9.241  1.00  0.00    -0.113 N 
HETATM   19  O2  UNK     1       8.243   6.890  10.232  1.00  0.00    -0.532 OA
HETATM   20  O3  UNK     1       7.138   5.430   9.020  1.00  0.00    -0.532 OA
ENDBRANCH  14  18
BRANCH  15  21
HETATM   21  O1  UNK     1       7.949   7.019   6.567  1.00  0.00    -0.358 OA
HETATM   22  H9  UNK     1       7.842   6.793   5.626  1.00  0.00     0.217 HD
ENDBRANCH  15  21
ENDBRANCH   2  12
TORSDOF 4
ENDMDL
MODEL 2
REMARK VINA RESULT:      -7.4      0.012      1.253
REMARK  4 active torsions:
REMARK  status: ('A' for Active; 'I' for Inactive)
REMARK    1  A    between atoms: C8_14  and  O1_2 
REMARK    2  A    between atoms: C6_12  and  N1_5 
REMARK    3  A    between atoms: C1_7  and  C2_8 
REMARK    4  A    between atoms: C3_9  and  C5_11 
ROOT
HETATM    1  N2  UNK     1      15.926   4.281   9.711  1.00  0.00    -0.191 NA
HETATM    2  C2  UNK     1      12.812   4.892   8.362  1.00  0.00     0.035 C 
HETATM    3  C5  UNK     1      13.799   5.589   8.986  1.00  0.00     0.055 C 
HETATM    4  C15 UNK     1      14.972   4.856   9.384  1.00  0.00     0.100 C 
ENDROOT
BRANCH   3   5
HETATM    5  C3  UNK     1      13.732   7.015   9.263  1.00  0.00    -0.015 A 
HETATM    6  C10 UNK     1      14.182   7.932   8.313  1.00  0.00     0.014 A 
HETATM    7  C12 UNK     1      14.118   9.299   8.579  1.00  0.00     0.024 A 
HETATM    8  C14 UNK     1      13.606   9.750   9.795  1.00  0.00     0.034 A 
HETATM    9  C13 UNK     1      13.157   8.834  10.746  1.00  0.00     0.024 A 
HETATM   10 Cl1  UNK     1      13.528  11.438  10.123  1.00  0.00    -0.084 Cl
HETATM   11  C11 UNK     1      13.220   7.466  10.479  1.00  0.00     0.014 A 
ENDBRANCH   3   5
BRANCH   2  12
HETATM   12  C1  UNK     1      11.532   5.448   7.900  1.00  0.00    -0.032 A 
HETATM   13  C4  UNK     1      10.460   5.517   8.777  1.00  0.00     0.050 A 
HETATM   14  C6  UNK     1       9.246   6.045   8.338  1.00  0.00     0.136 A 
HETATM   15  C8  UNK     1       9.117   6.497   7.025  1.00  0.00     0.098 A 
HETATM   16  C9  UNK     1      10.202   6.422   6.151  1.00  0.00     0.040 A 
HETATM   17  C7  UNK     1      11.416   5.894   6.591  1.00  0.00     0.014 A 
BRANCH  14  18
HETATM   18  N1  UNK     1       8.150   6.114   9.242  1.00  0.00    -0.113 N 
HETATM   19  O2  UNK     1       7.139   5.404   9.024  1.00  0.00    -0.532 OA
HETATM   20  O3  UNK     1       8.228   6.882  10.230  1.00  0.00    -0.532 OA
ENDBRANCH  14  18
BRANCH  15  21
HETATM   21  O1  UNK     1       7.942   7.018   6.572  1.00  0.00    -0.358 OA
HETATM   22  H9  UNK     1       8.104   7.911   6.219  1.00  0.00     0.217 HD
ENDBRANCH  15  21
ENDBRANCH   2  12
TORSDOF 4
ENDMDL
MODEL 3
REMARK VINA RESULT:      -7.0     30.892     32.231
REMARK  4 active torsions:
REMARK  status: ('A' for Active; 'I' for Inactive)
REMARK    1  A    between atoms: C8_14  and  O1_2 
REMARK    2  A    between atoms: C6_12  and  N1_5 
REMARK    3  A    between atoms: C1_7  and  C2_8 
REMARK    4  A    between atoms: C3_9  and  C5_11 
ROOT
HETATM    1  N2  UNK     1      30.228  -2.155  31.378  1.00  0.00    -0.191 NA
HETATM    2  C2  UNK     1      29.445  -5.245  30.063  1.00  0.00     0.035 C 
HETATM    3  C5  UNK     1      29.757  -4.710  31.274  1.00  0.00     0.055 C 
HETATM    4  C15 UNK     1      30.016  -3.294  31.321  1.00  0.00     0.100 C 
ENDROOT
BRANCH   3   5
HETATM    5  C3  UNK     1      29.834  -5.481  32.504  1.00  0.00    -0.015 A 
HETATM    6  C10 UNK     1      31.076  -5.842  33.024  1.00  0.00     0.014 A 
HETATM    7  C12 UNK     1      31.150  -6.583  34.204  1.00  0.00     0.024 A 
HETATM    8  C14 UNK     1      29.982  -6.964  34.862  1.00  0.00     0.034 A 
HETATM    9  C13 UNK     1      28.738  -6.604  34.342  1.00  0.00     0.024 A 
HETATM   10 Cl1  UNK     1      30.072  -7.879  36.317  1.00  0.00    -0.084 Cl
HETATM   11  C11 UNK     1      28.665  -5.863  33.162  1.00  0.00     0.014 A 
ENDBRANCH   3   5
BRANCH   2  12
HETATM   12  C1  UNK     1      29.170  -6.664  29.799  1.00  0.00    -0.032 A 
HETATM   13  C4  UNK     1      30.150  -7.454  29.219  1.00  0.00     0.050 A 
HETATM   14  C6  UNK     1      29.888  -8.802  28.969  1.00  0.00     0.136 A 
HETATM   15  C8  UNK     1      28.647  -9.343  29.303  1.00  0.00     0.098 A 
HETATM   16  C9  UNK     1      27.668  -8.538  29.887  1.00  0.00     0.040 A 
HETATM   17  C7  UNK     1      27.931  -7.192  30.136  1.00  0.00     0.014 A 
BRANCH  14  18
HETATM   18  N1  UNK     1      30.897  -9.608  28.374  1.00  0.00    -0.113 N 
HETATM   19  O2  UNK     1      31.096 -10.761  28.826  1.00  0.00    -0.532 OA
HETATM   20  O3  UNK     1      31.556  -9.143  27.414  1.00  0.00    -0.532 OA
ENDBRANCH  14  18
BRANCH  15  21
HETATM   21  O1  UNK     1      28.366 -10.657  29.071  1.00  0.00    -0.358 OA
HETATM   22  H9  UNK     1      27.489 -10.727  28.655  1.00  0.00     0.217 HD
ENDBRANCH  15  21
ENDBRANCH   2  12
TORSDOF 4
ENDMDL
MODEL 4
REMARK VINA RESULT:      -7.0     23.237     25.193
REMARK  4 active torsions:
REMARK  status: ('A' for Active; 'I' for Inactive)
REMARK    1  A    between atoms: C8_14  and  O1_2 
REMARK    2  A    between atoms: C6_12  and  N1_5 
REMARK    3  A    between atoms: C1_7  and  C2_8 
REMARK    4  A    between atoms: C3_9  and  C5_11 
ROOT
HETATM    1  N2  UNK     1      18.049   2.027  28.153  1.00  0.00    -0.191 NA
HETATM    2  C2  UNK     1      18.869   4.706  30.163  1.00  0.00     0.035 C 
HETATM    3  C5  UNK     1      18.547   3.392  30.309  1.00  0.00     0.055 C 
HETATM    4  C15 UNK     1      18.272   2.645  29.109  1.00  0.00     0.100 C 
ENDROOT
BRANCH   3   5
HETATM    5  C3  UNK     1      18.473   2.714  31.593  1.00  0.00    -0.015 A 
HETATM    6  C10 UNK     1      18.776   1.356  31.683  1.00  0.00     0.014 A 
HETATM    7  C12 UNK     1      18.705   0.706  32.915  1.00  0.00     0.024 A 
HETATM    8  C14 UNK     1      18.329   1.413  34.056  1.00  0.00     0.034 A 
HETATM    9  C13 UNK     1      18.025   2.772  33.967  1.00  0.00     0.024 A 
HETATM   10 Cl1  UNK     1      18.240   0.611  35.577  1.00  0.00    -0.084 Cl
HETATM   11  C11 UNK     1      18.097   3.422  32.734  1.00  0.00     0.014 A 
ENDBRANCH   3   5
BRANCH   2  12
HETATM   12  C1  UNK     1      19.161   5.642  31.258  1.00  0.00    -0.032 A 
HETATM   13  C4  UNK     1      18.152   6.457  31.748  1.00  0.00     0.050 A 
HETATM   14  C6  UNK     1      18.430   7.345  32.787  1.00  0.00     0.136 A 
HETATM   15  C8  UNK     1      19.715   7.408  33.325  1.00  0.00     0.098 A 
HETATM   16  C9  UNK     1      20.722   6.583  32.824  1.00  0.00     0.040 A 
HETATM   17  C7  UNK     1      20.444   5.695  31.785  1.00  0.00     0.014 A 
BRANCH  14  18
HETATM   18  N1  UNK     1      17.391   8.178  33.286  1.00  0.00    -0.113 N 
HETATM   19  O2  UNK     1      16.785   8.934  32.488  1.00  0.00    -0.532 OA
HETATM   20  O3  UNK     1      17.111   8.132  34.507  1.00  0.00    -0.532 OA
ENDBRANCH  14  18
BRANCH  15  21
HETATM   21  O1  UNK     1      20.011   8.266  34.342  1.00  0.00    -0.358 OA
HETATM   22  H9  UNK     1      20.263   7.752  35.129  1.00  0.00     0.217 HD
ENDBRANCH  15  21
ENDBRANCH   2  12
TORSDOF 4
ENDMDL
MODEL 5
REMARK VINA RESULT:      -6.9     28.444     30.264
REMARK  4 active torsions:
REMARK  status: ('A' for Active; 'I' for Inactive)
REMARK    1  A    between atoms: C8_14  and  O1_2 
REMARK    2  A    between atoms: C6_12  and  N1_5 
REMARK    3  A    between atoms: C1_7  and  C2_8 
REMARK    4  A    between atoms: C3_9  and  C5_11 
ROOT
HETATM    1  N2  UNK     1      22.742  -5.690  38.553  1.00  0.00    -0.191 NA
HETATM    2  C2  UNK     1      20.777  -3.235  37.138  1.00  0.00     0.035 C 
HETATM    3  C5  UNK     1      20.788  -4.592  37.236  1.00  0.00     0.055 C 
HETATM    4  C15 UNK     1      21.874  -5.190  37.967  1.00  0.00     0.100 C 
ENDROOT
BRANCH   3   5
HETATM    5  C3  UNK     1      19.770  -5.453  36.655  1.00  0.00    -0.015 A 
HETATM    6  C10 UNK     1      20.063  -6.213  35.523  1.00  0.00     0.014 A 
HETATM    7  C12 UNK     1      19.087  -7.038  34.966  1.00  0.00     0.024 A 
HETATM    8  C14 UNK     1      17.818  -7.103  35.539  1.00  0.00     0.034 A 
HETATM    9  C13 UNK     1      17.524  -6.343  36.671  1.00  0.00     0.024 A 
HETATM   10 Cl1  UNK     1      16.613  -8.122  34.851  1.00  0.00    -0.084 Cl
HETATM   11  C11 UNK     1      18.501  -5.518  37.229  1.00  0.00     0.014 A 
ENDBRANCH   3   5
BRANCH   2  12
HETATM   12  C1  UNK     1      19.773  -2.437  36.419  1.00  0.00    -0.032 A 
HETATM   13  C4  UNK     1      19.897  -2.256  35.050  1.00  0.00     0.050 A 
HETATM   14  C6  UNK     1      18.944  -1.498  34.369  1.00  0.00     0.136 A 
HETATM   15  C8  UNK     1      17.878  -0.929  35.066  1.00  0.00     0.098 A 
HETATM   16  C9  UNK     1      17.765  -1.118  36.444  1.00  0.00     0.040 A 
HETATM   17  C7  UNK     1      18.718  -1.876  37.124  1.00  0.00     0.014 A 
BRANCH  14  18
HETATM   18  N1  UNK     1      19.075  -1.315  32.965  1.00  0.00    -0.113 N 
HETATM   19  O2  UNK     1      20.219  -1.135  32.481  1.00  0.00    -0.532 OA
HETATM   20  O3  UNK     1      18.044  -1.341  32.252  1.00  0.00    -0.532 OA
ENDBRANCH  14  18
BRANCH  15  21
HETATM   21  O1  UNK     1      16.934  -0.186  34.423  1.00  0.00    -0.358 OA
HETATM   22  H9  UNK     1      16.240   0.066  35.058  1.00  0.00     0.217 HD
ENDBRANCH  15  21
ENDBRANCH   2  12
TORSDOF 4
ENDMDL
MODEL 6
REMARK VINA RESULT:      -6.8     12.689     15.168
REMARK  4 active torsions:
REMARK  status: ('A' for Active; 'I' for Inactive)
REMARK    1  A    between atoms: C8_14  and  O1_2 
REMARK    2  A    between atoms: C6_12  and  N1_5 
REMARK    3  A    between atoms: C1_7  and  C2_8 
REMARK    4  A    between atoms: C3_9  and  C5_11 
ROOT
HETATM    1  N2  UNK     1      21.579  -9.229  12.979  1.00  0.00    -0.191 NA
HETATM    2  C2  UNK     1      20.779  -6.067  11.860  1.00  0.00     0.035 C 
HETATM    3  C5  UNK     1      20.369  -6.933  12.825  1.00  0.00     0.055 C 
HETATM    4  C15 UNK     1      21.045  -8.202  12.902  1.00  0.00     0.100 C 
ENDROOT
BRANCH   3   5
HETATM    5  C3  UNK     1      19.304  -6.644  13.773  1.00  0.00    -0.015 A 
HETATM    6  C10 UNK     1      19.612  -6.143  15.037  1.00  0.00     0.014 A 
HETATM    7  C12 UNK     1      18.591  -5.866  15.945  1.00  0.00     0.024 A 
HETATM    8  C14 UNK     1      17.262  -6.093  15.590  1.00  0.00     0.034 A 
HETATM    9  C13 UNK     1      16.953  -6.595  14.326  1.00  0.00     0.024 A 
HETATM   10 Cl1  UNK     1      16.001  -5.752  16.712  1.00  0.00    -0.084 Cl
HETATM   11  C11 UNK     1      17.975  -6.871  13.418  1.00  0.00     0.014 A 
ENDBRANCH   3   5
BRANCH   2  12
HETATM   12  C1  UNK     1      20.206  -4.738  11.603  1.00  0.00    -0.032 A 
HETATM   13  C4  UNK     1      20.487  -3.694  12.471  1.00  0.00     0.050 A 
HETATM   14  C6  UNK     1      19.943  -2.433  12.226  1.00  0.00     0.136 A 
HETATM   15  C8  UNK     1      19.124  -2.231  11.115  1.00  0.00     0.098 A 
HETATM   16  C9  UNK     1      18.848  -3.290  10.250  1.00  0.00     0.040 A 
HETATM   17  C7  UNK     1      19.392  -4.550  10.495  1.00  0.00     0.014 A 
BRANCH  14  18
HETATM   18  N1  UNK     1      20.234  -1.365  13.119  1.00  0.00    -0.113 N 
HETATM   19  O2  UNK     1      21.432  -1.122  13.403  1.00  0.00    -0.532 OA
HETATM   20  O3  UNK     1      19.286  -0.697  13.594  1.00  0.00    -0.532 OA
ENDBRANCH  14  18
BRANCH  15  21
HETATM   21  O1  UNK     1      18.581  -1.008  10.854  1.00  0.00    -0.358 OA
HETATM   22  H9  UNK     1      17.838  -1.115  10.235  1.00  0.00     0.217 HD
ENDBRANCH  15  21
ENDBRANCH   2  12
TORSDOF 4
ENDMDL
MODEL 7
REMARK VINA RESULT:      -6.7     33.920     36.324
REMARK  4 active torsions:
REMARK  status: ('A' for Active; 'I' for Inactive)
REMARK    1  A    between atoms: C8_14  and  O1_2 
REMARK    2  A    between atoms: C6_12  and  N1_5 
REMARK    3  A    between atoms: C1_7  and  C2_8 
REMARK    4  A    between atoms: C3_9  and  C5_11 
ROOT
HETATM    1  N2  UNK     1      25.810 -10.807  36.502  1.00  0.00    -0.191 NA
HETATM    2  C2  UNK     1      28.296  -8.794  37.791  1.00  0.00     0.035 C 
HETATM    3  C5  UNK     1      27.828  -9.168  36.570  1.00  0.00     0.055 C 
HETATM    4  C15 UNK     1      26.711 -10.076  36.543  1.00  0.00     0.100 C 
ENDROOT
BRANCH   3   5
HETATM    5  C3  UNK     1      28.385  -8.700  35.311  1.00  0.00    -0.015 A 
HETATM    6  C10 UNK     1      29.214  -9.535  34.562  1.00  0.00     0.014 A 
HETATM    7  C12 UNK     1      29.749  -9.087  33.355  1.00  0.00     0.024 A 
HETATM    8  C14 UNK     1      29.458  -7.802  32.898  1.00  0.00     0.034 A 
HETATM    9  C13 UNK     1      28.630  -6.966  33.647  1.00  0.00     0.024 A 
HETATM   10 Cl1  UNK     1      30.119  -7.247  31.408  1.00  0.00    -0.084 Cl
HETATM   11  C11 UNK     1      28.094  -7.416  34.854  1.00  0.00     0.014 A 
ENDBRANCH   3   5
BRANCH   2  12
HETATM   12  C1  UNK     1      29.435  -7.897  38.032  1.00  0.00    -0.032 A 
HETATM   13  C4  UNK     1      29.208  -6.547  38.250  1.00  0.00     0.050 A 
HETATM   14  C6  UNK     1      30.290  -5.697  38.479  1.00  0.00     0.136 A 
HETATM   15  C8  UNK     1      31.588  -6.208  38.489  1.00  0.00     0.098 A 
HETATM   16  C9  UNK     1      31.804  -7.568  38.268  1.00  0.00     0.040 A 
HETATM   17  C7  UNK     1      30.722  -8.418  38.039  1.00  0.00     0.014 A 
BRANCH  14  18
HETATM   18  N1  UNK     1      30.052  -4.313  38.701  1.00  0.00    -0.113 N 
HETATM   19  O2  UNK     1      29.615  -3.945  39.818  1.00  0.00    -0.532 OA
HETATM   20  O3  UNK     1      30.287  -3.501  37.775  1.00  0.00    -0.532 OA
ENDBRANCH  14  18
BRANCH  15  21
HETATM   21  O1  UNK     1      32.662  -5.398  38.712  1.00  0.00    -0.358 OA
HETATM   22  H9  UNK     1      33.466  -5.839  38.386  1.00  0.00     0.217 HD
ENDBRANCH  15  21
ENDBRANCH   2  12
TORSDOF 4
ENDMDL
MODEL 8
REMARK VINA RESULT:      -6.7     35.438     37.342
REMARK  4 active torsions:
REMARK  status: ('A' for Active; 'I' for Inactive)
REMARK    1  A    between atoms: C8_14  and  O1_2 
REMARK    2  A    between atoms: C6_12  and  N1_5 
REMARK    3  A    between atoms: C1_7  and  C2_8 
REMARK    4  A    between atoms: C3_9  and  C5_11 
ROOT
HETATM    1  N2  UNK     1      29.040  -3.585  39.817  1.00  0.00    -0.191 NA
HETATM    2  C2  UNK     1      31.888  -4.754  38.263  1.00  0.00     0.035 C 
HETATM    3  C5  UNK     1      30.566  -5.069  38.324  1.00  0.00     0.055 C 
HETATM    4  C15 UNK     1      29.730  -4.242  39.154  1.00  0.00     0.100 C 
ENDROOT
BRANCH   3   5
HETATM    5  C3  UNK     1      29.964  -6.178  37.601  1.00  0.00    -0.015 A 
HETATM    6  C10 UNK     1      29.736  -7.392  38.249  1.00  0.00     0.014 A 
HETATM    7  C12 UNK     1      29.159  -8.455  37.555  1.00  0.00     0.024 A 
HETATM    8  C14 UNK     1      28.812  -8.306  36.213  1.00  0.00     0.034 A 
HETATM    9  C13 UNK     1      29.041  -7.092  35.564  1.00  0.00     0.024 A 
HETATM   10 Cl1  UNK     1      28.101  -9.618  35.356  1.00  0.00    -0.084 Cl
HETATM   11  C11 UNK     1      29.617  -6.028  36.258  1.00  0.00     0.014 A 
ENDBRANCH   3   5
BRANCH   2  12
HETATM   12  C1  UNK     1      32.907  -5.484  37.495  1.00  0.00    -0.032 A 
HETATM   13  C4  UNK     1      33.361  -4.961  36.294  1.00  0.00     0.050 A 
HETATM   14  C6  UNK     1      34.329  -5.655  35.566  1.00  0.00     0.136 A 
HETATM   15  C8  UNK     1      34.831  -6.863  36.048  1.00  0.00     0.098 A 
HETATM   16  C9  UNK     1      34.366  -7.378  37.259  1.00  0.00     0.040 A 
HETATM   17  C7  UNK     1      33.399  -6.685  37.986  1.00  0.00     0.014 A 
BRANCH  14  18
HETATM   18  N1  UNK     1      34.791  -5.115  34.334  1.00  0.00    -0.113 N 
HETATM   19  O2  UNK     1      35.136  -5.902  33.419  1.00  0.00    -0.532 OA
HETATM   20  O3  UNK     1      34.839  -3.870  34.198  1.00  0.00    -0.532 OA
ENDBRANCH  14  18
BRANCH  15  21
HETATM   21  O1  UNK     1      35.778  -7.558  35.357  1.00  0.00    -0.358 OA
HETATM   22  H9  UNK     1      36.183  -6.972  34.694  1.00  0.00     0.217 HD
ENDBRANCH  15  21
ENDBRANCH   2  12
TORSDOF 4
ENDMDL
MODEL 9
REMARK VINA RESULT:      -6.7     33.458     35.752
REMARK  4 active torsions:
REMARK  status: ('A' for Active; 'I' for Inactive)
REMARK    1  A    between atoms: C8_14  and  O1_2 
REMARK    2  A    between atoms: C6_12  and  N1_5 
REMARK    3  A    between atoms: C1_7  and  C2_8 
REMARK    4  A    between atoms: C3_9  and  C5_11 
ROOT
HETATM    1  N2  UNK     1      31.753 -11.117  35.557  1.00  0.00    -0.191 NA
HETATM    2  C2  UNK     1      29.886  -8.801  37.302  1.00  0.00     0.035 C 
HETATM    3  C5  UNK     1      30.273  -9.030  36.018  1.00  0.00     0.055 C 
HETATM    4  C15 UNK     1      31.092 -10.188  35.773  1.00  0.00     0.100 C 
ENDROOT
BRANCH   3   5
HETATM    5  C3  UNK     1      29.900  -8.181  34.897  1.00  0.00    -0.015 A 
HETATM    6  C10 UNK     1      30.715  -7.110  34.533  1.00  0.00     0.014 A 
HETATM    7  C12 UNK     1      30.358  -6.295  33.459  1.00  0.00     0.024 A 
HETATM    8  C14 UNK     1      29.185  -6.551  32.750  1.00  0.00     0.034 A 
HETATM    9  C13 UNK     1      28.369  -7.622  33.114  1.00  0.00     0.024 A 
HETATM   10 Cl1  UNK     1      28.744  -5.546  31.424  1.00  0.00    -0.084 Cl
HETATM   11  C11 UNK     1      28.727  -8.437  34.188  1.00  0.00     0.014 A 
ENDBRANCH   3   5
BRANCH   2  12
HETATM   12  C1  UNK     1      29.071  -7.668  37.761  1.00  0.00    -0.032 A 
HETATM   13  C4  UNK     1      29.685  -6.461  38.058  1.00  0.00     0.050 A 
HETATM   14  C6  UNK     1      28.910  -5.385  38.494  1.00  0.00     0.136 A 
HETATM   15  C8  UNK     1      27.530  -5.530  38.629  1.00  0.00     0.098 A 
HETATM   16  C9  UNK     1      26.923  -6.750  38.327  1.00  0.00     0.040 A 
HETATM   17  C7  UNK     1      27.698  -7.824  37.891  1.00  0.00     0.014 A 
BRANCH  14  18
HETATM   18  N1  UNK     1      29.545  -4.149  38.798  1.00  0.00    -0.113 N 
HETATM   19  O2  UNK     1      29.463  -3.697  39.965  1.00  0.00    -0.532 OA
HETATM   20  O3  UNK     1      30.168  -3.549  37.890  1.00  0.00    -0.532 OA
ENDBRANCH  14  18
BRANCH  15  21
HETATM   21  O1  UNK     1      26.751  -4.494  39.052  1.00  0.00    -0.358 OA
HETATM   22  H9  UNK     1      26.009  -4.846  39.574  1.00  0.00     0.217 HD
ENDBRANCH  15  21
ENDBRANCH   2  12
TORSDOF 4
ENDMDL
MODEL 10
REMARK VINA RESULT:      -6.7      4.103      5.872
REMARK  4 active torsions:
REMARK  status: ('A' for Active; 'I' for Inactive)
REMARK    1  A    between atoms: C8_14  and  O1_2 
REMARK    2  A    between atoms: C6_12  and  N1_5 
REMARK    3  A    between atoms: C1_7  and  C2_8 
REMARK    4  A    between atoms: C3_9  and  C5_11 
ROOT
HETATM    1  N2  UNK     1      15.788   3.691   9.924  1.00  0.00    -0.191 NA
HETATM    2  C2  UNK     1      15.081   7.051  10.243  1.00  0.00     0.035 C 
HETATM    3  C5  UNK     1      14.561   5.962   9.614  1.00  0.00     0.055 C 
HETATM    4  C15 UNK     1      15.248   4.710   9.791  1.00  0.00     0.100 C 
ENDROOT
BRANCH   3   5
HETATM    5  C3  UNK     1      13.364   5.999   8.790  1.00  0.00    -0.015 A 
HETATM    6  C10 UNK     1      12.143   5.575   9.315  1.00  0.00     0.014 A 
HETATM    7  C12 UNK     1      10.994   5.609   8.525  1.00  0.00     0.024 A 
HETATM    8  C14 UNK     1      11.066   6.065   7.210  1.00  0.00     0.034 A 
HETATM    9  C13 UNK     1      12.287   6.489   6.683  1.00  0.00     0.024 A 
HETATM   10 Cl1  UNK     1       9.649   6.108   6.234  1.00  0.00    -0.084 Cl
HETATM   11  C11 UNK     1      13.436   6.455   7.474  1.00  0.00     0.014 A 
ENDBRANCH   3   5
BRANCH   2  12
HETATM   12  C1  UNK     1      14.545   8.418  10.171  1.00  0.00    -0.032 A 
HETATM   13  C4  UNK     1      15.164   9.352   9.355  1.00  0.00     0.050 A 
HETATM   14  C6  UNK     1      14.655  10.649   9.287  1.00  0.00     0.136 A 
HETATM   15  C8  UNK     1      13.532  10.997  10.038  1.00  0.00     0.098 A 
HETATM   16  C9  UNK     1      12.918  10.048  10.856  1.00  0.00     0.040 A 
HETATM   17  C7  UNK     1      13.428   8.752  10.923  1.00  0.00     0.014 A 
BRANCH  14  18
HETATM   18  N1  UNK     1      15.294  11.604   8.449  1.00  0.00    -0.113 N 
HETATM   19  O2  UNK     1      15.706  12.676   8.955  1.00  0.00    -0.532 OA
HETATM   20  O3  UNK     1      15.427  11.346   7.229  1.00  0.00    -0.532 OA
ENDBRANCH  14  18
BRANCH  15  21
HETATM   21  O1  UNK     1      13.015  12.257   9.988  1.00  0.00    -0.358 OA
HETATM   22  H9  UNK     1      13.744  12.902  10.008  1.00  0.00     0.217 HD
ENDBRANCH  15  21
ENDBRANCH   2  12
TORSDOF 4
ENDMDL
