MODEL 1
REMARK VINA RESULT:      -9.3      0.000      0.000
REMARK  3 active torsions:
REMARK  status: ('A' for Active; 'I' for Inactive)
REMARK       I    between atoms: C11_18  and  N2_7 
REMARK    1  A    between atoms: C19_26  and  N2_7 
REMARK    2  A    between atoms: C1_8  and  C10_17 
REMARK    3  A    between atoms: C11_18  and  C6_13 
ROOT
HETATM    1  O1  UNK     1      31.476  -5.375  36.770  1.00  0.00    -0.293 OA
HETATM    2  N1  UNK     1      34.146  -8.688  34.681  1.00  0.00    -0.362 N 
HETATM    3  C1  UNK     1      31.504  -7.754  35.139  1.00  0.00     0.104 C 
HETATM    4  C2  UNK     1      32.745  -7.095  35.735  1.00  0.00     0.024 C 
HETATM    5  C3  UNK     1      33.979  -7.588  35.500  1.00  0.00     0.020 C 
HETATM    6  C4  UNK     1      35.237  -6.972  36.055  1.00  0.00     0.058 C 
HETATM    7  C5  UNK     1      35.048  -5.508  36.436  1.00  0.00     0.014 C 
HETATM    8  C6  UNK     1      31.847  -8.862  34.142  1.00  0.00     0.045 C 
HETATM    9  C7  UNK     1      33.807  -5.325  37.290  1.00  0.00     0.084 C 
HETATM   10  C8  UNK     1      32.584  -5.880  36.593  1.00  0.00     0.158 C 
HETATM   11  C9  UNK     1      33.118  -9.295  33.975  1.00  0.00     0.018 C 
HETATM   12  C13 UNK     1      33.548 -10.409  33.059  1.00  0.00     0.069 C 
HETATM   13  H8  UNK     1      35.087  -9.029  34.529  1.00  0.00     0.165 HD
ENDROOT
BRANCH   3  14
HETATM   14  C10 UNK     1      30.620  -8.298  36.229  1.00  0.00     0.029 A 
HETATM   15  C12 UNK     1      29.227  -7.794  36.328  1.00  0.00     0.194 A 
HETATM   16  O4  UNK     1      28.781  -6.956  35.555  1.00  0.00    -0.287 OA
HETATM   17  C15 UNK     1      28.404  -8.359  37.415  1.00  0.00     0.050 A 
HETATM   18  C16 UNK     1      28.965  -9.311  38.266  1.00  0.00     0.089 A 
HETATM   19  C17 UNK     1      27.079  -7.949  37.592  1.00  0.00     0.042 A 
HETATM   20  O2  UNK     1      30.259  -9.749  38.137  1.00  0.00    -0.321 OA
HETATM   21  C18 UNK     1      28.205  -9.859  39.299  1.00  0.00     0.040 A 
HETATM   22  C14 UNK     1      31.013  -9.214  37.122  1.00  0.00     0.154 A 
HETATM   23  C21 UNK     1      26.882  -9.451  39.479  1.00  0.00     0.026 A 
HETATM   24  C20 UNK     1      26.321  -8.499  38.626  1.00  0.00     0.035 A 
HETATM   25 Cl1  UNK     1      24.690  -8.001  38.853  1.00  0.00    -0.084 Cl
ENDBRANCH   3  14
BRANCH   8  26
HETATM   26  C11 UNK     1      30.734  -9.391  33.334  1.00  0.00     0.255 C 
HETATM   27  O3  UNK     1      30.098 -10.359  33.740  1.00  0.00    -0.268 OA
HETATM   28  N2  UNK     1      30.559  -8.674  32.160  1.00  0.00    -0.323 N 
HETATM   29  H13 UNK     1      31.180  -7.886  31.990  1.00  0.00     0.169 HD
BRANCH  28  30
HETATM   30  C19 UNK     1      29.590  -8.899  31.152  1.00  0.00     0.035 A 
HETATM   31  C22 UNK     1      28.332  -8.336  31.286  1.00  0.00     0.029 A 
HETATM   32  C24 UNK     1      27.378  -8.557  30.293  1.00  0.00     0.002 A 
HETATM   33  C26 UNK     1      27.696  -9.336  29.180  1.00  0.00     0.000 A 
HETATM   34  C25 UNK     1      28.969  -9.896  29.062  1.00  0.00     0.002 A 
HETATM   35  C23 UNK     1      29.923  -9.676  30.056  1.00  0.00     0.029 A 
ENDBRANCH  28  30
ENDBRANCH   8  26
TORSDOF 3
ENDMDL
MODEL 2
REMARK VINA RESULT:      -9.1      2.840      5.956
REMARK  3 active torsions:
REMARK  status: ('A' for Active; 'I' for Inactive)
REMARK       I    between atoms: C11_18  and  N2_7 
REMARK    1  A    between atoms: C19_26  and  N2_7 
REMARK    2  A    between atoms: C1_8  and  C10_17 
REMARK    3  A    between atoms: C11_18  and  C6_13 
ROOT
HETATM    1  O1  UNK     1      34.691  -8.992  32.055  1.00  0.00    -0.293 OA
HETATM    2  N1  UNK     1      34.357  -7.284  36.464  1.00  0.00    -0.362 N 
HETATM    3  C1  UNK     1      33.075  -8.803  34.437  1.00  0.00     0.104 C 
HETATM    4  C2  UNK     1      34.432  -8.131  34.253  1.00  0.00     0.024 C 
HETATM    5  C3  UNK     1      34.993  -7.405  35.243  1.00  0.00     0.020 C 
HETATM    6  C4  UNK     1      36.333  -6.728  35.118  1.00  0.00     0.058 C 
HETATM    7  C5  UNK     1      37.200  -7.352  34.031  1.00  0.00     0.014 C 
HETATM    8  C6  UNK     1      32.562  -8.711  35.875  1.00  0.00     0.045 C 
HETATM    9  C7  UNK     1      36.424  -7.496  32.734  1.00  0.00     0.084 C 
HETATM   10  C8  UNK     1      35.151  -8.284  32.950  1.00  0.00     0.158 C 
HETATM   11  C9  UNK     1      33.190  -7.952  36.803  1.00  0.00     0.018 C 
HETATM   12  C13 UNK     1      32.736  -7.758  38.224  1.00  0.00     0.069 C 
HETATM   13  H8  UNK     1      34.808  -6.731  37.182  1.00  0.00     0.165 HD
ENDROOT
BRANCH   3  14
HETATM   14  C10 UNK     1      32.063  -8.217  33.490  1.00  0.00     0.029 A 
HETATM   15  C12 UNK     1      31.333  -9.134  32.577  1.00  0.00     0.194 A 
HETATM   16  O4  UNK     1      31.530 -10.341  32.573  1.00  0.00    -0.287 OA
HETATM   17  C15 UNK     1      30.353  -8.508  31.669  1.00  0.00     0.050 A 
HETATM   18  C16 UNK     1      30.170  -7.125  31.718  1.00  0.00     0.089 A 
HETATM   19  C17 UNK     1      29.616  -9.284  30.772  1.00  0.00     0.042 A 
HETATM   20  O2  UNK     1      30.866  -6.315  32.579  1.00  0.00    -0.321 OA
HETATM   21  C18 UNK     1      29.249  -6.512  30.869  1.00  0.00     0.040 A 
HETATM   22  C14 UNK     1      31.776  -6.912  33.417  1.00  0.00     0.154 A 
HETATM   23  C21 UNK     1      28.511  -7.286  29.971  1.00  0.00     0.026 A 
HETATM   24  C20 UNK     1      28.694  -8.668  29.924  1.00  0.00     0.035 A 
HETATM   25 Cl1  UNK     1      27.781  -9.616  28.815  1.00  0.00    -0.084 Cl
ENDBRANCH   3  14
BRANCH   8  26
HETATM   26  C11 UNK     1      31.386  -9.532  36.210  1.00  0.00     0.255 C 
HETATM   27  O3  UNK     1      31.485 -10.755  36.223  1.00  0.00    -0.268 OA
HETATM   28  N2  UNK     1      30.269  -8.755  36.477  1.00  0.00    -0.323 N 
HETATM   29  H13 UNK     1      30.374  -7.744  36.428  1.00  0.00     0.169 HD
BRANCH  28  30
HETATM   30  C19 UNK     1      28.974  -9.204  36.833  1.00  0.00     0.035 A 
HETATM   31  C22 UNK     1      28.643  -9.319  38.173  1.00  0.00     0.029 A 
HETATM   32  C24 UNK     1      27.368  -9.760  38.523  1.00  0.00     0.002 A 
HETATM   33  C26 UNK     1      26.442 -10.079  37.530  1.00  0.00     0.000 A 
HETATM   34  C25 UNK     1      26.793  -9.956  36.185  1.00  0.00     0.002 A 
HETATM   35  C23 UNK     1      28.069  -9.516  35.834  1.00  0.00     0.029 A 
ENDBRANCH  28  30
ENDBRANCH   8  26
TORSDOF 3
ENDMDL
MODEL 3
REMARK VINA RESULT:      -9.1      2.653      6.042
REMARK  3 active torsions:
REMARK  status: ('A' for Active; 'I' for Inactive)
REMARK       I    between atoms: C11_18  and  N2_7 
REMARK    1  A    between atoms: C19_26  and  N2_7 
REMARK    2  A    between atoms: C1_8  and  C10_17 
REMARK    3  A    between atoms: C11_18  and  C6_13 
ROOT
HETATM    1  O1  UNK     1      33.724  -8.797  33.300  1.00  0.00    -0.293 OA
HETATM    2  N1  UNK     1      33.961  -5.677  36.861  1.00  0.00    -0.362 N 
HETATM    3  C1  UNK     1      32.270  -7.392  35.357  1.00  0.00     0.104 C 
HETATM    4  C2  UNK     1      33.757  -7.208  35.065  1.00  0.00     0.024 C 
HETATM    5  C3  UNK     1      34.515  -6.368  35.800  1.00  0.00     0.020 C 
HETATM    6  C4  UNK     1      35.988  -6.157  35.561  1.00  0.00     0.058 C 
HETATM    7  C5  UNK     1      36.626  -7.319  34.809  1.00  0.00     0.014 C 
HETATM    8  C6  UNK     1      31.830  -6.686  36.640  1.00  0.00     0.045 C 
HETATM    9  C7  UNK     1      35.816  -7.680  33.578  1.00  0.00     0.084 C 
HETATM   10  C8  UNK     1      34.379  -7.978  33.943  1.00  0.00     0.158 C 
HETATM   11  C9  UNK     1      32.662  -5.855  37.311  1.00  0.00     0.018 C 
HETATM   12  C13 UNK     1      32.307  -5.078  38.550  1.00  0.00     0.069 C 
HETATM   13  H8  UNK     1      34.562  -5.056  37.388  1.00  0.00     0.165 HD
ENDROOT
BRANCH   3  14
HETATM   14  C10 UNK     1      31.441  -6.912  34.196  1.00  0.00     0.029 A 
HETATM   15  C12 UNK     1      30.524  -7.875  33.535  1.00  0.00     0.194 A 
HETATM   16  O4  UNK     1      30.424  -9.037  33.904  1.00  0.00    -0.287 OA
HETATM   17  C15 UNK     1      29.736  -7.354  32.401  1.00  0.00     0.050 A 
HETATM   18  C16 UNK     1      29.891  -6.020  32.024  1.00  0.00     0.089 A 
HETATM   19  C17 UNK     1      28.845  -8.182  31.713  1.00  0.00     0.042 A 
HETATM   20  O2  UNK     1      30.750  -5.164  32.664  1.00  0.00    -0.321 OA
HETATM   21  C18 UNK     1      29.155  -5.506  30.956  1.00  0.00     0.040 A 
HETATM   22  C14 UNK     1      31.478  -5.663  33.717  1.00  0.00     0.154 A 
HETATM   23  C21 UNK     1      28.265  -6.331  30.267  1.00  0.00     0.026 A 
HETATM   24  C20 UNK     1      28.110  -7.665  30.646  1.00  0.00     0.035 A 
HETATM   25 Cl1  UNK     1      27.010  -8.676  29.791  1.00  0.00    -0.084 Cl
ENDBRANCH   3  14
BRANCH   8  26
HETATM   26  C11 UNK     1      30.480  -7.000  37.137  1.00  0.00     0.255 C 
HETATM   27  O3  UNK     1      29.748  -6.092  37.518  1.00  0.00    -0.268 OA
HETATM   28  N2  UNK     1      30.218  -8.361  37.103  1.00  0.00    -0.323 N 
HETATM   29  H13 UNK     1      30.947  -8.974  36.744  1.00  0.00     0.169 HD
BRANCH  28  30
HETATM   30  C19 UNK     1      29.029  -9.019  37.501  1.00  0.00     0.035 A 
HETATM   31  C22 UNK     1      28.894  -9.431  38.817  1.00  0.00     0.029 A 
HETATM   32  C24 UNK     1      27.723 -10.078  39.210  1.00  0.00     0.002 A 
HETATM   33  C26 UNK     1      26.704 -10.301  38.284  1.00  0.00     0.000 A 
HETATM   34  C25 UNK     1      26.857  -9.879  36.964  1.00  0.00     0.002 A 
HETATM   35  C23 UNK     1      28.029  -9.232  36.569  1.00  0.00     0.029 A 
ENDBRANCH  28  30
ENDBRANCH   8  26
TORSDOF 3
ENDMDL
MODEL 4
REMARK VINA RESULT:      -8.8      3.714      5.947
REMARK  3 active torsions:
REMARK  status: ('A' for Active; 'I' for Inactive)
REMARK       I    between atoms: C11_18  and  N2_7 
REMARK    1  A    between atoms: C19_26  and  N2_7 
REMARK    2  A    between atoms: C1_8  and  C10_17 
REMARK    3  A    between atoms: C11_18  and  C6_13 
ROOT
HETATM    1  O1  UNK     1      32.444  -8.555  37.203  1.00  0.00    -0.293 OA
HETATM    2  N1  UNK     1      29.183  -5.818  35.118  1.00  0.00    -0.362 N 
HETATM    3  C1  UNK     1      30.787  -8.149  34.877  1.00  0.00     0.104 C 
HETATM    4  C2  UNK     1      30.846  -7.207  36.077  1.00  0.00     0.024 C 
HETATM    5  C3  UNK     1      30.073  -6.102  36.137  1.00  0.00     0.020 C 
HETATM    6  C4  UNK     1      30.085  -5.144  37.300  1.00  0.00     0.058 C 
HETATM    7  C5  UNK     1      30.615  -5.788  38.576  1.00  0.00     0.014 C 
HETATM    8  C6  UNK     1      29.661  -7.795  33.905  1.00  0.00     0.045 C 
HETATM    9  C7  UNK     1      31.927  -6.507  38.317  1.00  0.00     0.084 C 
HETATM   10  C8  UNK     1      31.777  -7.521  37.205  1.00  0.00     0.158 C 
HETATM   11  C9  UNK     1      28.939  -6.658  34.043  1.00  0.00     0.018 C 
HETATM   12  C13 UNK     1      27.849  -6.199  33.113  1.00  0.00     0.069 C 
HETATM   13  H8  UNK     1      28.621  -4.980  35.199  1.00  0.00     0.165 HD
ENDROOT
BRANCH   3  14
HETATM   14  C10 UNK     1      32.107  -8.164  34.154  1.00  0.00     0.029 A 
HETATM   15  C12 UNK     1      32.821  -9.458  34.011  1.00  0.00     0.194 A 
HETATM   16  O4  UNK     1      32.372 -10.503  34.462  1.00  0.00    -0.287 OA
HETATM   17  C15 UNK     1      34.110  -9.417  33.295  1.00  0.00     0.050 A 
HETATM   18  C16 UNK     1      34.574  -8.197  32.802  1.00  0.00     0.089 A 
HETATM   19  C17 UNK     1      34.859 -10.582  33.108  1.00  0.00     0.042 A 
HETATM   20  O2  UNK     1      33.880  -7.023  32.956  1.00  0.00    -0.321 OA
HETATM   21  C18 UNK     1      35.790  -8.135  32.121  1.00  0.00     0.040 A 
HETATM   22  C14 UNK     1      32.682  -7.077  33.626  1.00  0.00     0.154 A 
HETATM   23  C21 UNK     1      36.540  -9.297  31.934  1.00  0.00     0.026 A 
HETATM   24  C20 UNK     1      36.075 -10.517  32.426  1.00  0.00     0.035 A 
HETATM   25 Cl1  UNK     1      37.005 -11.946  32.191  1.00  0.00    -0.084 Cl
ENDBRANCH   3  14
BRANCH   8  26
HETATM   26  C11 UNK     1      29.367  -8.778  32.849  1.00  0.00     0.255 C 
HETATM   27  O3  UNK     1      28.974  -9.899  33.158  1.00  0.00    -0.268 OA
HETATM   28  N2  UNK     1      29.592  -8.262  31.582  1.00  0.00    -0.323 N 
HETATM   29  H13 UNK     1      29.912  -7.298  31.513  1.00  0.00     0.169 HD
BRANCH  28  30
HETATM   30  C19 UNK     1      29.415  -8.921  30.341  1.00  0.00     0.035 A 
HETATM   31  C22 UNK     1      28.134  -9.093  29.844  1.00  0.00     0.029 A 
HETATM   32  C24 UNK     1      27.959  -9.741  28.622  1.00  0.00     0.002 A 
HETATM   33  C26 UNK     1      29.067 -10.207  27.914  1.00  0.00     0.000 A 
HETATM   34  C25 UNK     1      30.350 -10.025  28.430  1.00  0.00     0.002 A 
HETATM   35  C23 UNK     1      30.526  -9.377  29.653  1.00  0.00     0.029 A 
ENDBRANCH  28  30
ENDBRANCH   8  26
TORSDOF 3
ENDMDL
MODEL 5
REMARK VINA RESULT:      -8.7      3.273      6.002
REMARK  3 active torsions:
REMARK  status: ('A' for Active; 'I' for Inactive)
REMARK       I    between atoms: C11_18  and  N2_7 
REMARK    1  A    between atoms: C19_26  and  N2_7 
REMARK    2  A    between atoms: C1_8  and  C10_17 
REMARK    3  A    between atoms: C11_18  and  C6_13 
ROOT
HETATM    1  O1  UNK     1      32.441  -8.666  36.648  1.00  0.00    -0.293 OA
HETATM    2  N1  UNK     1      28.925  -6.026  38.416  1.00  0.00    -0.362 N 
HETATM    3  C1  UNK     1      29.618  -8.502  37.212  1.00  0.00     0.104 C 
HETATM    4  C2  UNK     1      30.622  -7.383  37.474  1.00  0.00     0.024 C 
HETATM    5  C3  UNK     1      30.239  -6.217  38.035  1.00  0.00     0.020 C 
HETATM    6  C4  UNK     1      31.190  -5.084  38.323  1.00  0.00     0.058 C 
HETATM    7  C5  UNK     1      32.637  -5.552  38.423  1.00  0.00     0.014 C 
HETATM    8  C6  UNK     1      28.242  -8.212  37.815  1.00  0.00     0.045 C 
HETATM    9  C7  UNK     1      33.009  -6.423  37.236  1.00  0.00     0.084 C 
HETATM   10  C8  UNK     1      32.056  -7.590  37.101  1.00  0.00     0.158 C 
HETATM   11  C9  UNK     1      27.947  -7.007  38.355  1.00  0.00     0.018 C 
HETATM   12  C13 UNK     1      26.613  -6.609  38.926  1.00  0.00     0.069 C 
HETATM   13  H8  UNK     1      28.675  -5.137  38.833  1.00  0.00     0.165 HD
ENDROOT
BRANCH   3  14
HETATM   14  C10 UNK     1      29.488  -8.759  35.735  1.00  0.00     0.029 A 
HETATM   15  C12 UNK     1      28.931  -7.685  34.874  1.00  0.00     0.194 A 
HETATM   16  O4  UNK     1      28.578  -6.605  35.329  1.00  0.00    -0.287 OA
HETATM   17  C15 UNK     1      28.824  -7.989  33.435  1.00  0.00     0.050 A 
HETATM   18  C16 UNK     1      29.243  -9.238  32.973  1.00  0.00     0.089 A 
HETATM   19  C17 UNK     1      28.313  -7.044  32.542  1.00  0.00     0.042 A 
HETATM   20  O2  UNK     1      29.753 -10.203  33.804  1.00  0.00    -0.321 OA
HETATM   21  C18 UNK     1      29.151  -9.547  31.616  1.00  0.00     0.040 A 
HETATM   22  C14 UNK     1      29.845  -9.905  35.142  1.00  0.00     0.154 A 
HETATM   23  C21 UNK     1      28.641  -8.604  30.722  1.00  0.00     0.026 A 
HETATM   24  C20 UNK     1      28.223  -7.356  31.185  1.00  0.00     0.035 A 
HETATM   25 Cl1  UNK     1      27.595  -6.198  30.078  1.00  0.00    -0.084 Cl
ENDBRANCH   3  14
BRANCH   8  26
HETATM   26  C11 UNK     1      27.280  -9.326  37.829  1.00  0.00     0.255 C 
HETATM   27  O3  UNK     1      27.365 -10.190  38.697  1.00  0.00    -0.268 OA
HETATM   28  N2  UNK     1      26.361  -9.231  36.795  1.00  0.00    -0.323 N 
HETATM   29  H13 UNK     1      26.436  -8.433  36.167  1.00  0.00     0.169 HD
BRANCH  28  30
HETATM   30  C19 UNK     1      25.299 -10.121  36.504  1.00  0.00     0.035 A 
HETATM   31  C22 UNK     1      25.586 -11.446  36.218  1.00  0.00     0.029 A 
HETATM   32  C24 UNK     1      24.540 -12.322  35.932  1.00  0.00     0.002 A 
HETATM   33  C26 UNK     1      23.223 -11.863  35.938  1.00  0.00     0.000 A 
HETATM   34  C25 UNK     1      22.952 -10.526  36.229  1.00  0.00     0.002 A 
HETATM   35  C23 UNK     1      23.998  -9.648  36.514  1.00  0.00     0.029 A 
ENDBRANCH  28  30
ENDBRANCH   8  26
TORSDOF 3
ENDMDL
MODEL 6
REMARK VINA RESULT:      -8.6      3.114      6.090
REMARK  3 active torsions:
REMARK  status: ('A' for Active; 'I' for Inactive)
REMARK       I    between atoms: C11_18  and  N2_7 
REMARK    1  A    between atoms: C19_26  and  N2_7 
REMARK    2  A    between atoms: C1_8  and  C10_17 
REMARK    3  A    between atoms: C11_18  and  C6_13 
ROOT
HETATM    1  O1  UNK     1      30.946  -9.956  36.983  1.00  0.00    -0.293 OA
HETATM    2  N1  UNK     1      27.971  -6.644  35.356  1.00  0.00    -0.362 N 
HETATM    3  C1  UNK     1      30.154  -8.346  34.725  1.00  0.00     0.104 C 
HETATM    4  C2  UNK     1      29.522  -8.268  36.111  1.00  0.00     0.024 C 
HETATM    5  C3  UNK     1      28.495  -7.429  36.365  1.00  0.00     0.020 C 
HETATM    6  C4  UNK     1      27.829  -7.318  37.712  1.00  0.00     0.058 C 
HETATM    7  C5  UNK     1      28.045  -8.559  38.571  1.00  0.00     0.014 C 
HETATM    8  C6  UNK     1      29.383  -7.539  33.679  1.00  0.00     0.045 C 
HETATM    9  C7  UNK     1      29.512  -8.947  38.604  1.00  0.00     0.084 C 
HETATM   10  C8  UNK     1      30.054  -9.139  37.205  1.00  0.00     0.158 C 
HETATM   11  C9  UNK     1      28.365  -6.718  34.028  1.00  0.00     0.018 C 
HETATM   12  C13 UNK     1      27.581  -5.849  33.084  1.00  0.00     0.069 C 
HETATM   13  H8  UNK     1      27.201  -6.027  35.585  1.00  0.00     0.165 HD
ENDROOT
BRANCH   3  14
HETATM   14  C10 UNK     1      31.588  -7.891  34.771  1.00  0.00     0.029 A 
HETATM   15  C12 UNK     1      32.623  -8.744  34.134  1.00  0.00     0.194 A 
HETATM   16  O4  UNK     1      32.345  -9.798  33.577  1.00  0.00    -0.287 OA
HETATM   17  C15 UNK     1      34.012  -8.253  34.210  1.00  0.00     0.050 A 
HETATM   18  C16 UNK     1      34.270  -7.045  34.857  1.00  0.00     0.089 A 
HETATM   19  C17 UNK     1      35.058  -8.984  33.641  1.00  0.00     0.042 A 
HETATM   20  O2  UNK     1      33.281  -6.286  35.432  1.00  0.00    -0.321 OA
HETATM   21  C18 UNK     1      35.575  -6.561  34.940  1.00  0.00     0.040 A 
HETATM   22  C14 UNK     1      31.993  -6.757  35.355  1.00  0.00     0.154 A 
HETATM   23  C21 UNK     1      36.622  -7.289  34.373  1.00  0.00     0.026 A 
HETATM   24  C20 UNK     1      36.363  -8.497  33.725  1.00  0.00     0.035 A 
HETATM   25 Cl1  UNK     1      37.659  -9.390  33.028  1.00  0.00    -0.084 Cl
ENDBRANCH   3  14
BRANCH   8  26
HETATM   26  C11 UNK     1      29.767  -7.744  32.272  1.00  0.00     0.255 C 
HETATM   27  O3  UNK     1      30.506  -6.934  31.721  1.00  0.00    -0.268 OA
HETATM   28  N2  UNK     1      29.199  -8.893  31.741  1.00  0.00    -0.323 N 
HETATM   29  H13 UNK     1      28.612  -9.456  32.353  1.00  0.00     0.169 HD
BRANCH  28  30
HETATM   30  C19 UNK     1      29.350  -9.398  30.427  1.00  0.00     0.035 A 
HETATM   31  C22 UNK     1      30.560  -9.958  30.053  1.00  0.00     0.029 A 
HETATM   32  C24 UNK     1      30.709 -10.457  28.760  1.00  0.00     0.002 A 
HETATM   33  C26 UNK     1      29.645 -10.390  27.859  1.00  0.00     0.000 A 
HETATM   34  C25 UNK     1      28.433  -9.822  28.253  1.00  0.00     0.002 A 
HETATM   35  C23 UNK     1      28.284  -9.322  29.547  1.00  0.00     0.029 A 
ENDBRANCH  28  30
ENDBRANCH   8  26
TORSDOF 3
ENDMDL
MODEL 7
REMARK VINA RESULT:      -8.6      3.354      5.893
REMARK  3 active torsions:
REMARK  status: ('A' for Active; 'I' for Inactive)
REMARK       I    between atoms: C11_18  and  N2_7 
REMARK    1  A    between atoms: C19_26  and  N2_7 
REMARK    2  A    between atoms: C1_8  and  C10_17 
REMARK    3  A    between atoms: C11_18  and  C6_13 
ROOT
HETATM    1  O1  UNK     1      27.001 -10.010  36.053  1.00  0.00    -0.293 OA
HETATM    2  N1  UNK     1      29.767  -6.863  38.270  1.00  0.00    -0.362 N 
HETATM    3  C1  UNK     1      29.216  -8.178  35.815  1.00  0.00     0.104 C 
HETATM    4  C2  UNK     1      28.456  -8.458  37.108  1.00  0.00     0.024 C 
HETATM    5  C3  UNK     1      28.767  -7.816  38.255  1.00  0.00     0.020 C 
HETATM    6  C4  UNK     1      28.043  -8.048  39.556  1.00  0.00     0.058 C 
HETATM    7  C5  UNK     1      26.651  -8.633  39.350  1.00  0.00     0.014 C 
HETATM    8  C6  UNK     1      30.187  -7.003  35.944  1.00  0.00     0.045 C 
HETATM    9  C7  UNK     1      26.697  -9.828  38.415  1.00  0.00     0.084 C 
HETATM   10  C8  UNK     1      27.345  -9.460  37.098  1.00  0.00     0.158 C 
HETATM   11  C9  UNK     1      30.440  -6.423  37.141  1.00  0.00     0.018 C 
HETATM   12  C13 UNK     1      31.411  -5.299  37.378  1.00  0.00     0.069 C 
HETATM   13  H8  UNK     1      29.972  -6.404  39.149  1.00  0.00     0.165 HD
ENDROOT
BRANCH   3  14
HETATM   14  C10 UNK     1      29.955  -9.408  35.361  1.00  0.00     0.029 A 
HETATM   15  C12 UNK     1      29.630  -9.978  34.029  1.00  0.00     0.194 A 
HETATM   16  O4  UNK     1      28.786  -9.480  33.296  1.00  0.00    -0.287 OA
HETATM   17  C15 UNK     1      30.382 -11.184  33.633  1.00  0.00     0.050 A 
HETATM   18  C16 UNK     1      31.333 -11.709  34.509  1.00  0.00     0.089 A 
HETATM   19  C17 UNK     1      30.149 -11.796  32.398  1.00  0.00     0.042 A 
HETATM   20  O2  UNK     1      31.602 -11.148  35.732  1.00  0.00    -0.321 OA
HETATM   21  C18 UNK     1      32.056 -12.847  34.155  1.00  0.00     0.040 A 
HETATM   22  C14 UNK     1      30.894 -10.027  36.087  1.00  0.00     0.154 A 
HETATM   23  C21 UNK     1      31.825 -13.461  32.923  1.00  0.00     0.026 A 
HETATM   24  C20 UNK     1      30.874 -12.935  32.047  1.00  0.00     0.035 A 
HETATM   25 Cl1  UNK     1      30.594 -13.696  30.529  1.00  0.00    -0.084 Cl
ENDBRANCH   3  14
BRANCH   8  26
HETATM   26  C11 UNK     1      30.785  -6.501  34.696  1.00  0.00     0.255 C 
HETATM   27  O3  UNK     1      31.975  -6.201  34.672  1.00  0.00    -0.268 OA
HETATM   28  N2  UNK     1      29.859  -6.434  33.666  1.00  0.00    -0.323 N 
HETATM   29  H13 UNK     1      28.907  -6.735  33.866  1.00  0.00     0.169 HD
BRANCH  28  30
HETATM   30  C19 UNK     1      30.081  -6.001  32.336  1.00  0.00     0.035 A 
HETATM   31  C22 UNK     1      30.670  -6.870  31.433  1.00  0.00     0.029 A 
HETATM   32  C24 UNK     1      30.889  -6.445  30.123  1.00  0.00     0.002 A 
HETATM   33  C26 UNK     1      30.514  -5.159  29.735  1.00  0.00     0.000 A 
HETATM   34  C25 UNK     1      29.921  -4.297  30.658  1.00  0.00     0.002 A 
HETATM   35  C23 UNK     1      29.704  -4.722  31.969  1.00  0.00     0.029 A 
ENDBRANCH  28  30
ENDBRANCH   8  26
TORSDOF 3
ENDMDL
MODEL 8
REMARK VINA RESULT:      -8.6     33.071     35.277
REMARK  3 active torsions:
REMARK  status: ('A' for Active; 'I' for Inactive)
REMARK       I    between atoms: C11_18  and  N2_7 
REMARK    1  A    between atoms: C19_26  and  N2_7 
REMARK    2  A    between atoms: C1_8  and  C10_17 
REMARK    3  A    between atoms: C11_18  and  C6_13 
ROOT
HETATM    1  O1  UNK     1      14.461  12.289   9.495  1.00  0.00    -0.293 OA
HETATM    2  N1  UNK     1      16.432   7.996   9.887  1.00  0.00    -0.362 N 
HETATM    3  C1  UNK     1      14.000   9.460   9.813  1.00  0.00     0.104 C 
HETATM    4  C2  UNK     1      15.378  10.113   9.744  1.00  0.00     0.024 C 
HETATM    5  C3  UNK     1      16.506   9.373   9.799  1.00  0.00     0.020 C 
HETATM    6  C4  UNK     1      17.889   9.965   9.726  1.00  0.00     0.058 C 
HETATM    7  C5  UNK     1      17.898  11.342   9.072  1.00  0.00     0.014 C 
HETATM    8  C6  UNK     1      14.069   7.933   9.759  1.00  0.00     0.045 C 
HETATM    9  C7  UNK     1      16.841  12.241   9.686  1.00  0.00     0.084 C 
HETATM   10  C8  UNK     1      15.474  11.600   9.611  1.00  0.00     0.158 C 
HETATM   11  C9  UNK     1      15.250   7.275   9.824  1.00  0.00     0.018 C 
HETATM   12  C13 UNK     1      15.417   5.779   9.828  1.00  0.00     0.069 C 
HETATM   13  H8  UNK     1      17.300   7.475   9.927  1.00  0.00     0.165 HD
ENDROOT
BRANCH   3  14
HETATM   14  C10 UNK     1      13.270   9.899  11.054  1.00  0.00     0.029 A 
HETATM   15  C12 UNK     1      11.883  10.411  10.916  1.00  0.00     0.194 A 
HETATM   16  O4  UNK     1      11.322  10.487   9.831  1.00  0.00    -0.287 OA
HETATM   17  C15 UNK     1      11.214  10.829  12.162  1.00  0.00     0.050 A 
HETATM   18  C16 UNK     1      11.902  10.720  13.371  1.00  0.00     0.089 A 
HETATM   19  C17 UNK     1       9.908  11.326  12.138  1.00  0.00     0.042 A 
HETATM   20  O2  UNK     1      13.184  10.239  13.453  1.00  0.00    -0.321 OA
HETATM   21  C18 UNK     1      11.289  11.109  14.562  1.00  0.00     0.040 A 
HETATM   22  C14 UNK     1      13.795   9.855  12.285  1.00  0.00     0.154 A 
HETATM   23  C21 UNK     1       9.984  11.606  14.540  1.00  0.00     0.026 A 
HETATM   24  C20 UNK     1       9.296  11.713  13.331  1.00  0.00     0.035 A 
HETATM   25 Cl1  UNK     1       7.688  12.326  13.311  1.00  0.00    -0.084 Cl
ENDBRANCH   3  14
BRANCH   8  26
HETATM   26  C11 UNK     1      12.793   7.221   9.575  1.00  0.00     0.255 C 
HETATM   27  O3  UNK     1      12.450   6.370  10.390  1.00  0.00    -0.268 OA
HETATM   28  N2  UNK     1      12.124   7.641   8.435  1.00  0.00    -0.323 N 
HETATM   29  H13 UNK     1      12.557   8.372   7.874  1.00  0.00     0.169 HD
BRANCH  28  30
HETATM   30  C19 UNK     1      10.876   7.178   7.950  1.00  0.00     0.035 A 
HETATM   31  C22 UNK     1      10.823   6.541   6.721  1.00  0.00     0.029 A 
HETATM   32  C24 UNK     1       9.596   6.084   6.243  1.00  0.00     0.002 A 
HETATM   33  C26 UNK     1       8.440   6.269   7.001  1.00  0.00     0.000 A 
HETATM   34  C25 UNK     1       8.512   6.912   8.237  1.00  0.00     0.002 A 
HETATM   35  C23 UNK     1       9.740   7.371   8.715  1.00  0.00     0.029 A 
ENDBRANCH  28  30
ENDBRANCH   8  26
TORSDOF 3
ENDMDL
MODEL 9
REMARK VINA RESULT:      -8.6      3.274      4.236
REMARK  3 active torsions:
REMARK  status: ('A' for Active; 'I' for Inactive)
REMARK       I    between atoms: C11_18  and  N2_7 
REMARK    1  A    between atoms: C19_26  and  N2_7 
REMARK    2  A    between atoms: C1_8  and  C10_17 
REMARK    3  A    between atoms: C11_18  and  C6_13 
ROOT
HETATM    1  O1  UNK     1      35.311  -7.449  33.069  1.00  0.00    -0.293 OA
HETATM    2  N1  UNK     1      33.708 -11.910  33.097  1.00  0.00    -0.362 N 
HETATM    3  C1  UNK     1      32.998  -9.164  33.233  1.00  0.00     0.104 C 
HETATM    4  C2  UNK     1      34.439  -9.657  33.138  1.00  0.00     0.024 C 
HETATM    5  C3  UNK     1      34.726 -10.975  33.092  1.00  0.00     0.020 C 
HETATM    6  C4  UNK     1      36.129 -11.515  32.989  1.00  0.00     0.058 C 
HETATM    7  C5  UNK     1      37.105 -10.490  32.422  1.00  0.00     0.014 C 
HETATM    8  C6  UNK     1      31.978 -10.294  33.080  1.00  0.00     0.045 C 
HETATM    9  C7  UNK     1      36.975  -9.160  33.141  1.00  0.00     0.084 C 
HETATM   10  C8  UNK     1      35.550  -8.656  33.093  1.00  0.00     0.158 C 
HETATM   11  C9  UNK     1      32.360 -11.592  33.047  1.00  0.00     0.018 C 
HETATM   12  C13 UNK     1      31.432 -12.772  32.951  1.00  0.00     0.069 C 
HETATM   13  H8  UNK     1      33.963 -12.889  33.063  1.00  0.00     0.165 HD
ENDROOT
BRANCH   3  14
HETATM   14  C10 UNK     1      32.773  -8.439  34.533  1.00  0.00     0.029 A 
HETATM   15  C12 UNK     1      32.311  -7.029  34.486  1.00  0.00     0.194 A 
HETATM   16  O4  UNK     1      32.110  -6.444  33.430  1.00  0.00    -0.287 OA
HETATM   17  C15 UNK     1      32.107  -6.365  35.788  1.00  0.00     0.050 A 
HETATM   18  C16 UNK     1      32.352  -7.081  36.960  1.00  0.00     0.089 A 
HETATM   19  C17 UNK     1      31.674  -5.038  35.851  1.00  0.00     0.042 A 
HETATM   20  O2  UNK     1      32.777  -8.385  36.957  1.00  0.00    -0.321 OA
HETATM   21  C18 UNK     1      32.165  -6.473  38.202  1.00  0.00     0.040 A 
HETATM   22  C14 UNK     1      32.964  -8.990  35.738  1.00  0.00     0.154 A 
HETATM   23  C21 UNK     1      31.733  -5.147  38.267  1.00  0.00     0.026 A 
HETATM   24  C20 UNK     1      31.488  -4.433  37.094  1.00  0.00     0.035 A 
HETATM   25 Cl1  UNK     1      30.955  -2.798  37.182  1.00  0.00    -0.084 Cl
ENDBRANCH   3  14
BRANCH   8  26
HETATM   26  C11 UNK     1      30.570  -9.894  32.915  1.00  0.00     0.255 C 
HETATM   27  O3  UNK     1      29.704 -10.430  33.599  1.00  0.00    -0.268 OA
HETATM   28  N2  UNK     1      30.420  -8.911  31.948  1.00  0.00    -0.323 N 
HETATM   29  H13 UNK     1      31.260  -8.574  31.482  1.00  0.00     0.169 HD
BRANCH  28  30
HETATM   30  C19 UNK     1      29.217  -8.294  31.529  1.00  0.00     0.035 A 
HETATM   31  C22 UNK     1      28.821  -7.109  32.128  1.00  0.00     0.029 A 
HETATM   32  C24 UNK     1      27.637  -6.500  31.715  1.00  0.00     0.002 A 
HETATM   33  C26 UNK     1      26.866  -7.084  30.709  1.00  0.00     0.000 A 
HETATM   34  C25 UNK     1      27.280  -8.277  30.117  1.00  0.00     0.002 A 
HETATM   35  C23 UNK     1      28.464  -8.887  30.530  1.00  0.00     0.029 A 
ENDBRANCH  28  30
ENDBRANCH   8  26
TORSDOF 3
ENDMDL
MODEL 10
REMARK VINA RESULT:      -8.6      1.143      1.969
REMARK  3 active torsions:
REMARK  status: ('A' for Active; 'I' for Inactive)
REMARK       I    between atoms: C11_18  and  N2_7 
REMARK    1  A    between atoms: C19_26  and  N2_7 
REMARK    2  A    between atoms: C1_8  and  C10_17 
REMARK    3  A    between atoms: C11_18  and  C6_13 
ROOT
HETATM    1  O1  UNK     1      31.343  -4.755  35.402  1.00  0.00    -0.293 OA
HETATM    2  N1  UNK     1      33.662  -8.855  34.869  1.00  0.00    -0.362 N 
HETATM    3  C1  UNK     1      31.214  -7.477  34.456  1.00  0.00     0.104 C 
HETATM    4  C2  UNK     1      32.425  -6.854  35.145  1.00  0.00     0.024 C 
HETATM    5  C3  UNK     1      33.562  -7.557  35.332  1.00  0.00     0.020 C 
HETATM    6  C4  UNK     1      34.788  -6.988  35.996  1.00  0.00     0.058 C 
HETATM    7  C5  UNK     1      34.819  -5.464  35.951  1.00  0.00     0.014 C 
HETATM    8  C6  UNK     1      31.515  -8.857  33.869  1.00  0.00     0.045 C 
HETATM    9  C7  UNK     1      33.499  -4.881  36.421  1.00  0.00     0.084 C 
HETATM   10  C8  UNK     1      32.345  -5.436  35.617  1.00  0.00     0.158 C 
HETATM   11  C9  UNK     1      32.687  -9.489  34.114  1.00  0.00     0.018 C 
HETATM   12  C13 UNK     1      33.056 -10.863  33.625  1.00  0.00     0.069 C 
HETATM   13  H8  UNK     1      34.530  -9.351  35.029  1.00  0.00     0.165 HD
ENDROOT
BRANCH   3  14
HETATM   14  C10 UNK     1      30.053  -7.566  35.410  1.00  0.00     0.029 A 
HETATM   15  C12 UNK     1      30.178  -8.447  36.598  1.00  0.00     0.194 A 
HETATM   16  O4  UNK     1      31.190  -9.098  36.823  1.00  0.00    -0.287 OA
HETATM   17  C15 UNK     1      29.011  -8.499  37.499  1.00  0.00     0.050 A 
HETATM   18  C16 UNK     1      27.884  -7.736  37.194  1.00  0.00     0.089 A 
HETATM   19  C17 UNK     1      29.030  -9.299  38.645  1.00  0.00     0.042 A 
HETATM   20  O2  UNK     1      27.811  -6.933  36.083  1.00  0.00    -0.321 OA
HETATM   21  C18 UNK     1      26.769  -7.769  38.032  1.00  0.00     0.040 A 
HETATM   22  C14 UNK     1      28.904  -6.896  35.253  1.00  0.00     0.154 A 
HETATM   23  C21 UNK     1      26.785  -8.567  39.176  1.00  0.00     0.026 A 
HETATM   24  C20 UNK     1      27.914  -9.330  39.482  1.00  0.00     0.035 A 
HETATM   25 Cl1  UNK     1      27.927 -10.312  40.895  1.00  0.00    -0.084 Cl
ENDBRANCH   3  14
BRANCH   8  26
HETATM   26  C11 UNK     1      30.493  -9.434  32.980  1.00  0.00     0.255 C 
HETATM   27  O3  UNK     1      29.692 -10.250  33.427  1.00  0.00    -0.268 OA
HETATM   28  N2  UNK     1      30.592  -8.941  31.687  1.00  0.00    -0.323 N 
HETATM   29  H13 UNK     1      31.319  -8.256  31.496  1.00  0.00     0.169 HD
BRANCH  28  30
HETATM   30  C19 UNK     1      29.778  -9.272  30.577  1.00  0.00     0.035 A 
HETATM   31  C22 UNK     1      30.278 -10.118  29.601  1.00  0.00     0.029 A 
HETATM   32  C24 UNK     1      29.477 -10.445  28.507  1.00  0.00     0.002 A 
HETATM   33  C26 UNK     1      28.187  -9.923  28.406  1.00  0.00     0.000 A 
HETATM   34  C25 UNK     1      27.700  -9.073  29.399  1.00  0.00     0.002 A 
HETATM   35  C23 UNK     1      28.501  -8.745  30.492  1.00  0.00     0.029 A 
ENDBRANCH  28  30
ENDBRANCH   8  26
TORSDOF 3
ENDMDL
