MODEL 1
REMARK VINA RESULT:      -9.3      0.000      0.000
REMARK  4 active torsions:
REMARK  status: ('A' for Active; 'I' for Inactive)
REMARK    1  A    between atoms: C7_15  and  O2_2 
REMARK    2  A    between atoms: C3_11  and  N1_7 
REMARK       I    between atoms: C6_14  and  N1_7 
REMARK    3  A    between atoms: C11_19  and  N2_8 
REMARK    4  A    between atoms: C2_10  and  C6_14 
ROOT
HETATM    1  O3  UNK     1      17.613   3.293  32.873  1.00  0.00    -0.267 OA
HETATM    2  N1  UNK     1      18.843   4.767  31.509  1.00  0.00    -0.320 N 
HETATM    3  C6  UNK     1      18.330   3.539  31.903  1.00  0.00     0.262 C 
HETATM    4  H2  UNK     1      19.405   4.808  30.662  1.00  0.00     0.169 HD
ENDROOT
BRANCH   2   5
HETATM    5  C3  UNK     1      18.657   6.024  32.136  1.00  0.00     0.071 A 
HETATM    6  C7  UNK     1      19.630   6.525  32.985  1.00  0.00     0.095 A 
HETATM    7  C13 UNK     1      19.432   7.763  33.594  1.00  0.00     0.041 A 
HETATM    8  C14 UNK     1      18.263   8.483  33.348  1.00  0.00     0.039 A 
HETATM    9  C11 UNK     1      17.292   7.965  32.492  1.00  0.00     0.105 A 
HETATM   10  C8  UNK     1      17.490   6.727  31.882  1.00  0.00     0.068 A 
BRANCH   6  11
HETATM   11  O2  UNK     1      20.781   5.838  33.238  1.00  0.00    -0.354 OA
HETATM   12  C17 UNK     1      21.905   6.131  32.410  1.00  0.00     0.210 C 
ENDBRANCH   6  11
BRANCH   9  13
HETATM   13  N2  UNK     1      16.102   8.698  32.242  1.00  0.00    -0.116 N 
HETATM   14  O5  UNK     1      15.583   9.353  33.177  1.00  0.00    -0.532 OA
HETATM   15  O6  UNK     1      15.601   8.671  31.091  1.00  0.00    -0.532 OA
ENDBRANCH   9  13
ENDBRANCH   2   5
BRANCH   3  16
HETATM   16  C2  UNK     1      18.736   2.454  31.003  1.00  0.00     0.108 A 
HETATM   17  C10 UNK     1      18.690   2.597  29.530  1.00  0.00     0.304 A 
HETATM   18  O1  UNK     1      19.101   1.498  28.782  1.00  0.00    -0.274 OA
HETATM   19  O4  UNK     1      18.311   3.631  28.990  1.00  0.00    -0.259 OA
HETATM   20  C4  UNK     1      19.538   0.305  29.392  1.00  0.00     0.089 A 
HETATM   21  C1  UNK     1      19.573   0.192  30.778  1.00  0.00    -0.001 A 
HETATM   22  C12 UNK     1      19.931  -0.741  28.560  1.00  0.00     0.038 A 
HETATM   23  C5  UNK     1      19.149   1.324  31.587  1.00  0.00     0.037 A 
HETATM   24  C9  UNK     1      20.013  -1.007  31.346  1.00  0.00     0.014 A 
HETATM   25  C15 UNK     1      20.409  -2.065  30.524  1.00  0.00     0.001 A 
HETATM   26  C16 UNK     1      20.368  -1.933  29.134  1.00  0.00     0.003 A 
ENDBRANCH   3  16
TORSDOF 4
ENDMDL
MODEL 2
REMARK VINA RESULT:      -9.1      1.401      2.182
REMARK  4 active torsions:
REMARK  status: ('A' for Active; 'I' for Inactive)
REMARK    1  A    between atoms: C7_15  and  O2_2 
REMARK    2  A    between atoms: C3_11  and  N1_7 
REMARK       I    between atoms: C6_14  and  N1_7 
REMARK    3  A    between atoms: C11_19  and  N2_8 
REMARK    4  A    between atoms: C2_10  and  C6_14 
ROOT
HETATM    1  O3  UNK     1      18.423   4.477  30.290  1.00  0.00    -0.267 OA
HETATM    2  N1  UNK     1      17.890   4.410  32.583  1.00  0.00    -0.320 N 
HETATM    3  C6  UNK     1      18.314   3.892  31.367  1.00  0.00     0.262 C 
HETATM    4  H2  UNK     1      17.878   3.796  33.395  1.00  0.00     0.169 HD
ENDROOT
BRANCH   2   5
HETATM    5  C3  UNK     1      17.485   5.739  32.863  1.00  0.00     0.071 A 
HETATM    6  C7  UNK     1      18.373   6.625  33.451  1.00  0.00     0.095 A 
HETATM    7  C13 UNK     1      17.960   7.928  33.720  1.00  0.00     0.041 A 
HETATM    8  C14 UNK     1      16.663   8.330  33.399  1.00  0.00     0.039 A 
HETATM    9  C11 UNK     1      15.780   7.426  32.807  1.00  0.00     0.105 A 
HETATM   10  C8  UNK     1      16.193   6.122  32.537  1.00  0.00     0.068 A 
BRANCH   6  11
HETATM   11  O2  UNK     1      19.645   6.253  33.773  1.00  0.00    -0.354 OA
HETATM   12  C17 UNK     1      20.663   6.535  32.814  1.00  0.00     0.210 C 
ENDBRANCH   6  11
BRANCH   9  13
HETATM   13  N2  UNK     1      14.460   7.835  32.480  1.00  0.00    -0.116 N 
HETATM   14  O5  UNK     1      14.073   8.977  32.827  1.00  0.00    -0.532 OA
HETATM   15  O6  UNK     1      13.716   7.042  31.852  1.00  0.00    -0.532 OA
ENDBRANCH   9  13
ENDBRANCH   2   5
BRANCH   3  16
HETATM   16  C2  UNK     1      18.655   2.468  31.461  1.00  0.00     0.108 A 
HETATM   17  C10 UNK     1      18.383   1.674  32.680  1.00  0.00     0.304 A 
HETATM   18  O1  UNK     1      18.752   0.332  32.647  1.00  0.00    -0.274 OA
HETATM   19  O4  UNK     1      17.858   2.168  33.672  1.00  0.00    -0.259 OA
HETATM   20  C4  UNK     1      19.356  -0.246  31.513  1.00  0.00     0.089 A 
HETATM   21  C1  UNK     1      19.603   0.519  30.378  1.00  0.00    -0.001 A 
HETATM   22  C12 UNK     1      19.689  -1.597  31.574  1.00  0.00     0.038 A 
HETATM   23  C5  UNK     1      19.228   1.925  30.381  1.00  0.00     0.037 A 
HETATM   24  C9  UNK     1      20.203  -0.089  29.272  1.00  0.00     0.014 A 
HETATM   25  C15 UNK     1      20.544  -1.444  29.319  1.00  0.00     0.001 A 
HETATM   26  C16 UNK     1      20.287  -2.196  30.468  1.00  0.00     0.003 A 
ENDBRANCH   3  16
TORSDOF 4
ENDMDL
MODEL 3
REMARK VINA RESULT:      -9.1      8.398     12.570
REMARK  4 active torsions:
REMARK  status: ('A' for Active; 'I' for Inactive)
REMARK    1  A    between atoms: C7_15  and  O2_2 
REMARK    2  A    between atoms: C3_11  and  N1_7 
REMARK       I    between atoms: C6_14  and  N1_7 
REMARK    3  A    between atoms: C11_19  and  N2_8 
REMARK    4  A    between atoms: C2_10  and  C6_14 
ROOT
HETATM    1  O3  UNK     1      20.583  -4.181  37.909  1.00  0.00    -0.267 OA
HETATM    2  N1  UNK     1      19.464  -5.088  36.046  1.00  0.00    -0.320 N 
HETATM    3  C6  UNK     1      19.928  -4.075  36.873  1.00  0.00     0.262 C 
HETATM    4  H2  UNK     1      18.953  -4.832  35.205  1.00  0.00     0.169 HD
ENDROOT
BRANCH   2   5
HETATM    5  C3  UNK     1      19.642  -6.485  36.207  1.00  0.00     0.071 A 
HETATM    6  C7  UNK     1      18.539  -7.322  36.254  1.00  0.00     0.095 A 
HETATM    7  C13 UNK     1      18.730  -8.694  36.413  1.00  0.00     0.041 A 
HETATM    8  C14 UNK     1      20.021  -9.211  36.523  1.00  0.00     0.039 A 
HETATM    9  C11 UNK     1      21.121  -8.355  36.473  1.00  0.00     0.105 A 
HETATM   10  C8  UNK     1      20.931  -6.982  36.314  1.00  0.00     0.068 A 
BRANCH   6  11
HETATM   11  O2  UNK     1      17.269  -6.838  36.149  1.00  0.00    -0.354 OA
HETATM   12  C17 UNK     1      16.472  -7.341  35.078  1.00  0.00     0.210 C 
ENDBRANCH   6  11
BRANCH   9  13
HETATM   13  N2  UNK     1      22.436  -8.881  36.584  1.00  0.00    -0.116 N 
HETATM   14  O5  UNK     1      23.286  -8.255  37.261  1.00  0.00    -0.532 OA
HETATM   15  O6  UNK     1      22.711  -9.959  36.002  1.00  0.00    -0.532 OA
ENDBRANCH   9  13
ENDBRANCH   2   5
BRANCH   3  16
HETATM   16  C2  UNK     1      19.550  -2.744  36.384  1.00  0.00     0.108 A 
HETATM   17  C10 UNK     1      19.944  -2.260  35.041  1.00  0.00     0.304 A 
HETATM   18  O1  UNK     1      19.525  -0.980  34.691  1.00  0.00    -0.274 OA
HETATM   19  O4  UNK     1      20.604  -2.950  34.271  1.00  0.00    -0.259 OA
HETATM   20  C4  UNK     1      18.766  -0.180  35.567  1.00  0.00     0.089 A 
HETATM   21  C1  UNK     1      18.408  -0.654  36.825  1.00  0.00    -0.001 A 
HETATM   22  C12 UNK     1      18.393   1.088  35.127  1.00  0.00     0.038 A 
HETATM   23  C5  UNK     1      18.830  -1.989  37.220  1.00  0.00     0.037 A 
HETATM   24  C9  UNK     1      17.654   0.169  37.666  1.00  0.00     0.014 A 
HETATM   25  C15 UNK     1      17.273   1.444  37.238  1.00  0.00     0.001 A 
HETATM   26  C16 UNK     1      17.642   1.902  35.972  1.00  0.00     0.003 A 
ENDBRANCH   3  16
TORSDOF 4
ENDMDL
MODEL 4
REMARK VINA RESULT:      -8.9      7.614      9.734
REMARK  4 active torsions:
REMARK  status: ('A' for Active; 'I' for Inactive)
REMARK    1  A    between atoms: C7_15  and  O2_2 
REMARK    2  A    between atoms: C3_11  and  N1_7 
REMARK       I    between atoms: C6_14  and  N1_7 
REMARK    3  A    between atoms: C11_19  and  N2_8 
REMARK    4  A    between atoms: C2_10  and  C6_14 
ROOT
HETATM    1  O3  UNK     1      20.872  -2.980  37.607  1.00  0.00    -0.267 OA
HETATM    2  N1  UNK     1      19.060  -3.082  36.106  1.00  0.00    -0.320 N 
HETATM    3  C6  UNK     1      20.059  -3.598  36.920  1.00  0.00     0.262 C 
HETATM    4  H2  UNK     1      18.449  -3.732  35.617  1.00  0.00     0.169 HD
ENDROOT
BRANCH   2   5
HETATM    5  C3  UNK     1      18.746  -1.719  35.880  1.00  0.00     0.071 A 
HETATM    6  C7  UNK     1      18.997  -1.146  34.644  1.00  0.00     0.095 A 
HETATM    7  C13 UNK     1      18.683   0.196  34.437  1.00  0.00     0.041 A 
HETATM    8  C14 UNK     1      18.122   0.949  35.470  1.00  0.00     0.039 A 
HETATM    9  C11 UNK     1      17.876   0.358  36.709  1.00  0.00     0.105 A 
HETATM   10  C8  UNK     1      18.190  -0.985  36.916  1.00  0.00     0.068 A 
BRANCH   6  11
HETATM   11  O2  UNK     1      19.544  -1.864  33.621  1.00  0.00    -0.354 OA
HETATM   12  C17 UNK     1      19.225  -1.445  32.295  1.00  0.00     0.210 C 
ENDBRANCH   6  11
BRANCH   9  13
HETATM   13  N2  UNK     1      17.305   1.124  37.760  1.00  0.00    -0.116 N 
HETATM   14  O5  UNK     1      16.233   1.741  37.549  1.00  0.00    -0.532 OA
HETATM   15  O6  UNK     1      17.888   1.163  38.870  1.00  0.00    -0.532 OA
ENDBRANCH   9  13
ENDBRANCH   2   5
BRANCH   3  16
HETATM   16  C2  UNK     1      20.083  -5.065  36.906  1.00  0.00     0.108 A 
HETATM   17  C10 UNK     1      20.181  -5.836  35.646  1.00  0.00     0.304 A 
HETATM   18  O1  UNK     1      20.195  -7.223  35.762  1.00  0.00    -0.274 OA
HETATM   19  O4  UNK     1      20.246  -5.286  34.552  1.00  0.00    -0.259 OA
HETATM   20  C4  UNK     1      20.121  -7.865  37.014  1.00  0.00     0.089 A 
HETATM   21  C1  UNK     1      20.029  -7.121  38.186  1.00  0.00    -0.001 A 
HETATM   22  C12 UNK     1      20.143  -9.259  37.029  1.00  0.00     0.038 A 
HETATM   23  C5  UNK     1      20.012  -5.669  38.097  1.00  0.00     0.037 A 
HETATM   24  C9  UNK     1      19.958  -7.794  39.408  1.00  0.00     0.014 A 
HETATM   25  C15 UNK     1      19.979  -9.191  39.439  1.00  0.00     0.001 A 
HETATM   26  C16 UNK     1      20.071  -9.921  38.253  1.00  0.00     0.003 A 
ENDBRANCH   3  16
TORSDOF 4
ENDMDL
MODEL 5
REMARK VINA RESULT:      -8.7      4.840      8.230
REMARK  4 active torsions:
REMARK  status: ('A' for Active; 'I' for Inactive)
REMARK    1  A    between atoms: C7_15  and  O2_2 
REMARK    2  A    between atoms: C3_11  and  N1_7 
REMARK       I    between atoms: C6_14  and  N1_7 
REMARK    3  A    between atoms: C11_19  and  N2_8 
REMARK    4  A    between atoms: C2_10  and  C6_14 
ROOT
HETATM    1  O3  UNK     1      16.607   0.673  34.079  1.00  0.00    -0.267 OA
HETATM    2  N1  UNK     1      18.900   0.442  34.564  1.00  0.00    -0.320 N 
HETATM    3  C6  UNK     1      17.792   0.952  33.901  1.00  0.00     0.262 C 
HETATM    4  H2  UNK     1      19.820   0.796  34.314  1.00  0.00     0.169 HD
ENDROOT
BRANCH   2   5
HETATM    5  C3  UNK     1      18.918  -0.522  35.602  1.00  0.00     0.071 A 
HETATM    6  C7  UNK     1      18.265  -0.265  36.797  1.00  0.00     0.095 A 
HETATM    7  C13 UNK     1      18.293  -1.223  37.809  1.00  0.00     0.041 A 
HETATM    8  C14 UNK     1      18.974  -2.425  37.615  1.00  0.00     0.039 A 
HETATM    9  C11 UNK     1      19.627  -2.669  36.407  1.00  0.00     0.105 A 
HETATM   10  C8  UNK     1      19.599  -1.711  35.393  1.00  0.00     0.068 A 
BRANCH   6  11
HETATM   11  O2  UNK     1      17.593   0.902  37.007  1.00  0.00    -0.354 OA
HETATM   12  C17 UNK     1      17.570   1.403  38.343  1.00  0.00     0.210 C 
ENDBRANCH   6  11
BRANCH   9  13
HETATM   13  N2  UNK     1      20.320  -3.892  36.209  1.00  0.00    -0.116 N 
HETATM   14  O5  UNK     1      21.075  -4.317  37.116  1.00  0.00    -0.532 OA
HETATM   15  O6  UNK     1      20.159  -4.515  35.131  1.00  0.00    -0.532 OA
ENDBRANCH   9  13
ENDBRANCH   2   5
BRANCH   3  16
HETATM   16  C2  UNK     1      18.163   1.938  32.880  1.00  0.00     0.108 A 
HETATM   17  C10 UNK     1      18.697   1.537  31.558  1.00  0.00     0.304 A 
HETATM   18  O1  UNK     1      19.012   2.565  30.674  1.00  0.00    -0.274 OA
HETATM   19  O4  UNK     1      18.855   0.360  31.253  1.00  0.00    -0.259 OA
HETATM   20  C4  UNK     1      18.834   3.920  31.015  1.00  0.00     0.089 A 
HETATM   21  C1  UNK     1      18.331   4.275  32.263  1.00  0.00    -0.001 A 
HETATM   22  C12 UNK     1      19.177   4.878  30.063  1.00  0.00     0.038 A 
HETATM   23  C5  UNK     1      17.992   3.223  33.209  1.00  0.00     0.037 A 
HETATM   24  C9  UNK     1      18.168   5.629  32.564  1.00  0.00     0.014 A 
HETATM   25  C15 UNK     1      18.509   6.601  31.619  1.00  0.00     0.001 A 
HETATM   26  C16 UNK     1      19.012   6.226  30.371  1.00  0.00     0.003 A 
ENDBRANCH   3  16
TORSDOF 4
ENDMDL
MODEL 6
REMARK VINA RESULT:      -8.4      2.210      8.024
REMARK  4 active torsions:
REMARK  status: ('A' for Active; 'I' for Inactive)
REMARK    1  A    between atoms: C7_15  and  O2_2 
REMARK    2  A    between atoms: C3_11  and  N1_7 
REMARK       I    between atoms: C6_14  and  N1_7 
REMARK    3  A    between atoms: C11_19  and  N2_8 
REMARK    4  A    between atoms: C2_10  and  C6_14 
ROOT
HETATM    1  O3  UNK     1      19.456   5.600  32.641  1.00  0.00    -0.267 OA
HETATM    2  N1  UNK     1      17.575   4.344  31.984  1.00  0.00    -0.320 N 
HETATM    3  C6  UNK     1      18.264   5.490  32.355  1.00  0.00     0.262 C 
HETATM    4  H2  UNK     1      16.587   4.425  31.754  1.00  0.00     0.169 HD
ENDROOT
BRANCH   2   5
HETATM    5  C3  UNK     1      18.090   3.031  31.849  1.00  0.00     0.071 A 
HETATM    6  C7  UNK     1      18.212   2.217  32.963  1.00  0.00     0.095 A 
HETATM    7  C13 UNK     1      18.721   0.927  32.813  1.00  0.00     0.041 A 
HETATM    8  C14 UNK     1      19.101   0.469  31.552  1.00  0.00     0.039 A 
HETATM    9  C11 UNK     1      18.973   1.301  30.439  1.00  0.00     0.105 A 
HETATM   10  C8  UNK     1      18.463   2.591  30.589  1.00  0.00     0.068 A 
BRANCH   6  11
HETATM   11  O2  UNK     1      17.846   2.645  34.204  1.00  0.00    -0.354 OA
HETATM   12  C17 UNK     1      18.645   2.206  35.301  1.00  0.00     0.210 C 
ENDBRANCH   6  11
BRANCH   9  13
HETATM   13  N2  UNK     1      19.360   0.835  29.155  1.00  0.00    -0.116 N 
HETATM   14  O5  UNK     1      20.453   0.233  29.031  1.00  0.00    -0.532 OA
HETATM   15  O6  UNK     1      18.598   1.038  28.179  1.00  0.00    -0.532 OA
ENDBRANCH   9  13
ENDBRANCH   2   5
BRANCH   3  16
HETATM   16  C2  UNK     1      17.396   6.674  32.385  1.00  0.00     0.108 A 
HETATM   17  C10 UNK     1      17.000   7.388  31.151  1.00  0.00     0.304 A 
HETATM   18  O1  UNK     1      16.173   8.497  31.309  1.00  0.00    -0.274 OA
HETATM   19  O4  UNK     1      17.378   7.026  30.041  1.00  0.00    -0.259 OA
HETATM   20  C4  UNK     1      15.734   8.922  32.578  1.00  0.00     0.089 A 
HETATM   21  C1  UNK     1      16.119   8.236  33.725  1.00  0.00    -0.001 A 
HETATM   22  C12 UNK     1      14.908  10.042  32.636  1.00  0.00     0.038 A 
HETATM   23  C5  UNK     1      16.983   7.072  33.593  1.00  0.00     0.037 A 
HETATM   24  C9  UNK     1      15.662   8.687  34.966  1.00  0.00     0.014 A 
HETATM   25  C15 UNK     1      14.833   9.810  35.039  1.00  0.00     0.001 A 
HETATM   26  C16 UNK     1      14.457  10.486  33.877  1.00  0.00     0.003 A 
ENDBRANCH   3  16
TORSDOF 4
ENDMDL
MODEL 7
REMARK VINA RESULT:      -8.4      2.725      8.110
REMARK  4 active torsions:
REMARK  status: ('A' for Active; 'I' for Inactive)
REMARK    1  A    between atoms: C7_15  and  O2_2 
REMARK    2  A    between atoms: C3_11  and  N1_7 
REMARK       I    between atoms: C6_14  and  N1_7 
REMARK    3  A    between atoms: C11_19  and  N2_8 
REMARK    4  A    between atoms: C2_10  and  C6_14 
ROOT
HETATM    1  O3  UNK     1      17.804   1.669  32.795  1.00  0.00    -0.267 OA
HETATM    2  N1  UNK     1      19.299   1.933  30.995  1.00  0.00    -0.320 N 
HETATM    3  C6  UNK     1      18.434   2.358  31.995  1.00  0.00     0.262 C 
HETATM    4  H2  UNK     1      19.766   2.636  30.427  1.00  0.00     0.169 HD
ENDROOT
BRANCH   2   5
HETATM    5  C3  UNK     1      19.654   0.601  30.668  1.00  0.00     0.071 A 
HETATM    6  C7  UNK     1      19.582   0.168  29.354  1.00  0.00     0.095 A 
HETATM    7  C13 UNK     1      19.935  -1.146  29.048  1.00  0.00     0.041 A 
HETATM    8  C14 UNK     1      20.355  -2.009  30.060  1.00  0.00     0.039 A 
HETATM    9  C11 UNK     1      20.422  -1.558  31.378  1.00  0.00     0.105 A 
HETATM   10  C8  UNK     1      20.070  -0.244  31.685  1.00  0.00     0.068 A 
BRANCH   6  11
HETATM   11  O2  UNK     1      19.175   0.996  28.350  1.00  0.00    -0.354 OA
HETATM   12  C17 UNK     1      17.781   1.293  28.282  1.00  0.00     0.210 C 
ENDBRANCH   6  11
BRANCH   9  13
HETATM   13  N2  UNK     1      20.851  -2.437  32.408  1.00  0.00    -0.116 N 
HETATM   14  O5  UNK     1      20.752  -2.068  33.603  1.00  0.00    -0.532 OA
HETATM   15  O6  UNK     1      21.317  -3.559  32.095  1.00  0.00    -0.532 OA
ENDBRANCH   9  13
ENDBRANCH   2   5
BRANCH   3  16
HETATM   16  C2  UNK     1      18.312   3.820  32.037  1.00  0.00     0.108 A 
HETATM   17  C10 UNK     1      18.603   4.667  30.858  1.00  0.00     0.304 A 
HETATM   18  O1  UNK     1      18.451   6.040  31.022  1.00  0.00    -0.274 OA
HETATM   19  O4  UNK     1      18.961   4.187  29.787  1.00  0.00    -0.259 OA
HETATM   20  C4  UNK     1      18.040   6.602  32.248  1.00  0.00     0.089 A 
HETATM   21  C1  UNK     1      17.773   5.787  33.343  1.00  0.00    -0.001 A 
HETATM   22  C12 UNK     1      17.915   7.988  32.315  1.00  0.00     0.038 A 
HETATM   23  C5  UNK     1      17.923   4.347  33.203  1.00  0.00     0.037 A 
HETATM   24  C9  UNK     1      17.367   6.381  34.542  1.00  0.00     0.014 A 
HETATM   25  C15 UNK     1      17.238   7.770  34.625  1.00  0.00     0.001 A 
HETATM   26  C16 UNK     1      17.511   8.571  33.514  1.00  0.00     0.003 A 
ENDBRANCH   3  16
TORSDOF 4
ENDMDL
MODEL 8
REMARK VINA RESULT:      -8.3      2.257      8.045
REMARK  4 active torsions:
REMARK  status: ('A' for Active; 'I' for Inactive)
REMARK    1  A    between atoms: C7_15  and  O2_2 
REMARK    2  A    between atoms: C3_11  and  N1_7 
REMARK       I    between atoms: C6_14  and  N1_7 
REMARK    3  A    between atoms: C11_19  and  N2_8 
REMARK    4  A    between atoms: C2_10  and  C6_14 
ROOT
HETATM    1  O3  UNK     1      19.410   5.377  31.354  1.00  0.00    -0.267 OA
HETATM    2  N1  UNK     1      17.923   3.880  32.400  1.00  0.00    -0.320 N 
HETATM    3  C6  UNK     1      18.483   5.119  32.121  1.00  0.00     0.262 C 
HETATM    4  H2  UNK     1      17.139   3.836  33.045  1.00  0.00     0.169 HD
ENDROOT
BRANCH   2   5
HETATM    5  C3  UNK     1      18.293   2.623  31.861  1.00  0.00     0.071 A 
HETATM    6  C7  UNK     1      18.651   1.585  32.706  1.00  0.00     0.095 A 
HETATM    7  C13 UNK     1      19.013   0.354  32.160  1.00  0.00     0.041 A 
HETATM    8  C14 UNK     1      19.013   0.177  30.776  1.00  0.00     0.039 A 
HETATM    9  C11 UNK     1      18.651   1.231  29.938  1.00  0.00     0.105 A 
HETATM   10  C8  UNK     1      18.288   2.463  30.484  1.00  0.00     0.068 A 
BRANCH   6  11
HETATM   11  O2  UNK     1      18.657   1.736  34.061  1.00  0.00    -0.354 OA
HETATM   12  C17 UNK     1      17.711   0.967  34.801  1.00  0.00     0.210 C 
ENDBRANCH   6  11
BRANCH   9  13
HETATM   13  N2  UNK     1      18.651   1.051  28.530  1.00  0.00    -0.116 N 
HETATM   14  O5  UNK     1      18.048   1.883  27.810  1.00  0.00    -0.532 OA
HETATM   15  O6  UNK     1      19.253   0.063  28.043  1.00  0.00    -0.532 OA
ENDBRANCH   9  13
ENDBRANCH   2   5
BRANCH   3  16
HETATM   16  C2  UNK     1      17.835   6.201  32.871  1.00  0.00     0.108 A 
HETATM   17  C10 UNK     1      18.483   6.846  34.035  1.00  0.00     0.304 A 
HETATM   18  O1  UNK     1      17.769   7.861  34.664  1.00  0.00    -0.274 OA
HETATM   19  O4  UNK     1      19.594   6.507  34.430  1.00  0.00    -0.259 OA
HETATM   20  C4  UNK     1      16.492   8.258  34.220  1.00  0.00     0.089 A 
HETATM   21  C1  UNK     1      15.902   7.638  33.123  1.00  0.00    -0.001 A 
HETATM   22  C12 UNK     1      15.855   9.285  34.914  1.00  0.00     0.038 A 
HETATM   23  C5  UNK     1      16.624   6.573  32.444  1.00  0.00     0.037 A 
HETATM   24  C9  UNK     1      14.635   8.060  32.711  1.00  0.00     0.014 A 
HETATM   25  C15 UNK     1      13.983   9.088  33.398  1.00  0.00     0.001 A 
HETATM   26  C16 UNK     1      14.592   9.699  34.496  1.00  0.00     0.003 A 
ENDBRANCH   3  16
TORSDOF 4
ENDMDL
MODEL 9
REMARK VINA RESULT:      -8.3     14.650     17.300
REMARK  4 active torsions:
REMARK  status: ('A' for Active; 'I' for Inactive)
REMARK    1  A    between atoms: C7_15  and  O2_2 
REMARK    2  A    between atoms: C3_11  and  N1_7 
REMARK       I    between atoms: C6_14  and  N1_7 
REMARK    3  A    between atoms: C11_19  and  N2_8 
REMARK    4  A    between atoms: C2_10  and  C6_14 
ROOT
HETATM    1  O3  UNK     1      25.974  -8.912  39.584  1.00  0.00    -0.267 OA
HETATM    2  N1  UNK     1      25.664  -8.469  37.292  1.00  0.00    -0.320 N 
HETATM    3  C6  UNK     1      26.221  -8.292  38.551  1.00  0.00     0.262 C 
HETATM    4  H2  UNK     1      25.996  -7.885  36.528  1.00  0.00     0.169 HD
ENDROOT
BRANCH   2   5
HETATM    5  C3  UNK     1      24.679  -9.412  36.907  1.00  0.00     0.071 A 
HETATM    6  C7  UNK     1      23.346  -9.039  36.856  1.00  0.00     0.095 A 
HETATM    7  C13 UNK     1      22.388  -9.978  36.476  1.00  0.00     0.041 A 
HETATM    8  C14 UNK     1      22.776 -11.279  36.152  1.00  0.00     0.039 A 
HETATM    9  C11 UNK     1      24.123 -11.639  36.209  1.00  0.00     0.105 A 
HETATM   10  C8  UNK     1      25.081 -10.700  36.589  1.00  0.00     0.068 A 
BRANCH   6  11
HETATM   11  O2  UNK     1      22.946  -7.773  37.168  1.00  0.00    -0.354 OA
HETATM   12  C17 UNK     1      22.338  -7.584  38.444  1.00  0.00     0.210 C 
ENDBRANCH   6  11
BRANCH   9  13
HETATM   13  N2  UNK     1      24.517 -12.963  35.879  1.00  0.00    -0.116 N 
HETATM   14  O5  UNK     1      24.343 -13.375  34.707  1.00  0.00    -0.532 OA
HETATM   15  O6  UNK     1      25.029 -13.685  36.769  1.00  0.00    -0.532 OA
ENDBRANCH   9  13
ENDBRANCH   2   5
BRANCH   3  16
HETATM   16  C2  UNK     1      27.218  -7.214  38.569  1.00  0.00     0.108 A 
HETATM   17  C10 UNK     1      26.832  -5.790  38.689  1.00  0.00     0.304 A 
HETATM   18  O1  UNK     1      27.868  -4.861  38.696  1.00  0.00    -0.274 OA
HETATM   19  O4  UNK     1      25.659  -5.441  38.780  1.00  0.00    -0.259 OA
HETATM   20  C4  UNK     1      29.218  -5.251  38.592  1.00  0.00     0.089 A 
HETATM   21  C1  UNK     1      29.558  -6.595  38.479  1.00  0.00    -0.001 A 
HETATM   22  C12 UNK     1      30.184  -4.248  38.608  1.00  0.00     0.038 A 
HETATM   23  C5  UNK     1      28.497  -7.591  38.470  1.00  0.00     0.037 A 
HETATM   24  C9  UNK     1      30.908  -6.943  38.379  1.00  0.00     0.014 A 
HETATM   25  C15 UNK     1      31.888  -5.947  38.393  1.00  0.00     0.001 A 
HETATM   26  C16 UNK     1      31.528  -4.603  38.507  1.00  0.00     0.003 A 
ENDBRANCH   3  16
TORSDOF 4
ENDMDL
MODEL 10
REMARK VINA RESULT:      -8.3     22.456     24.425
REMARK  4 active torsions:
REMARK  status: ('A' for Active; 'I' for Inactive)
REMARK    1  A    between atoms: C7_15  and  O2_2 
REMARK    2  A    between atoms: C3_11  and  N1_7 
REMARK       I    between atoms: C6_14  and  N1_7 
REMARK    3  A    between atoms: C11_19  and  N2_8 
REMARK    4  A    between atoms: C2_10  and  C6_14 
ROOT
HETATM    1  O3  UNK     1       8.740   7.032   9.753  1.00  0.00    -0.267 OA
HETATM    2  N1  UNK     1       9.760   4.949   9.344  1.00  0.00    -0.320 N 
HETATM    3  C6  UNK     1       8.749   5.801   9.766  1.00  0.00     0.262 C 
HETATM    4  H2  UNK     1       9.603   3.945   9.399  1.00  0.00     0.169 HD
ENDROOT
BRANCH   2   5
HETATM    5  C3  UNK     1      11.019   5.304   8.799  1.00  0.00     0.071 A 
HETATM    6  C7  UNK     1      11.110   5.724   7.482  1.00  0.00     0.095 A 
HETATM    7  C13 UNK     1      12.355   6.070   6.960  1.00  0.00     0.041 A 
HETATM    8  C14 UNK     1      13.494   5.989   7.761  1.00  0.00     0.039 A 
HETATM    9  C11 UNK     1      13.387   5.563   9.085  1.00  0.00     0.105 A 
HETATM   10  C8  UNK     1      12.141   5.218   9.608  1.00  0.00     0.068 A 
BRANCH   6  11
HETATM   11  O2  UNK     1      10.008   5.811   6.682  1.00  0.00    -0.354 OA
HETATM   12  C17 UNK     1      10.119   6.626   5.517  1.00  0.00     0.210 C 
ENDBRANCH   6  11
BRANCH   9  13
HETATM   13  N2  UNK     1      14.547   5.482   9.900  1.00  0.00    -0.116 N 
HETATM   14  O5  UNK     1      15.408   4.606   9.646  1.00  0.00    -0.532 OA
HETATM   15  O6  UNK     1      14.678   6.287  10.854  1.00  0.00    -0.532 OA
ENDBRANCH   9  13
ENDBRANCH   2   5
BRANCH   3  16
HETATM   16  C2  UNK     1       7.584   5.069  10.275  1.00  0.00     0.108 A 
HETATM   17  C10 UNK     1       6.884   4.046   9.465  1.00  0.00     0.304 A 
HETATM   18  O1  UNK     1       5.791   3.420  10.058  1.00  0.00    -0.274 OA
HETATM   19  O4  UNK     1       7.245   3.760   8.328  1.00  0.00    -0.259 OA
HETATM   20  C4  UNK     1       5.368   3.741  11.363  1.00  0.00     0.089 A 
HETATM   21  C1  UNK     1       6.040   4.706  12.106  1.00  0.00    -0.001 A 
HETATM   22  C12 UNK     1       4.264   3.060  11.871  1.00  0.00     0.038 A 
HETATM   23  C5  UNK     1       7.187   5.378  11.514  1.00  0.00     0.037 A 
HETATM   24  C9  UNK     1       5.591   4.996  13.397  1.00  0.00     0.014 A 
HETATM   25  C15 UNK     1       4.484   4.321  13.920  1.00  0.00     0.001 A 
HETATM   26  C16 UNK     1       3.823   3.355  13.159  1.00  0.00     0.003 A 
ENDBRANCH   3  16
TORSDOF 4
ENDMDL
