MODEL 1
REMARK VINA RESULT:      -8.2      0.000      0.000
REMARK  5 active torsions:
REMARK  status: ('A' for Active; 'I' for Inactive)
REMARK    1  A    between atoms: C1_6  and  N1_5 
REMARK       I    between atoms: C6_11  and  N1_5 
REMARK    2  A    between atoms: C1_6  and  C2_7 
REMARK    3  A    between atoms: C2_7  and  C3_8 
REMARK    4  A    between atoms: C3_8  and  C5_10 
REMARK    5  A    between atoms: C6_11  and  C7_12 
ROOT
HETATM    1  O2  UNK     1      21.759  -2.045  35.057  1.00  0.00    -0.267 OA
HETATM    2  N1  UNK     1      19.813  -3.325  34.978  1.00  0.00    -0.352 N 
HETATM    3  C6  UNK     1      20.803  -2.520  34.446  1.00  0.00     0.258 C 
HETATM    4  H9  UNK     1      19.109  -3.728  34.367  1.00  0.00     0.163 HD
ENDROOT
BRANCH   3   5
HETATM    5  C7  UNK     1      20.620  -2.260  33.014  1.00  0.00     0.108 A 
HETATM    6  C10 UNK     1      20.050  -1.092  32.692  1.00  0.00     0.037 A 
HETATM    7  C11 UNK     1      19.827  -0.744  31.298  1.00  0.00     0.000 A 
HETATM    8  C12 UNK     1      20.215  -1.643  30.309  1.00  0.00     0.089 A 
HETATM    9  C17 UNK     1      19.236   0.463  30.916  1.00  0.00     0.033 A 
HETATM   10  O1  UNK     1      20.814  -2.870  30.654  1.00  0.00    -0.274 OA
HETATM   11  C18 UNK     1      20.028  -1.372  28.956  1.00  0.00     0.039 A 
HETATM   12  C13 UNK     1      21.040  -3.231  31.979  1.00  0.00     0.304 A 
HETATM   13  O3  UNK     1      21.562  -4.302  32.271  1.00  0.00    -0.259 OA
HETATM   14  C20 UNK     1      19.439  -0.165  28.584  1.00  0.00     0.022 A 
HETATM   15  C19 UNK     1      19.044   0.750  29.562  1.00  0.00     0.011 A 
HETATM   16 Br1  UNK     1      18.245   2.386  29.050  1.00  0.00    -0.051 Br
ENDBRANCH   3   5
BRANCH   2  17
HETATM   17  C1  UNK     1      19.780  -3.720  36.368  1.00  0.00     0.081 C 
HETATM   18  C4  UNK     1      19.095  -5.081  36.497  1.00  0.00     0.032 C 
BRANCH  17  19
HETATM   19  C2  UNK     1      19.048  -2.668  37.222  1.00  0.00     0.029 C 
BRANCH  19  20
HETATM   20  C3  UNK     1      17.725  -2.159  36.628  1.00  0.00     0.040 C 
BRANCH  20  21
HETATM   21  C5  UNK     1      17.841  -0.823  35.936  1.00  0.00    -0.058 A 
HETATM   22  C8  UNK     1      16.984  -0.522  34.890  1.00  0.00     0.007 A 
HETATM   23  C14 UNK     1      17.091   0.713  34.249  1.00  0.00     0.001 A 
HETATM   24  C16 UNK     1      18.057   1.630  34.663  1.00  0.00     0.000 A 
HETATM   25  C15 UNK     1      18.914   1.314  35.717  1.00  0.00     0.001 A 
HETATM   26  C9  UNK     1      18.805   0.080  36.357  1.00  0.00     0.007 A 
ENDBRANCH  20  21
ENDBRANCH  19  20
ENDBRANCH  17  19
ENDBRANCH   2  17
TORSDOF 5
ENDMDL
MODEL 2
REMARK VINA RESULT:      -7.9      4.620      7.911
REMARK  5 active torsions:
REMARK  status: ('A' for Active; 'I' for Inactive)
REMARK    1  A    between atoms: C1_6  and  N1_5 
REMARK       I    between atoms: C6_11  and  N1_5 
REMARK    2  A    between atoms: C1_6  and  C2_7 
REMARK    3  A    between atoms: C2_7  and  C3_8 
REMARK    4  A    between atoms: C3_8  and  C5_10 
REMARK    5  A    between atoms: C6_11  and  C7_12 
ROOT
HETATM    1  O2  UNK     1      20.497  -3.948  37.729  1.00  0.00    -0.267 OA
HETATM    2  N1  UNK     1      19.812  -3.973  35.501  1.00  0.00    -0.352 N 
HETATM    3  C6  UNK     1      20.115  -4.544  36.723  1.00  0.00     0.258 C 
HETATM    4  H9  UNK     1      19.430  -4.548  34.757  1.00  0.00     0.163 HD
ENDROOT
BRANCH   3   5
HETATM    5  C7  UNK     1      19.936  -6.001  36.733  1.00  0.00     0.108 A 
HETATM    6  C10 UNK     1      21.035  -6.734  36.516  1.00  0.00     0.037 A 
HETATM    7  C11 UNK     1      20.957  -8.186  36.508  1.00  0.00     0.000 A 
HETATM    8  C12 UNK     1      19.726  -8.796  36.728  1.00  0.00     0.089 A 
HETATM    9  C17 UNK     1      22.078  -8.991  36.286  1.00  0.00     0.033 A 
HETATM   10  O1  UNK     1      18.573  -8.019  36.956  1.00  0.00    -0.274 OA
HETATM   11  C18 UNK     1      19.583 -10.182  36.731  1.00  0.00     0.039 A 
HETATM   12  C13 UNK     1      18.616  -6.628  36.970  1.00  0.00     0.304 A 
HETATM   13  O3  UNK     1      17.607  -5.959  37.168  1.00  0.00    -0.259 OA
HETATM   14  C20 UNK     1      20.705 -10.977  36.510  1.00  0.00     0.022 A 
HETATM   15  C19 UNK     1      21.950 -10.383  36.287  1.00  0.00     0.011 A 
HETATM   16 Br1  UNK     1      23.470 -11.468  35.987  1.00  0.00    -0.051 Br
ENDBRANCH   3   5
BRANCH   2  17
HETATM   17  C1  UNK     1      19.910  -2.554  35.249  1.00  0.00     0.081 C 
HETATM   18  C4  UNK     1      18.595  -1.873  35.632  1.00  0.00     0.032 C 
BRANCH  17  19
HETATM   19  C2  UNK     1      20.244  -2.280  33.770  1.00  0.00     0.029 C 
BRANCH  19  20
HETATM   20  C3  UNK     1      19.217  -1.414  33.023  1.00  0.00     0.040 C 
BRANCH  20  21
HETATM   21  C5  UNK     1      19.616  -1.079  31.608  1.00  0.00    -0.058 A 
HETATM   22  C8  UNK     1      19.455   0.217  31.144  1.00  0.00     0.007 A 
HETATM   23  C14 UNK     1      19.823   0.527  29.835  1.00  0.00     0.001 A 
HETATM   24  C16 UNK     1      20.349  -0.464  29.005  1.00  0.00     0.000 A 
HETATM   25  C15 UNK     1      20.506  -1.764  29.485  1.00  0.00     0.001 A 
HETATM   26  C9  UNK     1      20.138  -2.073  30.794  1.00  0.00     0.007 A 
ENDBRANCH  20  21
ENDBRANCH  19  20
ENDBRANCH  17  19
ENDBRANCH   2  17
TORSDOF 5
ENDMDL
MODEL 3
REMARK VINA RESULT:      -7.9      5.075      7.651
REMARK  5 active torsions:
REMARK  status: ('A' for Active; 'I' for Inactive)
REMARK    1  A    between atoms: C1_6  and  N1_5 
REMARK       I    between atoms: C6_11  and  N1_5 
REMARK    2  A    between atoms: C1_6  and  C2_7 
REMARK    3  A    between atoms: C2_7  and  C3_8 
REMARK    4  A    between atoms: C3_8  and  C5_10 
REMARK    5  A    between atoms: C6_11  and  C7_12 
ROOT
HETATM    1  O2  UNK     1      18.265   2.699  29.267  1.00  0.00    -0.267 OA
HETATM    2  N1  UNK     1      19.166   4.146  30.857  1.00  0.00    -0.352 N 
HETATM    3  C6  UNK     1      18.689   2.932  30.397  1.00  0.00     0.258 C 
HETATM    4  H9  UNK     1      19.565   4.210  31.788  1.00  0.00     0.163 HD
ENDROOT
BRANCH   3   5
HETATM    5  C7  UNK     1      18.731   1.878  31.418  1.00  0.00     0.108 A 
HETATM    6  C10 UNK     1      18.321   2.225  32.644  1.00  0.00     0.037 A 
HETATM    7  C11 UNK     1      18.325   1.250  33.723  1.00  0.00     0.000 A 
HETATM    8  C12 UNK     1      18.763  -0.045  33.458  1.00  0.00     0.089 A 
HETATM    9  C17 UNK     1      17.906   1.567  35.017  1.00  0.00     0.033 A 
HETATM   10  O1  UNK     1      19.193  -0.404  32.165  1.00  0.00    -0.274 OA
HETATM   11  C18 UNK     1      18.794  -1.026  34.446  1.00  0.00     0.039 A 
HETATM   12  C13 UNK     1      19.200   0.508  31.113  1.00  0.00     0.304 A 
HETATM   13  O3  UNK     1      19.578   0.187  29.991  1.00  0.00    -0.259 OA
HETATM   14  C20 UNK     1      18.373  -0.701  35.734  1.00  0.00     0.022 A 
HETATM   15  C19 UNK     1      17.931   0.593  36.019  1.00  0.00     0.011 A 
HETATM   16 Br1  UNK     1      17.361   1.027  37.769  1.00  0.00    -0.051 Br
ENDBRANCH   3   5
BRANCH   2  17
HETATM   17  C1  UNK     1      19.225   5.331  30.033  1.00  0.00     0.081 C 
HETATM   18  C4  UNK     1      20.634   5.923  30.089  1.00  0.00     0.032 C 
BRANCH  17  19
HETATM   19  C2  UNK     1      18.187   6.373  30.493  1.00  0.00     0.029 C 
BRANCH  19  20
HETATM   20  C3  UNK     1      17.779   6.271  31.971  1.00  0.00     0.040 C 
BRANCH  20  21
HETATM   21  C5  UNK     1      18.336   7.375  32.836  1.00  0.00    -0.058 A 
HETATM   22  C8  UNK     1      17.587   8.522  33.042  1.00  0.00     0.007 A 
HETATM   23  C14 UNK     1      18.103   9.543  33.841  1.00  0.00     0.001 A 
HETATM   24  C16 UNK     1      19.363   9.403  34.424  1.00  0.00     0.000 A 
HETATM   25  C15 UNK     1      20.106   8.242  34.208  1.00  0.00     0.001 A 
HETATM   26  C9  UNK     1      19.590   7.222  33.409  1.00  0.00     0.007 A 
ENDBRANCH  20  21
ENDBRANCH  19  20
ENDBRANCH  17  19
ENDBRANCH   2  17
TORSDOF 5
ENDMDL
MODEL 4
REMARK VINA RESULT:      -7.8     24.929     27.603
REMARK  5 active torsions:
REMARK  status: ('A' for Active; 'I' for Inactive)
REMARK    1  A    between atoms: C1_6  and  N1_5 
REMARK       I    between atoms: C6_11  and  N1_5 
REMARK    2  A    between atoms: C1_6  and  C2_7 
REMARK    3  A    between atoms: C2_7  and  C3_8 
REMARK    4  A    between atoms: C3_8  and  C5_10 
REMARK    5  A    between atoms: C6_11  and  C7_12 
ROOT
HETATM    1  O2  UNK     1      14.162   7.956  11.016  1.00  0.00    -0.267 OA
HETATM    2  N1  UNK     1      15.046   6.586   9.350  1.00  0.00    -0.352 N 
HETATM    3  C6  UNK     1      14.906   7.767  10.055  1.00  0.00     0.258 C 
HETATM    4  H9  UNK     1      15.748   6.515   8.620  1.00  0.00     0.163 HD
ENDROOT
BRANCH   3   5
HETATM    5  C7  UNK     1      15.763   8.843   9.544  1.00  0.00     0.108 A 
HETATM    6  C10 UNK     1      15.139   9.859   8.935  1.00  0.00     0.037 A 
HETATM    7  C11 UNK     1      15.904  10.972   8.395  1.00  0.00     0.000 A 
HETATM    8  C12 UNK     1      17.290  10.961   8.522  1.00  0.00     0.089 A 
HETATM    9  C17 UNK     1      15.295  12.053   7.752  1.00  0.00     0.033 A 
HETATM   10  O1  UNK     1      17.940   9.890   9.165  1.00  0.00    -0.274 OA
HETATM   11  C18 UNK     1      18.080  11.996   8.027  1.00  0.00     0.039 A 
HETATM   12  C13 UNK     1      17.236   8.811   9.691  1.00  0.00     0.304 A 
HETATM   13  O3  UNK     1      17.811   7.881  10.247  1.00  0.00    -0.259 OA
HETATM   14  C20 UNK     1      17.465  13.070   7.388  1.00  0.00     0.022 A 
HETATM   15  C19 UNK     1      16.075  13.098   7.251  1.00  0.00     0.011 A 
HETATM   16 Br1  UNK     1      15.245  14.559   6.383  1.00  0.00    -0.051 Br
ENDBRANCH   3   5
BRANCH   2  17
HETATM   17  C1  UNK     1      14.308   5.386   9.670  1.00  0.00     0.081 C 
HETATM   18  C4  UNK     1      15.284   4.261  10.016  1.00  0.00     0.032 C 
BRANCH  17  19
HETATM   19  C2  UNK     1      13.403   4.968   8.495  1.00  0.00     0.029 C 
BRANCH  19  20
HETATM   20  C3  UNK     1      12.975   6.116   7.567  1.00  0.00     0.040 C 
BRANCH  20  21
HETATM   21  C5  UNK     1      11.493   6.152   7.285  1.00  0.00    -0.058 A 
HETATM   22  C8  UNK     1      10.597   6.049   8.336  1.00  0.00     0.007 A 
HETATM   23  C14 UNK     1       9.227   6.081   8.075  1.00  0.00     0.001 A 
HETATM   24  C16 UNK     1       8.771   6.216   6.764  1.00  0.00     0.000 A 
HETATM   25  C15 UNK     1       9.684   6.319   5.715  1.00  0.00     0.001 A 
HETATM   26  C9  UNK     1      11.053   6.287   5.977  1.00  0.00     0.007 A 
ENDBRANCH  20  21
ENDBRANCH  19  20
ENDBRANCH  17  19
ENDBRANCH   2  17
TORSDOF 5
ENDMDL
MODEL 5
REMARK VINA RESULT:      -7.7      2.283      5.131
REMARK  5 active torsions:
REMARK  status: ('A' for Active; 'I' for Inactive)
REMARK    1  A    between atoms: C1_6  and  N1_5 
REMARK       I    between atoms: C6_11  and  N1_5 
REMARK    2  A    between atoms: C1_6  and  C2_7 
REMARK    3  A    between atoms: C2_7  and  C3_8 
REMARK    4  A    between atoms: C3_8  and  C5_10 
REMARK    5  A    between atoms: C6_11  and  C7_12 
ROOT
HETATM    1  O2  UNK     1      20.128  -1.432  35.644  1.00  0.00    -0.267 OA
HETATM    2  N1  UNK     1      19.801  -3.682  35.132  1.00  0.00    -0.352 N 
HETATM    3  C6  UNK     1      20.018  -2.349  34.833  1.00  0.00     0.258 C 
HETATM    4  H9  UNK     1      19.803  -4.372  34.387  1.00  0.00     0.163 HD
ENDROOT
BRANCH   3   5
HETATM    5  C7  UNK     1      20.115  -2.096  33.391  1.00  0.00     0.108 A 
HETATM    6  C10 UNK     1      19.526  -0.980  32.945  1.00  0.00     0.037 A 
HETATM    7  C11 UNK     1      19.569  -0.642  31.531  1.00  0.00     0.000 A 
HETATM    8  C12 UNK     1      20.230  -1.497  30.654  1.00  0.00     0.089 A 
HETATM    9  C17 UNK     1      18.967   0.512  31.021  1.00  0.00     0.033 A 
HETATM   10  O1  UNK     1      20.849  -2.670  31.130  1.00  0.00    -0.274 OA
HETATM   11  C18 UNK     1      20.307  -1.233  29.289  1.00  0.00     0.039 A 
HETATM   12  C13 UNK     1      20.824  -3.019  32.477  1.00  0.00     0.304 A 
HETATM   13  O3  UNK     1      21.364  -4.043  32.882  1.00  0.00    -0.259 OA
HETATM   14  C20 UNK     1      19.705  -0.080  28.789  1.00  0.00     0.022 A 
HETATM   15  C19 UNK     1      19.037   0.790  29.653  1.00  0.00     0.011 A 
HETATM   16 Br1  UNK     1      18.223   2.354  28.968  1.00  0.00    -0.051 Br
ENDBRANCH   3   5
BRANCH   2  17
HETATM   17  C1  UNK     1      19.673  -4.175  36.484  1.00  0.00     0.081 C 
HETATM   18  C4  UNK     1      21.057  -4.272  37.127  1.00  0.00     0.032 C 
BRANCH  17  19
HETATM   19  C2  UNK     1      18.975  -5.548  36.504  1.00  0.00     0.029 C 
BRANCH  19  20
HETATM   20  C3  UNK     1      19.878  -6.739  36.144  1.00  0.00     0.040 C 
BRANCH  20  21
HETATM   21  C5  UNK     1      19.789  -7.888  37.117  1.00  0.00    -0.058 A 
HETATM   22  C8  UNK     1      19.551  -9.168  36.641  1.00  0.00     0.007 A 
HETATM   23  C14 UNK     1      19.468 -10.230  37.541  1.00  0.00     0.001 A 
HETATM   24  C16 UNK     1      19.624  -9.999  38.907  1.00  0.00     0.000 A 
HETATM   25  C15 UNK     1      19.863  -8.707  39.374  1.00  0.00     0.001 A 
HETATM   26  C9  UNK     1      19.946  -7.645  38.474  1.00  0.00     0.007 A 
ENDBRANCH  20  21
ENDBRANCH  19  20
ENDBRANCH  17  19
ENDBRANCH   2  17
TORSDOF 5
ENDMDL
MODEL 6
REMARK VINA RESULT:      -7.7      7.611     10.550
REMARK  5 active torsions:
REMARK  status: ('A' for Active; 'I' for Inactive)
REMARK    1  A    between atoms: C1_6  and  N1_5 
REMARK       I    between atoms: C6_11  and  N1_5 
REMARK    2  A    between atoms: C1_6  and  C2_7 
REMARK    3  A    between atoms: C2_7  and  C3_8 
REMARK    4  A    between atoms: C3_8  and  C5_10 
REMARK    5  A    between atoms: C6_11  and  C7_12 
ROOT
HETATM    1  O2  UNK     1      18.865   6.655  33.861  1.00  0.00    -0.267 OA
HETATM    2  N1  UNK     1      18.295   6.180  31.651  1.00  0.00    -0.352 N 
HETATM    3  C6  UNK     1      18.171   6.837  32.862  1.00  0.00     0.258 C 
HETATM    4  H9  UNK     1      17.719   6.461  30.864  1.00  0.00     0.163 HD
ENDROOT
BRANCH   3   5
HETATM    5  C7  UNK     1      17.088   7.827  32.866  1.00  0.00     0.108 A 
HETATM    6  C10 UNK     1      16.747   8.325  34.061  1.00  0.00     0.037 A 
HETATM    7  C11 UNK     1      15.685   9.313  34.167  1.00  0.00     0.000 A 
HETATM    8  C12 UNK     1      15.032   9.728  33.009  1.00  0.00     0.089 A 
HETATM    9  C17 UNK     1      15.295   9.860  35.392  1.00  0.00     0.033 A 
HETATM   10  O1  UNK     1      15.397   9.199  31.755  1.00  0.00    -0.274 OA
HETATM   11  C18 UNK     1      14.006  10.669  33.042  1.00  0.00     0.039 A 
HETATM   12  C13 UNK     1      16.409   8.253  31.622  1.00  0.00     0.304 A 
HETATM   13  O3  UNK     1      16.718   7.798  30.526  1.00  0.00    -0.259 OA
HETATM   14  C20 UNK     1      13.625  11.210  34.268  1.00  0.00     0.022 A 
HETATM   15  C19 UNK     1      14.268  10.806  35.440  1.00  0.00     0.011 A 
HETATM   16 Br1  UNK     1      13.745  11.545  37.101  1.00  0.00    -0.051 Br
ENDBRANCH   3   5
BRANCH   2  17
HETATM   17  C1  UNK     1      19.292   5.163  31.405  1.00  0.00     0.081 C 
HETATM   18  C4  UNK     1      20.610   5.825  31.002  1.00  0.00     0.032 C 
BRANCH  17  19
HETATM   19  C2  UNK     1      18.824   4.188  30.308  1.00  0.00     0.029 C 
BRANCH  19  20
HETATM   20  C3  UNK     1      18.275   2.848  30.822  1.00  0.00     0.040 C 
BRANCH  20  21
HETATM   21  C5  UNK     1      18.851   1.643  30.121  1.00  0.00    -0.058 A 
HETATM   22  C8  UNK     1      18.370   1.289  28.870  1.00  0.00     0.007 A 
HETATM   23  C14 UNK     1      18.902   0.175  28.222  1.00  0.00     0.001 A 
HETATM   24  C16 UNK     1      19.909  -0.572  28.833  1.00  0.00     0.000 A 
HETATM   25  C15 UNK     1      20.385  -0.204  30.092  1.00  0.00     0.001 A 
HETATM   26  C9  UNK     1      19.852   0.910  30.739  1.00  0.00     0.007 A 
ENDBRANCH  20  21
ENDBRANCH  19  20
ENDBRANCH  17  19
ENDBRANCH   2  17
TORSDOF 5
ENDMDL
MODEL 7
REMARK VINA RESULT:      -7.7      7.428     10.398
REMARK  5 active torsions:
REMARK  status: ('A' for Active; 'I' for Inactive)
REMARK    1  A    between atoms: C1_6  and  N1_5 
REMARK       I    between atoms: C6_11  and  N1_5 
REMARK    2  A    between atoms: C1_6  and  C2_7 
REMARK    3  A    between atoms: C2_7  and  C3_8 
REMARK    4  A    between atoms: C3_8  and  C5_10 
REMARK    5  A    between atoms: C6_11  and  C7_12 
ROOT
HETATM    1  O2  UNK     1      17.791   5.273  33.545  1.00  0.00    -0.267 OA
HETATM    2  N1  UNK     1      18.303   6.124  31.436  1.00  0.00    -0.352 N 
HETATM    3  C6  UNK     1      17.650   6.110  32.655  1.00  0.00     0.258 C 
HETATM    4  H9  UNK     1      18.170   6.906  30.802  1.00  0.00     0.163 HD
ENDROOT
BRANCH   3   5
HETATM    5  C7  UNK     1      16.722   7.234  32.818  1.00  0.00     0.108 A 
HETATM    6  C10 UNK     1      17.215   8.327  33.415  1.00  0.00     0.037 A 
HETATM    7  C11 UNK     1      16.372   9.494  33.621  1.00  0.00     0.000 A 
HETATM    8  C12 UNK     1      15.049   9.453  33.190  1.00  0.00     0.089 A 
HETATM    9  C17 UNK     1      16.844  10.655  34.239  1.00  0.00     0.033 A 
HETATM   10  O1  UNK     1      14.536   8.301  32.563  1.00  0.00    -0.274 OA
HETATM   11  C18 UNK     1      14.189  10.536  33.359  1.00  0.00     0.039 A 
HETATM   12  C13 UNK     1      15.319   7.169  32.351  1.00  0.00     0.304 A 
HETATM   13  O3  UNK     1      14.863   6.170  31.806  1.00  0.00    -0.259 OA
HETATM   14  C20 UNK     1      14.668  11.690  33.974  1.00  0.00     0.022 A 
HETATM   15  C19 UNK     1      15.993  11.749  34.414  1.00  0.00     0.011 A 
HETATM   16 Br1  UNK     1      16.637  13.319  35.249  1.00  0.00    -0.051 Br
ENDBRANCH   3   5
BRANCH   2  17
HETATM   17  C1  UNK     1      19.267   5.120  31.047  1.00  0.00     0.081 C 
HETATM   18  C4  UNK     1      20.390   5.773  30.240  1.00  0.00     0.032 C 
BRANCH  17  19
HETATM   19  C2  UNK     1      18.596   4.003  30.225  1.00  0.00     0.029 C 
BRANCH  19  20
HETATM   20  C3  UNK     1      18.444   2.661  30.959  1.00  0.00     0.040 C 
BRANCH  20  21
HETATM   21  C5  UNK     1      18.980   1.480  30.188  1.00  0.00    -0.058 A 
HETATM   22  C8  UNK     1      19.966   0.689  30.754  1.00  0.00     0.007 A 
HETATM   23  C14 UNK     1      20.463  -0.403  30.041  1.00  0.00     0.001 A 
HETATM   24  C16 UNK     1      19.965  -0.689  28.770  1.00  0.00     0.000 A 
HETATM   25  C15 UNK     1      18.971   0.116  28.212  1.00  0.00     0.001 A 
HETATM   26  C9  UNK     1      18.476   1.207  28.926  1.00  0.00     0.007 A 
ENDBRANCH  20  21
ENDBRANCH  19  20
ENDBRANCH  17  19
ENDBRANCH   2  17
TORSDOF 5
ENDMDL
MODEL 8
REMARK VINA RESULT:      -7.6      3.065      6.215
REMARK  5 active torsions:
REMARK  status: ('A' for Active; 'I' for Inactive)
REMARK    1  A    between atoms: C1_6  and  N1_5 
REMARK       I    between atoms: C6_11  and  N1_5 
REMARK    2  A    between atoms: C1_6  and  C2_7 
REMARK    3  A    between atoms: C2_7  and  C3_8 
REMARK    4  A    between atoms: C3_8  and  C5_10 
REMARK    5  A    between atoms: C6_11  and  C7_12 
ROOT
HETATM    1  O2  UNK     1      20.074  -2.512  30.713  1.00  0.00    -0.267 OA
HETATM    2  N1  UNK     1      19.369  -0.291  30.788  1.00  0.00    -0.352 N 
HETATM    3  C6  UNK     1      19.682  -1.524  31.332  1.00  0.00     0.258 C 
HETATM    4  H9  UNK     1      19.129   0.483  31.400  1.00  0.00     0.163 HD
ENDROOT
BRANCH   3   5
HETATM    5  C7  UNK     1      19.505  -1.567  32.788  1.00  0.00     0.108 A 
HETATM    6  C10 UNK     1      18.622  -0.702  33.303  1.00  0.00     0.037 A 
HETATM    7  C11 UNK     1      18.377  -0.670  34.736  1.00  0.00     0.000 A 
HETATM    8  C12 UNK     1      19.074  -1.551  35.558  1.00  0.00     0.089 A 
HETATM    9  C17 UNK     1      17.465   0.215  35.317  1.00  0.00     0.033 A 
HETATM   10  O1  UNK     1      20.001  -2.459  35.010  1.00  0.00    -0.274 OA
HETATM   11  C18 UNK     1      18.887  -1.571  36.938  1.00  0.00     0.039 A 
HETATM   12  C13 UNK     1      20.257  -2.513  33.643  1.00  0.00     0.304 A 
HETATM   13  O3  UNK     1      21.067  -3.306  33.174  1.00  0.00    -0.259 OA
HETATM   14  C20 UNK     1      17.975  -0.685  37.509  1.00  0.00     0.022 A 
HETATM   15  C19 UNK     1      17.267   0.206  36.700  1.00  0.00     0.011 A 
HETATM   16 Br1  UNK     1      16.030   1.406  37.481  1.00  0.00    -0.051 Br
ENDBRANCH   3   5
BRANCH   2  17
HETATM   17  C1  UNK     1      19.468  -0.005  29.375  1.00  0.00     0.081 C 
HETATM   18  C4  UNK     1      20.892  -0.287  28.894  1.00  0.00     0.032 C 
BRANCH  17  19
HETATM   19  C2  UNK     1      19.083   1.457  29.082  1.00  0.00     0.029 C 
BRANCH  19  20
HETATM   20  C3  UNK     1      18.068   2.068  30.060  1.00  0.00     0.040 C 
BRANCH  20  21
HETATM   21  C5  UNK     1      18.467   3.425  30.585  1.00  0.00    -0.058 A 
HETATM   22  C8  UNK     1      18.192   3.754  31.903  1.00  0.00     0.007 A 
HETATM   23  C14 UNK     1      18.560   5.009  32.388  1.00  0.00     0.001 A 
HETATM   24  C16 UNK     1      19.199   5.920  31.547  1.00  0.00     0.000 A 
HETATM   25  C15 UNK     1      19.469   5.577  30.222  1.00  0.00     0.001 A 
HETATM   26  C9  UNK     1      19.101   4.322  29.738  1.00  0.00     0.007 A 
ENDBRANCH  20  21
ENDBRANCH  19  20
ENDBRANCH  17  19
ENDBRANCH   2  17
TORSDOF 5
ENDMDL
MODEL 9
REMARK VINA RESULT:      -7.5      5.009      7.637
REMARK  5 active torsions:
REMARK  status: ('A' for Active; 'I' for Inactive)
REMARK    1  A    between atoms: C1_6  and  N1_5 
REMARK       I    between atoms: C6_11  and  N1_5 
REMARK    2  A    between atoms: C1_6  and  C2_7 
REMARK    3  A    between atoms: C2_7  and  C3_8 
REMARK    4  A    between atoms: C3_8  and  C5_10 
REMARK    5  A    between atoms: C6_11  and  C7_12 
ROOT
HETATM    1  O2  UNK     1      18.116   2.863  29.394  1.00  0.00    -0.267 OA
HETATM    2  N1  UNK     1      19.034   4.280  31.001  1.00  0.00    -0.352 N 
HETATM    3  C6  UNK     1      18.552   3.075  30.524  1.00  0.00     0.258 C 
HETATM    4  H9  UNK     1      19.444   4.327  31.928  1.00  0.00     0.163 HD
ENDROOT
BRANCH   3   5
HETATM    5  C7  UNK     1      18.604   2.003  31.524  1.00  0.00     0.108 A 
HETATM    6  C10 UNK     1      18.245   2.338  32.770  1.00  0.00     0.037 A 
HETATM    7  C11 UNK     1      18.263   1.344  33.831  1.00  0.00     0.000 A 
HETATM    8  C12 UNK     1      18.659   0.044  33.530  1.00  0.00     0.089 A 
HETATM    9  C17 UNK     1      17.898   1.649  35.145  1.00  0.00     0.033 A 
HETATM   10  O1  UNK     1      19.035  -0.302  32.217  1.00  0.00    -0.274 OA
HETATM   11  C18 UNK     1      18.700  -0.955  34.500  1.00  0.00     0.039 A 
HETATM   12  C13 UNK     1      19.027   0.627  31.181  1.00  0.00     0.304 A 
HETATM   13  O3  UNK     1      19.357   0.317  30.041  1.00  0.00    -0.259 OA
HETATM   14  C20 UNK     1      18.333  -0.642  35.807  1.00  0.00     0.022 A 
HETATM   15  C19 UNK     1      17.933   0.657  36.129  1.00  0.00     0.011 A 
HETATM   16 Br1  UNK     1      17.435   1.074  37.905  1.00  0.00    -0.051 Br
ENDBRANCH   3   5
BRANCH   2  17
HETATM   17  C1  UNK     1      19.086   5.480  30.198  1.00  0.00     0.081 C 
HETATM   18  C4  UNK     1      20.533   5.966  30.097  1.00  0.00     0.032 C 
BRANCH  17  19
HETATM   19  C2  UNK     1      18.191   6.582  30.798  1.00  0.00     0.029 C 
BRANCH  19  20
HETATM   20  C3  UNK     1      17.915   6.443  32.303  1.00  0.00     0.040 C 
BRANCH  20  21
HETATM   21  C5  UNK     1      16.532   6.886  32.712  1.00  0.00    -0.058 A 
HETATM   22  C8  UNK     1      16.329   7.398  33.984  1.00  0.00     0.007 A 
HETATM   23  C14 UNK     1      15.050   7.806  34.363  1.00  0.00     0.001 A 
HETATM   24  C16 UNK     1      13.989   7.697  33.464  1.00  0.00     0.000 A 
HETATM   25  C15 UNK     1      14.207   7.179  32.187  1.00  0.00     0.001 A 
HETATM   26  C9  UNK     1      15.486   6.772  31.809  1.00  0.00     0.007 A 
ENDBRANCH  20  21
ENDBRANCH  19  20
ENDBRANCH  17  19
ENDBRANCH   2  17
TORSDOF 5
ENDMDL
MODEL 10
REMARK VINA RESULT:      -7.4      2.752      5.233
REMARK  5 active torsions:
REMARK  status: ('A' for Active; 'I' for Inactive)
REMARK    1  A    between atoms: C1_6  and  N1_5 
REMARK       I    between atoms: C6_11  and  N1_5 
REMARK    2  A    between atoms: C1_6  and  C2_7 
REMARK    3  A    between atoms: C2_7  and  C3_8 
REMARK    4  A    between atoms: C3_8  and  C5_10 
REMARK    5  A    between atoms: C6_11  and  C7_12 
ROOT
HETATM    1  O2  UNK     1      16.643  -0.754  35.428  1.00  0.00    -0.267 OA
HETATM    2  N1  UNK     1      18.855  -1.489  35.387  1.00  0.00    -0.352 N 
HETATM    3  C6  UNK     1      17.776  -0.743  34.950  1.00  0.00     0.258 C 
HETATM    4  H9  UNK     1      19.769  -1.346  34.970  1.00  0.00     0.163 HD
ENDROOT
BRANCH   3   5
HETATM    5  C7  UNK     1      18.103   0.117  33.807  1.00  0.00     0.108 A 
HETATM    6  C10 UNK     1      17.938   1.433  33.990  1.00  0.00     0.037 A 
HETATM    7  C11 UNK     1      18.236   2.366  32.915  1.00  0.00     0.000 A 
HETATM    8  C12 UNK     1      18.693   1.868  31.698  1.00  0.00     0.089 A 
HETATM    9  C17 UNK     1      18.079   3.747  33.061  1.00  0.00     0.033 A 
HETATM   10  O1  UNK     1      18.865   0.483  31.512  1.00  0.00    -0.274 OA
HETATM   11  C18 UNK     1      18.996   2.708  30.629  1.00  0.00     0.039 A 
HETATM   12  C13 UNK     1      18.588  -0.435  32.522  1.00  0.00     0.304 A 
HETATM   13  O3  UNK     1      18.740  -1.639  32.351  1.00  0.00    -0.259 OA
HETATM   14  C20 UNK     1      18.837   4.083  30.783  1.00  0.00     0.022 A 
HETATM   15  C19 UNK     1      18.379   4.601  31.997  1.00  0.00     0.011 A 
HETATM   16 Br1  UNK     1      18.165   6.470  32.200  1.00  0.00    -0.051 Br
ENDBRANCH   3   5
BRANCH   2  17
HETATM   17  C1  UNK     1      18.778  -2.407  36.501  1.00  0.00     0.081 C 
HETATM   18  C4  UNK     1      18.603  -1.622  37.801  1.00  0.00     0.032 C 
BRANCH  17  19
HETATM   19  C2  UNK     1      20.038  -3.290  36.573  1.00  0.00     0.029 C 
BRANCH  19  20
HETATM   20  C3  UNK     1      19.840  -4.741  36.107  1.00  0.00     0.040 C 
BRANCH  20  21
HETATM   21  C5  UNK     1      19.905  -5.755  37.222  1.00  0.00    -0.058 A 
HETATM   22  C8  UNK     1      18.970  -6.777  37.268  1.00  0.00     0.007 A 
HETATM   23  C14 UNK     1      19.029  -7.715  38.299  1.00  0.00     0.001 A 
HETATM   24  C16 UNK     1      20.023  -7.617  39.272  1.00  0.00     0.000 A 
HETATM   25  C15 UNK     1      20.958  -6.583  39.214  1.00  0.00     0.001 A 
HETATM   26  C9  UNK     1      20.898  -5.647  38.183  1.00  0.00     0.007 A 
ENDBRANCH  20  21
ENDBRANCH  19  20
ENDBRANCH  17  19
ENDBRANCH   2  17
TORSDOF 5
ENDMDL
