MODEL 1
REMARK VINA RESULT:      -9.1      0.000      0.000
REMARK  5 active torsions:
REMARK  status: ('A' for Active; 'I' for Inactive)
REMARK    1  A    between atoms: C11_16  and  O2_2 
REMARK    2  A    between atoms: C6_11  and  O2_2 
REMARK    3  A    between atoms: C12_17  and  O3_3 
REMARK    4  A    between atoms: C13_18  and  O3_3 
REMARK    5  A    between atoms: C11_16  and  C12_17 
ROOT
HETATM    1  O1  UNK     1      16.701   7.816  32.515  1.00  0.00    -0.275 OA
HETATM    2  O4  UNK     1      15.549   9.536  33.486  1.00  0.00    -0.260 OA
HETATM    3  C1  UNK     1      19.073   7.530  33.023  1.00  0.00     0.004 A 
HETATM    4  C2  UNK     1      17.917   7.123  32.355  1.00  0.00     0.092 A 
HETATM    5  C3  UNK     1      19.000   8.703  33.904  1.00  0.00    -0.043 A 
HETATM    6  C4  UNK     1      20.242   6.787  32.811  1.00  0.00     0.017 A 
HETATM    7  C5  UNK     1      17.900   6.020  31.499  1.00  0.00     0.075 A 
HETATM    8  C6  UNK     1      19.071   5.295  31.302  1.00  0.00     0.072 A 
HETATM    9  C7  UNK     1      20.241   5.679  31.956  1.00  0.00     0.038 A 
HETATM   10  C8  UNK     1      17.830   9.342  34.038  1.00  0.00     0.090 A 
HETATM   11  C9  UNK     1      20.226   9.166  34.637  1.00  0.00     0.049 C 
HETATM   12  C10 UNK     1      16.602   8.925  33.340  1.00  0.00     0.288 A 
ENDROOT
BRANCH   8  13
HETATM   13  O2  UNK     1      19.076   4.217  30.473  1.00  0.00    -0.341 OA
BRANCH  13  14
HETATM   14  C11 UNK     1      18.247   3.113  30.837  1.00  0.00     0.287 C 
BRANCH  14  15
HETATM   15  C12 UNK     1      18.318   2.074  29.748  1.00  0.00     0.288 C 
HETATM   16  O5  UNK     1      17.365   1.671  29.096  1.00  0.00    -0.262 OA
BRANCH  15  17
HETATM   17  O3  UNK     1      19.644   1.666  29.625  1.00  0.00    -0.277 OA
BRANCH  17  18
HETATM   18  C13 UNK     1      19.841   0.337  30.008  1.00  0.00     0.079 A 
HETATM   19  C14 UNK     1      19.529  -0.033  31.297  1.00  0.00     0.037 A 
HETATM   20  C16 UNK     1      19.728  -1.360  31.680  1.00  0.00     0.003 A 
HETATM   21  C18 UNK     1      20.232  -2.282  30.764  1.00  0.00     0.000 A 
HETATM   22  C17 UNK     1      20.540  -1.878  29.465  1.00  0.00     0.003 A 
HETATM   23  C15 UNK     1      20.341  -0.551  29.081  1.00  0.00     0.037 A 
ENDBRANCH  17  18
ENDBRANCH  15  17
ENDBRANCH  14  15
ENDBRANCH  13  14
ENDBRANCH   8  13
TORSDOF 5
ENDMDL
MODEL 2
REMARK VINA RESULT:      -8.7      1.725      2.469
REMARK  5 active torsions:
REMARK  status: ('A' for Active; 'I' for Inactive)
REMARK    1  A    between atoms: C11_16  and  O2_2 
REMARK    2  A    between atoms: C6_11  and  O2_2 
REMARK    3  A    between atoms: C12_17  and  O3_3 
REMARK    4  A    between atoms: C13_18  and  O3_3 
REMARK    5  A    between atoms: C11_16  and  C12_17 
ROOT
HETATM    1  O1  UNK     1      20.009   7.884  33.812  1.00  0.00    -0.275 OA
HETATM    2  O4  UNK     1      21.200   9.655  34.634  1.00  0.00    -0.260 OA
HETATM    3  C1  UNK     1      17.619   8.147  33.385  1.00  0.00     0.004 A 
HETATM    4  C2  UNK     1      18.773   7.362  33.381  1.00  0.00     0.092 A 
HETATM    5  C3  UNK     1      17.714   9.537  33.850  1.00  0.00    -0.043 A 
HETATM    6  C4  UNK     1      16.429   7.554  32.940  1.00  0.00     0.017 A 
HETATM    7  C5  UNK     1      18.770   6.033  32.956  1.00  0.00     0.075 A 
HETATM    8  C6  UNK     1      17.579   5.463  32.518  1.00  0.00     0.072 A 
HETATM    9  C7  UNK     1      16.410   6.222  32.511  1.00  0.00     0.038 A 
HETATM   10  C8  UNK     1      18.902  10.006  34.254  1.00  0.00     0.090 A 
HETATM   11  C9  UNK     1      16.490  10.406  33.866  1.00  0.00     0.049 C 
HETATM   12  C10 UNK     1      20.130   9.191  34.256  1.00  0.00     0.288 A 
ENDROOT
BRANCH   8  13
HETATM   13  O2  UNK     1      17.554   4.169  32.100  1.00  0.00    -0.341 OA
BRANCH  13  14
HETATM   14  C11 UNK     1      18.496   3.793  31.095  1.00  0.00     0.287 C 
BRANCH  14  15
HETATM   15  C12 UNK     1      18.181   2.393  30.636  1.00  0.00     0.288 C 
HETATM   16  O5  UNK     1      17.548   2.107  29.629  1.00  0.00    -0.262 OA
BRANCH  15  17
HETATM   17  O3  UNK     1      18.735   1.502  31.552  1.00  0.00    -0.277 OA
BRANCH  17  18
HETATM   18  C13 UNK     1      19.350   0.407  30.941  1.00  0.00     0.079 A 
HETATM   19  C14 UNK     1      19.392  -0.792  31.619  1.00  0.00     0.037 A 
HETATM   20  C16 UNK     1      20.008  -1.885  31.009  1.00  0.00     0.003 A 
HETATM   21  C18 UNK     1      20.566  -1.751  29.738  1.00  0.00     0.000 A 
HETATM   22  C17 UNK     1      20.509  -0.525  29.076  1.00  0.00     0.003 A 
HETATM   23  C15 UNK     1      19.893   0.569  29.685  1.00  0.00     0.037 A 
ENDBRANCH  17  18
ENDBRANCH  15  17
ENDBRANCH  14  15
ENDBRANCH  13  14
ENDBRANCH   8  13
TORSDOF 5
ENDMDL
MODEL 3
REMARK VINA RESULT:      -8.5      7.637     10.051
REMARK  5 active torsions:
REMARK  status: ('A' for Active; 'I' for Inactive)
REMARK    1  A    between atoms: C11_16  and  O2_2 
REMARK    2  A    between atoms: C6_11  and  O2_2 
REMARK    3  A    between atoms: C12_17  and  O3_3 
REMARK    4  A    between atoms: C13_18  and  O3_3 
REMARK    5  A    between atoms: C11_16  and  C12_17 
ROOT
HETATM    1  O1  UNK     1      18.735   0.004  34.000  1.00  0.00    -0.275 OA
HETATM    2  O4  UNK     1      17.883   1.949  33.150  1.00  0.00    -0.260 OA
HETATM    3  C1  UNK     1      18.446  -0.490  36.373  1.00  0.00     0.004 A 
HETATM    4  C2  UNK     1      18.929  -0.839  35.112  1.00  0.00     0.092 A 
HETATM    5  C3  UNK     1      17.724   0.781  36.525  1.00  0.00    -0.043 A 
HETATM    6  C4  UNK     1      18.681  -1.383  37.428  1.00  0.00     0.017 A 
HETATM    7  C5  UNK     1      19.626  -2.027  34.882  1.00  0.00     0.075 A 
HETATM    8  C6  UNK     1      19.848  -2.900  35.942  1.00  0.00     0.072 A 
HETATM    9  C7  UNK     1      19.377  -2.578  37.214  1.00  0.00     0.038 A 
HETATM   10  C8  UNK     1      17.554   1.561  35.450  1.00  0.00     0.090 A 
HETATM   11  C9  UNK     1      17.193   1.183  37.869  1.00  0.00     0.049 C 
HETATM   12  C10 UNK     1      18.058   1.208  34.111  1.00  0.00     0.288 A 
ENDROOT
BRANCH   8  13
HETATM   13  O2  UNK     1      20.524  -4.062  35.740  1.00  0.00    -0.341 OA
BRANCH  13  14
HETATM   14  C11 UNK     1      19.805  -5.277  35.954  1.00  0.00     0.287 C 
BRANCH  14  15
HETATM   15  C12 UNK     1      20.474  -6.047  37.063  1.00  0.00     0.288 C 
HETATM   16  O5  UNK     1      21.678  -6.246  37.156  1.00  0.00    -0.262 OA
BRANCH  15  17
HETATM   17  O3  UNK     1      19.488  -6.482  37.944  1.00  0.00    -0.277 OA
BRANCH  17  18
HETATM   18  C13 UNK     1      19.486  -7.868  38.117  1.00  0.00     0.079 A 
HETATM   19  C14 UNK     1      19.032  -8.663  37.088  1.00  0.00     0.037 A 
HETATM   20  C16 UNK     1      19.029 -10.047  37.261  1.00  0.00     0.003 A 
HETATM   21  C18 UNK     1      19.481 -10.601  38.459  1.00  0.00     0.000 A 
HETATM   22  C17 UNK     1      19.935  -9.771  39.483  1.00  0.00     0.003 A 
HETATM   23  C15 UNK     1      19.938  -8.386  39.311  1.00  0.00     0.037 A 
ENDBRANCH  17  18
ENDBRANCH  15  17
ENDBRANCH  14  15
ENDBRANCH  13  14
ENDBRANCH   8  13
TORSDOF 5
ENDMDL
MODEL 4
REMARK VINA RESULT:      -8.5      4.875      8.336
REMARK  5 active torsions:
REMARK  status: ('A' for Active; 'I' for Inactive)
REMARK    1  A    between atoms: C11_16  and  O2_2 
REMARK    2  A    between atoms: C6_11  and  O2_2 
REMARK    3  A    between atoms: C12_17  and  O3_3 
REMARK    4  A    between atoms: C13_18  and  O3_3 
REMARK    5  A    between atoms: C11_16  and  C12_17 
ROOT
HETATM    1  O1  UNK     1      18.551   0.820  32.125  1.00  0.00    -0.275 OA
HETATM    2  O4  UNK     1      17.731   2.595  30.940  1.00  0.00    -0.260 OA
HETATM    3  C1  UNK     1      19.931  -0.842  30.988  1.00  0.00     0.004 A 
HETATM    4  C2  UNK     1      19.310  -0.366  32.143  1.00  0.00     0.092 A 
HETATM    5  C3  UNK     1      19.779  -0.079  29.741  1.00  0.00    -0.043 A 
HETATM    6  C4  UNK     1      20.668  -2.029  31.088  1.00  0.00     0.017 A 
HETATM    7  C5  UNK     1      19.403  -1.031  33.367  1.00  0.00     0.075 A 
HETATM    8  C6  UNK     1      20.141  -2.208  33.446  1.00  0.00     0.072 A 
HETATM    9  C7  UNK     1      20.772  -2.707  32.308  1.00  0.00     0.038 A 
HETATM   10  C8  UNK     1      19.051   1.046  29.755  1.00  0.00     0.090 A 
HETATM   11  C9  UNK     1      20.434  -0.565  28.482  1.00  0.00     0.049 C 
HETATM   12  C10 UNK     1      18.390   1.562  30.966  1.00  0.00     0.288 A 
ENDROOT
BRANCH   8  13
HETATM   13  O2  UNK     1      20.244  -2.871  34.629  1.00  0.00    -0.341 OA
BRANCH  13  14
HETATM   14  C11 UNK     1      20.463  -2.082  35.799  1.00  0.00     0.287 C 
BRANCH  14  15
HETATM   15  C12 UNK     1      19.691  -2.686  36.943  1.00  0.00     0.288 C 
HETATM   16  O5  UNK     1      20.180  -3.080  37.993  1.00  0.00    -0.262 OA
BRANCH  15  17
HETATM   17  O3  UNK     1      18.344  -2.713  36.590  1.00  0.00    -0.277 OA
BRANCH  17  18
HETATM   18  C13 UNK     1      17.734  -1.459  36.679  1.00  0.00     0.079 A 
HETATM   19  C14 UNK     1      18.037  -0.651  37.752  1.00  0.00     0.037 A 
HETATM   20  C16 UNK     1      17.427   0.600  37.842  1.00  0.00     0.003 A 
HETATM   21  C18 UNK     1      16.530   1.011  36.855  1.00  0.00     0.000 A 
HETATM   22  C17 UNK     1      16.243   0.170  35.780  1.00  0.00     0.003 A 
HETATM   23  C15 UNK     1      16.853  -1.081  35.690  1.00  0.00     0.037 A 
ENDBRANCH  17  18
ENDBRANCH  15  17
ENDBRANCH  14  15
ENDBRANCH  13  14
ENDBRANCH   8  13
TORSDOF 5
ENDMDL
MODEL 5
REMARK VINA RESULT:      -8.5      3.695      7.483
REMARK  5 active torsions:
REMARK  status: ('A' for Active; 'I' for Inactive)
REMARK    1  A    between atoms: C11_16  and  O2_2 
REMARK    2  A    between atoms: C6_11  and  O2_2 
REMARK    3  A    between atoms: C12_17  and  O3_3 
REMARK    4  A    between atoms: C13_18  and  O3_3 
REMARK    5  A    between atoms: C11_16  and  C12_17 
ROOT
HETATM    1  O1  UNK     1      17.662   0.688  35.812  1.00  0.00    -0.275 OA
HETATM    2  O4  UNK     1      17.092   1.091  37.990  1.00  0.00    -0.260 OA
HETATM    3  C1  UNK     1      18.963  -1.305  35.266  1.00  0.00     0.004 A 
HETATM    4  C2  UNK     1      18.308  -0.138  34.871  1.00  0.00     0.092 A 
HETATM    5  C3  UNK     1      18.969  -1.661  36.692  1.00  0.00    -0.043 A 
HETATM    6  C4  UNK     1      19.581  -2.073  34.270  1.00  0.00     0.017 A 
HETATM    7  C5  UNK     1      18.256   0.272  33.538  1.00  0.00     0.075 A 
HETATM    8  C6  UNK     1      18.875  -0.504  32.564  1.00  0.00     0.072 A 
HETATM    9  C7  UNK     1      19.537  -1.674  32.929  1.00  0.00     0.038 A 
HETATM   10  C8  UNK     1      18.346  -0.857  37.564  1.00  0.00     0.090 A 
HETATM   11  C9  UNK     1      19.666  -2.910  37.148  1.00  0.00     0.049 C 
HETATM   12  C10 UNK     1      17.650   0.378  37.163  1.00  0.00     0.288 A 
ENDROOT
BRANCH   8  13
HETATM   13  O2  UNK     1      18.836  -0.121  31.259  1.00  0.00    -0.341 OA
BRANCH  13  14
HETATM   14  C11 UNK     1      19.381   1.160  30.941  1.00  0.00     0.287 C 
BRANCH  14  15
HETATM   15  C12 UNK     1      18.394   1.905  30.080  1.00  0.00     0.288 C 
HETATM   16  O5  UNK     1      18.290   1.791  28.866  1.00  0.00    -0.262 OA
BRANCH  15  17
HETATM   17  O3  UNK     1      17.637   2.733  30.906  1.00  0.00    -0.277 OA
BRANCH  17  18
HETATM   18  C13 UNK     1      18.310   3.903  31.267  1.00  0.00     0.079 A 
HETATM   19  C14 UNK     1      19.044   4.566  30.309  1.00  0.00     0.037 A 
HETATM   20  C16 UNK     1      19.717   5.733  30.670  1.00  0.00     0.003 A 
HETATM   21  C18 UNK     1      19.638   6.207  31.979  1.00  0.00     0.000 A 
HETATM   22  C17 UNK     1      18.887   5.514  32.928  1.00  0.00     0.003 A 
HETATM   23  C15 UNK     1      18.214   4.346  32.568  1.00  0.00     0.037 A 
ENDBRANCH  17  18
ENDBRANCH  15  17
ENDBRANCH  14  15
ENDBRANCH  13  14
ENDBRANCH   8  13
TORSDOF 5
ENDMDL
MODEL 6
REMARK VINA RESULT:      -8.5      1.997      8.746
REMARK  5 active torsions:
REMARK  status: ('A' for Active; 'I' for Inactive)
REMARK    1  A    between atoms: C11_16  and  O2_2 
REMARK    2  A    between atoms: C6_11  and  O2_2 
REMARK    3  A    between atoms: C12_17  and  O3_3 
REMARK    4  A    between atoms: C13_18  and  O3_3 
REMARK    5  A    between atoms: C11_16  and  C12_17 
ROOT
HETATM    1  O1  UNK     1      19.341  -0.257  32.692  1.00  0.00    -0.275 OA
HETATM    2  O4  UNK     1      20.123  -2.368  33.095  1.00  0.00    -0.260 OA
HETATM    3  C1  UNK     1      19.341   0.602  30.407  1.00  0.00     0.004 A 
HETATM    4  C2  UNK     1      19.071   0.769  31.765  1.00  0.00     0.092 A 
HETATM    5  C3  UNK     1      19.917  -0.672  29.954  1.00  0.00    -0.043 A 
HETATM    6  C4  UNK     1      19.043   1.669  29.549  1.00  0.00     0.017 A 
HETATM    7  C5  UNK     1      18.525   1.947  32.278  1.00  0.00     0.075 A 
HETATM    8  C6  UNK     1      18.236   2.995  31.410  1.00  0.00     0.072 A 
HETATM    9  C7  UNK     1      18.495   2.857  30.047  1.00  0.00     0.038 A 
HETATM   10  C8  UNK     1      20.163  -1.630  30.858  1.00  0.00     0.090 A 
HETATM   11  C9  UNK     1      20.219  -0.882  28.499  1.00  0.00     0.049 C 
HETATM   12  C10 UNK     1      19.884  -1.469  32.296  1.00  0.00     0.288 A 
ENDROOT
BRANCH   8  13
HETATM   13  O2  UNK     1      17.703   4.151  31.889  1.00  0.00    -0.341 OA
BRANCH  13  14
HETATM   14  C11 UNK     1      18.136   4.580  33.180  1.00  0.00     0.287 C 
BRANCH  14  15
HETATM   15  C12 UNK     1      19.050   5.766  33.016  1.00  0.00     0.288 C 
HETATM   16  O5  UNK     1      19.587   6.103  31.969  1.00  0.00    -0.262 OA
BRANCH  15  17
HETATM   17  O3  UNK     1      19.169   6.396  34.252  1.00  0.00    -0.277 OA
BRANCH  17  18
HETATM   18  C13 UNK     1      18.964   7.776  34.181  1.00  0.00     0.079 A 
HETATM   19  C14 UNK     1      20.031   8.616  34.409  1.00  0.00     0.037 A 
HETATM   20  C16 UNK     1      19.826   9.994  34.340  1.00  0.00     0.003 A 
HETATM   21  C18 UNK     1      18.559  10.496  34.044  1.00  0.00     0.000 A 
HETATM   22  C17 UNK     1      17.497   9.620  33.818  1.00  0.00     0.003 A 
HETATM   23  C15 UNK     1      17.701   8.242  33.887  1.00  0.00     0.037 A 
ENDBRANCH  17  18
ENDBRANCH  15  17
ENDBRANCH  14  15
ENDBRANCH  13  14
ENDBRANCH   8  13
TORSDOF 5
ENDMDL
MODEL 7
REMARK VINA RESULT:      -8.4      4.066      7.766
REMARK  5 active torsions:
REMARK  status: ('A' for Active; 'I' for Inactive)
REMARK    1  A    between atoms: C11_16  and  O2_2 
REMARK    2  A    between atoms: C6_11  and  O2_2 
REMARK    3  A    between atoms: C12_17  and  O3_3 
REMARK    4  A    between atoms: C13_18  and  O3_3 
REMARK    5  A    between atoms: C11_16  and  C12_17 
ROOT
HETATM    1  O1  UNK     1      19.292  -2.346  35.624  1.00  0.00    -0.275 OA
HETATM    2  O4  UNK     1      19.531  -3.517  37.574  1.00  0.00    -0.260 OA
HETATM    3  C1  UNK     1      18.290  -0.120  35.682  1.00  0.00     0.004 A 
HETATM    4  C2  UNK     1      18.864  -1.174  34.970  1.00  0.00     0.092 A 
HETATM    5  C3  UNK     1      18.138  -0.253  37.137  1.00  0.00    -0.043 A 
HETATM    6  C4  UNK     1      17.891   1.012  34.958  1.00  0.00     0.017 A 
HETATM    7  C5  UNK     1      19.045  -1.128  33.586  1.00  0.00     0.075 A 
HETATM    8  C6  UNK     1      18.642   0.004  32.886  1.00  0.00     0.072 A 
HETATM    9  C7  UNK     1      18.065   1.073  33.571  1.00  0.00     0.038 A 
HETATM   10  C8  UNK     1      18.554  -1.379  37.732  1.00  0.00     0.090 A 
HETATM   11  C9  UNK     1      17.524   0.863  37.931  1.00  0.00     0.049 C 
HETATM   12  C10 UNK     1      19.162  -2.501  36.995  1.00  0.00     0.288 A 
ENDROOT
BRANCH   8  13
HETATM   13  O2  UNK     1      18.809   0.068  31.538  1.00  0.00    -0.341 OA
BRANCH  13  14
HETATM   14  C11 UNK     1      19.311   1.293  31.003  1.00  0.00     0.287 C 
BRANCH  14  15
HETATM   15  C12 UNK     1      18.273   1.884  30.085  1.00  0.00     0.288 C 
HETATM   16  O5  UNK     1      18.115   1.579  28.911  1.00  0.00    -0.262 OA
BRANCH  15  17
HETATM   17  O3  UNK     1      17.540   2.823  30.807  1.00  0.00    -0.277 OA
BRANCH  17  18
HETATM   18  C13 UNK     1      18.281   3.963  31.124  1.00  0.00     0.079 A 
HETATM   19  C14 UNK     1      19.022   4.568  30.133  1.00  0.00     0.037 A 
HETATM   20  C16 UNK     1      19.763   5.706  30.450  1.00  0.00     0.003 A 
HETATM   21  C18 UNK     1      19.745   6.210  31.751  1.00  0.00     0.000 A 
HETATM   22  C17 UNK     1      18.986   5.576  32.734  1.00  0.00     0.003 A 
HETATM   23  C15 UNK     1      18.244   4.438  32.418  1.00  0.00     0.037 A 
ENDBRANCH  17  18
ENDBRANCH  15  17
ENDBRANCH  14  15
ENDBRANCH  13  14
ENDBRANCH   8  13
TORSDOF 5
ENDMDL
MODEL 8
REMARK VINA RESULT:      -8.4     22.234     24.496
REMARK  5 active torsions:
REMARK  status: ('A' for Active; 'I' for Inactive)
REMARK    1  A    between atoms: C11_16  and  O2_2 
REMARK    2  A    between atoms: C6_11  and  O2_2 
REMARK    3  A    between atoms: C12_17  and  O3_3 
REMARK    4  A    between atoms: C13_18  and  O3_3 
REMARK    5  A    between atoms: C11_16  and  C12_17 
ROOT
HETATM    1  O1  UNK     1       9.270   5.832   9.559  1.00  0.00    -0.275 OA
HETATM    2  O4  UNK     1       7.024   6.084   9.215  1.00  0.00    -0.260 OA
HETATM    3  C1  UNK     1      10.788   5.904   7.648  1.00  0.00     0.004 A 
HETATM    4  C2  UNK     1      10.570   5.769   9.019  1.00  0.00     0.092 A 
HETATM    5  C3  UNK     1       9.630   6.114   6.768  1.00  0.00    -0.043 A 
HETATM    6  C4  UNK     1      12.110   5.831   7.189  1.00  0.00     0.017 A 
HETATM    7  C5  UNK     1      11.614   5.567   9.924  1.00  0.00     0.075 A 
HETATM    8  C6  UNK     1      12.920   5.497   9.449  1.00  0.00     0.072 A 
HETATM    9  C7  UNK     1      13.168   5.628   8.084  1.00  0.00     0.038 A 
HETATM   10  C8  UNK     1       8.406   6.169   7.310  1.00  0.00     0.090 A 
HETATM   11  C9  UNK     1       9.832   6.262   5.288  1.00  0.00     0.049 C 
HETATM   12  C10 UNK     1       8.159   6.029   8.755  1.00  0.00     0.288 A 
ENDROOT
BRANCH   8  13
HETATM   13  O2  UNK     1      13.951   5.300  10.314  1.00  0.00    -0.341 OA
BRANCH  13  14
HETATM   14  C11 UNK     1      15.152   4.745   9.777  1.00  0.00     0.287 C 
BRANCH  14  15
HETATM   15  C12 UNK     1      16.204   5.822   9.726  1.00  0.00     0.288 C 
HETATM   16  O5  UNK     1      17.235   5.770   9.069  1.00  0.00    -0.262 OA
BRANCH  15  17
HETATM   17  O3  UNK     1      15.794   6.867  10.550  1.00  0.00    -0.277 OA
BRANCH  17  18
HETATM   18  C13 UNK     1      15.915   8.119   9.941  1.00  0.00     0.079 A 
HETATM   19  C14 UNK     1      14.869   8.587   9.176  1.00  0.00     0.037 A 
HETATM   20  C16 UNK     1      14.990   9.836   8.567  1.00  0.00     0.003 A 
HETATM   21  C18 UNK     1      16.154  10.584   8.739  1.00  0.00     0.000 A 
HETATM   22  C17 UNK     1      17.197  10.085   9.518  1.00  0.00     0.003 A 
HETATM   23  C15 UNK     1      17.076   8.835  10.128  1.00  0.00     0.037 A 
ENDBRANCH  17  18
ENDBRANCH  15  17
ENDBRANCH  14  15
ENDBRANCH  13  14
ENDBRANCH   8  13
TORSDOF 5
ENDMDL
MODEL 9
REMARK VINA RESULT:      -8.4     15.931     17.815
REMARK  5 active torsions:
REMARK  status: ('A' for Active; 'I' for Inactive)
REMARK    1  A    between atoms: C11_16  and  O2_2 
REMARK    2  A    between atoms: C6_11  and  O2_2 
REMARK    3  A    between atoms: C12_17  and  O3_3 
REMARK    4  A    between atoms: C13_18  and  O3_3 
REMARK    5  A    between atoms: C11_16  and  C12_17 
ROOT
HETATM    1  O1  UNK     1      30.639  -3.908  38.336  1.00  0.00    -0.275 OA
HETATM    2  O4  UNK     1      29.373  -3.744  40.233  1.00  0.00    -0.260 OA
HETATM    3  C1  UNK     1      30.012  -5.524  36.616  1.00  0.00     0.004 A 
HETATM    4  C2  UNK     1      30.861  -4.522  37.087  1.00  0.00     0.092 A 
HETATM    5  C3  UNK     1      28.873  -5.932  37.450  1.00  0.00    -0.043 A 
HETATM    6  C4  UNK     1      30.300  -6.084  35.364  1.00  0.00     0.017 A 
HETATM    7  C5  UNK     1      31.965  -4.076  36.358  1.00  0.00     0.075 A 
HETATM    8  C6  UNK     1      32.234  -4.644  35.117  1.00  0.00     0.072 A 
HETATM    9  C7  UNK     1      31.403  -5.648  34.621  1.00  0.00     0.038 A 
HETATM   10  C8  UNK     1      28.687  -5.330  38.633  1.00  0.00     0.090 A 
HETATM   11  C9  UNK     1      27.943  -7.007  36.971  1.00  0.00     0.049 C 
HETATM   12  C10 UNK     1      29.574  -4.271  39.144  1.00  0.00     0.288 A 
ENDROOT
BRANCH   8  13
HETATM   13  O2  UNK     1      33.304  -4.225  34.391  1.00  0.00    -0.341 OA
BRANCH  13  14
HETATM   14  C11 UNK     1      34.593  -4.371  34.989  1.00  0.00     0.287 C 
BRANCH  14  15
HETATM   15  C12 UNK     1      35.146  -5.724  34.623  1.00  0.00     0.288 C 
HETATM   16  O5  UNK     1      35.292  -6.141  33.482  1.00  0.00    -0.262 OA
BRANCH  15  17
HETATM   17  O3  UNK     1      35.454  -6.399  35.801  1.00  0.00    -0.277 OA
BRANCH  17  18
HETATM   18  C13 UNK     1      34.372  -7.119  36.314  1.00  0.00     0.079 A 
HETATM   19  C14 UNK     1      33.784  -8.082  35.525  1.00  0.00     0.037 A 
HETATM   20  C16 UNK     1      32.702  -8.799  36.037  1.00  0.00     0.003 A 
HETATM   21  C18 UNK     1      32.237  -8.534  37.325  1.00  0.00     0.000 A 
HETATM   22  C17 UNK     1      32.852  -7.552  38.101  1.00  0.00     0.003 A 
HETATM   23  C15 UNK     1      33.934  -6.835  37.589  1.00  0.00     0.037 A 
ENDBRANCH  17  18
ENDBRANCH  15  17
ENDBRANCH  14  15
ENDBRANCH  13  14
ENDBRANCH   8  13
TORSDOF 5
ENDMDL
MODEL 10
REMARK VINA RESULT:      -8.4      5.419      8.841
REMARK  5 active torsions:
REMARK  status: ('A' for Active; 'I' for Inactive)
REMARK    1  A    between atoms: C11_16  and  O2_2 
REMARK    2  A    between atoms: C6_11  and  O2_2 
REMARK    3  A    between atoms: C12_17  and  O3_3 
REMARK    4  A    between atoms: C13_18  and  O3_3 
REMARK    5  A    between atoms: C11_16  and  C12_17 
ROOT
HETATM    1  O1  UNK     1      18.437   1.079  31.624  1.00  0.00    -0.275 OA
HETATM    2  O4  UNK     1      17.924   2.637  30.031  1.00  0.00    -0.260 OA
HETATM    3  C1  UNK     1      19.950  -0.753  31.061  1.00  0.00     0.004 A 
HETATM    4  C2  UNK     1      19.136  -0.091  31.981  1.00  0.00     0.092 A 
HETATM    5  C3  UNK     1      20.068  -0.205  29.703  1.00  0.00    -0.043 A 
HETATM    6  C4  UNK     1      20.613  -1.910  31.494  1.00  0.00     0.017 A 
HETATM    7  C5  UNK     1      18.969  -0.545  33.291  1.00  0.00     0.075 A 
HETATM    8  C6  UNK     1      19.635  -1.695  33.701  1.00  0.00     0.072 A 
HETATM    9  C7  UNK     1      20.455  -2.377  32.804  1.00  0.00     0.038 A 
HETATM   10  C8  UNK     1      19.392   0.909  29.392  1.00  0.00     0.090 A 
HETATM   11  C9  UNK     1      20.936  -0.895  28.691  1.00  0.00     0.049 C 
HETATM   12  C10 UNK     1      18.529   1.619  30.352  1.00  0.00     0.288 A 
ENDROOT
BRANCH   8  13
HETATM   13  O2  UNK     1      19.486  -2.154  34.973  1.00  0.00    -0.341 OA
BRANCH  13  14
HETATM   14  C11 UNK     1      20.659  -2.211  35.785  1.00  0.00     0.287 C 
BRANCH  14  15
HETATM   15  C12 UNK     1      20.354  -3.015  37.021  1.00  0.00     0.288 C 
HETATM   16  O5  UNK     1      19.616  -2.658  37.930  1.00  0.00    -0.262 OA
BRANCH  15  17
HETATM   17  O3  UNK     1      21.053  -4.217  36.941  1.00  0.00    -0.277 OA
BRANCH  17  18
HETATM   18  C13 UNK     1      20.283  -5.320  37.319  1.00  0.00     0.079 A 
HETATM   19  C14 UNK     1      19.231  -5.700  36.515  1.00  0.00     0.037 A 
HETATM   20  C16 UNK     1      18.462  -6.800  36.893  1.00  0.00     0.003 A 
HETATM   21  C18 UNK     1      18.765  -7.492  38.065  1.00  0.00     0.000 A 
HETATM   22  C17 UNK     1      19.836  -7.085  38.860  1.00  0.00     0.003 A 
HETATM   23  C15 UNK     1      20.606  -5.984  38.482  1.00  0.00     0.037 A 
ENDBRANCH  17  18
ENDBRANCH  15  17
ENDBRANCH  14  15
ENDBRANCH  13  14
ENDBRANCH   8  13
TORSDOF 5
ENDMDL
