MODEL 1
REMARK VINA RESULT:     -10.8      0.000      0.000
REMARK  10 active torsions:
REMARK  status: ('A' for Active; 'I' for Inactive)
REMARK    1  A    between atoms: C11_22  and  O2_2 
REMARK    2  A    between atoms: C15_26  and  O2_2 
REMARK    3  A    between atoms: N1_8  and  N2_9 
REMARK    4  A    between atoms: C26_37  and  N2_9 
REMARK    5  A    between atoms: C27_38  and  N3_10 
REMARK    6  A    between atoms: C31_42  and  N4_11 
REMARK    7  A    between atoms: C2_13  and  C4_15 
REMARK    8  A    between atoms: C4_15  and  C8_19 
REMARK    9  A    between atoms: C15_26  and  C16_27 
REMARK   10  A    between atoms: C16_27  and  C17_28 
ROOT
HETATM    1  N1  UNK     1      19.755  -4.660  37.248  1.00  0.00    -0.176 NA
HETATM    2  C16 UNK     1      20.666  -5.488  37.668  1.00  0.00     0.089 C 
ENDROOT
BRANCH   2   3
HETATM    3  C15 UNK     1      22.003  -5.068  38.263  1.00  0.00     0.237 C 
BRANCH   3   4
HETATM    4  O2  UNK     1      22.499  -6.109  39.104  1.00  0.00    -0.345 OA
BRANCH   4   5
HETATM    5  C11 UNK     1      23.816  -6.425  38.988  1.00  0.00     0.071 A 
HETATM    6  C10 UNK     1      24.781  -5.423  39.009  1.00  0.00     0.075 A 
HETATM    7  C5  UNK     1      26.129  -5.770  38.888  1.00  0.00     0.092 A 
HETATM    8  C3  UNK     1      26.555  -7.087  38.751  1.00  0.00     0.005 A 
HETATM    9  O1  UNK     1      27.049  -4.710  38.910  1.00  0.00    -0.274 OA
HETATM   10  C1  UNK     1      28.002  -7.361  38.630  1.00  0.00    -0.036 A 
HETATM   11  C7  UNK     1      25.564  -8.081  38.726  1.00  0.00     0.017 A 
HETATM   12  C9  UNK     1      28.417  -8.809  38.542  1.00  0.00     0.050 C 
HETATM   13  C2  UNK     1      28.874  -6.330  38.617  1.00  0.00     0.029 A 
HETATM   14  C6  UNK     1      28.411  -4.922  38.778  1.00  0.00     0.295 A 
HETATM   15  O3  UNK     1      29.194  -3.977  38.804  1.00  0.00    -0.259 OA
HETATM   16  C12 UNK     1      24.208  -7.753  38.846  1.00  0.00     0.038 A 
BRANCH  13  17
HETATM   17  C4  UNK     1      30.365  -6.464  38.436  1.00  0.00     0.084 C 
BRANCH  17  18
HETATM   18  C8  UNK     1      30.802  -6.089  37.051  1.00  0.00    -0.054 A 
HETATM   19  C13 UNK     1      30.110  -6.580  35.944  1.00  0.00     0.007 A 
HETATM   20  C18 UNK     1      30.516  -6.232  34.656  1.00  0.00     0.001 A 
HETATM   21  C20 UNK     1      31.615  -5.391  34.475  1.00  0.00     0.000 A 
HETATM   22  C19 UNK     1      32.308  -4.899  35.582  1.00  0.00     0.001 A 
HETATM   23  C14 UNK     1      31.900  -5.249  36.870  1.00  0.00     0.007 A 
ENDBRANCH  17  18
ENDBRANCH  13  17
ENDBRANCH   4   5
ENDBRANCH   3   4
ENDBRANCH   2   3
BRANCH   2  24
HETATM   24  C17 UNK     1      20.388  -6.948  37.547  1.00  0.00    -0.008 A 
HETATM   25  C21 UNK     1      21.021  -7.700  36.558  1.00  0.00     0.014 A 
HETATM   26  C24 UNK     1      20.760  -9.065  36.445  1.00  0.00     0.007 A 
HETATM   27  C23 UNK     1      19.866  -9.679  37.321  1.00  0.00    -0.062 A 
HETATM   28  C25 UNK     1      19.233  -8.928  38.312  1.00  0.00     0.007 A 
HETATM   29  C28 UNK     1      19.589 -11.140  37.202  1.00  0.00     0.048 C 
HETATM   30  C22 UNK     1      19.494  -7.562  38.425  1.00  0.00     0.014 A 
ENDBRANCH   2  24
BRANCH   1  31
HETATM   31  N2  UNK     1      19.994  -3.343  37.379  1.00  0.00    -0.276 N 
HETATM   32  H20 UNK     1      20.662  -2.995  38.055  1.00  0.00     0.189 HD
BRANCH  31  33
HETATM   33  C26 UNK     1      19.177  -2.402  36.731  1.00  0.00     0.083 A 
HETATM   34  C27 UNK     1      19.504  -1.914  35.466  1.00  0.00     0.133 A 
HETATM   35  C30 UNK     1      18.676  -0.980  34.844  1.00  0.00     0.074 A 
HETATM   36  C31 UNK     1      17.521  -0.535  35.486  1.00  0.00     0.105 A 
HETATM   37  C32 UNK     1      17.193  -1.024  36.751  1.00  0.00     0.038 A 
HETATM   38  C29 UNK     1      18.022  -1.957  37.373  1.00  0.00     0.036 A 
BRANCH  34  39
HETATM   39  N3  UNK     1      20.677  -2.351  34.790  1.00  0.00    -0.113 N 
HETATM   40  O4  UNK     1      20.557  -3.086  33.781  1.00  0.00    -0.532 OA
HETATM   41  O5  UNK     1      21.796  -1.986  35.223  1.00  0.00    -0.532 OA
ENDBRANCH  34  39
BRANCH  36  42
HETATM   42  N4  UNK     1      16.676   0.415  34.853  1.00  0.00    -0.116 N 
HETATM   43  O6  UNK     1      15.462   0.453  35.166  1.00  0.00    -0.532 OA
HETATM   44  O7  UNK     1      17.168   1.191  33.997  1.00  0.00    -0.532 OA
ENDBRANCH  36  42
ENDBRANCH  31  33
ENDBRANCH   1  31
TORSDOF 10
ENDMDL
MODEL 2
REMARK VINA RESULT:     -10.1      1.751      2.282
REMARK  10 active torsions:
REMARK  status: ('A' for Active; 'I' for Inactive)
REMARK    1  A    between atoms: C11_22  and  O2_2 
REMARK    2  A    between atoms: C15_26  and  O2_2 
REMARK    3  A    between atoms: N1_8  and  N2_9 
REMARK    4  A    between atoms: C26_37  and  N2_9 
REMARK    5  A    between atoms: C27_38  and  N3_10 
REMARK    6  A    between atoms: C31_42  and  N4_11 
REMARK    7  A    between atoms: C2_13  and  C4_15 
REMARK    8  A    between atoms: C4_15  and  C8_19 
REMARK    9  A    between atoms: C15_26  and  C16_27 
REMARK   10  A    between atoms: C16_27  and  C17_28 
ROOT
HETATM    1  N1  UNK     1      19.839  -4.578  37.205  1.00  0.00    -0.176 NA
HETATM    2  C16 UNK     1      20.759  -5.405  37.606  1.00  0.00     0.089 C 
ENDROOT
BRANCH   2   3
HETATM    3  C15 UNK     1      22.132  -4.986  38.112  1.00  0.00     0.237 C 
BRANCH   3   4
HETATM    4  O2  UNK     1      22.589  -5.924  39.086  1.00  0.00    -0.345 OA
BRANCH   4   5
HETATM    5  C11 UNK     1      23.888  -6.315  39.008  1.00  0.00     0.071 A 
HETATM    6  C10 UNK     1      24.211  -7.667  38.961  1.00  0.00     0.075 A 
HETATM    7  C5  UNK     1      25.552  -8.048  38.882  1.00  0.00     0.092 A 
HETATM    8  C3  UNK     1      26.593  -7.125  38.844  1.00  0.00     0.005 A 
HETATM    9  O1  UNK     1      25.808  -9.428  38.845  1.00  0.00    -0.274 OA
HETATM   10  C1  UNK     1      27.983  -7.618  38.760  1.00  0.00    -0.036 A 
HETATM   11  C7  UNK     1      26.245  -5.766  38.899  1.00  0.00     0.017 A 
HETATM   12  C9  UNK     1      29.072  -6.577  38.662  1.00  0.00     0.050 C 
HETATM   13  C2  UNK     1      28.216  -8.948  38.759  1.00  0.00     0.029 A 
HETATM   14  C6  UNK     1      27.096  -9.932  38.787  1.00  0.00     0.295 A 
HETATM   15  O3  UNK     1      27.290 -11.143  38.752  1.00  0.00    -0.259 OA
HETATM   16  C12 UNK     1      24.905  -5.365  38.978  1.00  0.00     0.038 A 
BRANCH  13  17
HETATM   17  C4  UNK     1      29.584  -9.583  38.742  1.00  0.00     0.084 C 
BRANCH  17  18
HETATM   18  C8  UNK     1      30.300  -9.347  37.445  1.00  0.00    -0.054 A 
HETATM   19  C13 UNK     1      29.619  -9.493  36.236  1.00  0.00     0.007 A 
HETATM   20  C18 UNK     1      30.285  -9.274  35.030  1.00  0.00     0.001 A 
HETATM   21  C20 UNK     1      31.631  -8.908  35.032  1.00  0.00     0.000 A 
HETATM   22  C19 UNK     1      32.312  -8.762  36.241  1.00  0.00     0.001 A 
HETATM   23  C14 UNK     1      31.646  -8.982  37.447  1.00  0.00     0.007 A 
ENDBRANCH  17  18
ENDBRANCH  13  17
ENDBRANCH   4   5
ENDBRANCH   3   4
ENDBRANCH   2   3
BRANCH   2  24
HETATM   24  C17 UNK     1      20.453  -6.863  37.556  1.00  0.00    -0.008 A 
HETATM   25  C21 UNK     1      21.039  -7.667  36.579  1.00  0.00     0.014 A 
HETATM   26  C24 UNK     1      20.752  -9.030  36.532  1.00  0.00     0.007 A 
HETATM   27  C23 UNK     1      19.878  -9.592  37.463  1.00  0.00    -0.062 A 
HETATM   28  C25 UNK     1      19.292  -8.789  38.441  1.00  0.00     0.007 A 
HETATM   29  C28 UNK     1      19.574 -11.051  37.414  1.00  0.00     0.048 C 
HETATM   30  C22 UNK     1      19.579  -7.425  38.488  1.00  0.00     0.014 A 
ENDBRANCH   2  24
BRANCH   1  31
HETATM   31  N2  UNK     1      20.104  -3.261  37.273  1.00  0.00    -0.276 N 
HETATM   32  H20 UNK     1      20.812  -2.899  37.898  1.00  0.00     0.189 HD
BRANCH  31  33
HETATM   33  C26 UNK     1      19.268  -2.331  36.633  1.00  0.00     0.083 A 
HETATM   34  C27 UNK     1      19.557  -1.866  35.351  1.00  0.00     0.133 A 
HETATM   35  C30 UNK     1      18.711  -0.942  34.737  1.00  0.00     0.074 A 
HETATM   36  C31 UNK     1      17.575  -0.485  35.405  1.00  0.00     0.105 A 
HETATM   37  C32 UNK     1      17.285  -0.953  36.688  1.00  0.00     0.038 A 
HETATM   38  C29 UNK     1      18.132  -1.875  37.301  1.00  0.00     0.036 A 
BRANCH  34  39
HETATM   39  N3  UNK     1      20.710  -2.314  34.647  1.00  0.00    -0.113 N 
HETATM   40  O4  UNK     1      20.560  -3.056  33.648  1.00  0.00    -0.532 OA
HETATM   41  O5  UNK     1      21.841  -1.953  35.049  1.00  0.00    -0.532 OA
ENDBRANCH  34  39
BRANCH  36  42
HETATM   42  N4  UNK     1      16.712   0.454  34.781  1.00  0.00    -0.116 N 
HETATM   43  O6  UNK     1      15.503   0.485  35.116  1.00  0.00    -0.532 OA
HETATM   44  O7  UNK     1      17.183   1.227  33.911  1.00  0.00    -0.532 OA
ENDBRANCH  36  42
ENDBRANCH  31  33
ENDBRANCH   1  31
TORSDOF 10
ENDMDL
MODEL 3
REMARK VINA RESULT:     -10.1      8.098     12.174
REMARK  10 active torsions:
REMARK  status: ('A' for Active; 'I' for Inactive)
REMARK    1  A    between atoms: C11_22  and  O2_2 
REMARK    2  A    between atoms: C15_26  and  O2_2 
REMARK    3  A    between atoms: N1_8  and  N2_9 
REMARK    4  A    between atoms: C26_37  and  N2_9 
REMARK    5  A    between atoms: C27_38  and  N3_10 
REMARK    6  A    between atoms: C31_42  and  N4_11 
REMARK    7  A    between atoms: C2_13  and  C4_15 
REMARK    8  A    between atoms: C4_15  and  C8_19 
REMARK    9  A    between atoms: C15_26  and  C16_27 
REMARK   10  A    between atoms: C16_27  and  C17_28 
ROOT
HETATM    1  N1  UNK     1      31.693  -7.935  30.585  1.00  0.00    -0.176 NA
HETATM    2  C16 UNK     1      30.688  -8.753  30.475  1.00  0.00     0.089 C 
ENDROOT
BRANCH   2   3
HETATM    3  C15 UNK     1      30.814 -10.267  30.394  1.00  0.00     0.237 C 
BRANCH   3   4
HETATM    4  O2  UNK     1      29.878 -10.872  31.286  1.00  0.00    -0.345 OA
BRANCH   4   5
HETATM    5  C11 UNK     1      29.947 -10.513  32.596  1.00  0.00     0.071 A 
HETATM    6  C10 UNK     1      28.890  -9.835  33.192  1.00  0.00     0.075 A 
HETATM    7  C5  UNK     1      28.981  -9.475  34.539  1.00  0.00     0.092 A 
HETATM    8  C3  UNK     1      30.094  -9.770  35.320  1.00  0.00     0.005 A 
HETATM    9  O1  UNK     1      27.882  -8.787  35.076  1.00  0.00    -0.274 OA
HETATM   10  C1  UNK     1      30.104  -9.350  36.737  1.00  0.00    -0.036 A 
HETATM   11  C7  UNK     1      31.152 -10.449  34.695  1.00  0.00     0.017 A 
HETATM   12  C9  UNK     1      31.308  -9.745  37.557  1.00  0.00     0.050 C 
HETATM   13  C2  UNK     1      29.055  -8.659  37.232  1.00  0.00     0.029 A 
HETATM   14  C6  UNK     1      27.860  -8.358  36.392  1.00  0.00     0.295 A 
HETATM   15  O3  UNK     1      26.883  -7.762  36.837  1.00  0.00    -0.259 OA
HETATM   16  C12 UNK     1      31.078 -10.818  33.347  1.00  0.00     0.038 A 
BRANCH  13  17
HETATM   17  C4  UNK     1      28.965  -8.117  38.636  1.00  0.00     0.084 C 
BRANCH  17  18
HETATM   18  C8  UNK     1      29.374  -6.676  38.713  1.00  0.00    -0.054 A 
HETATM   19  C13 UNK     1      28.435  -5.702  39.056  1.00  0.00     0.007 A 
HETATM   20  C18 UNK     1      28.815  -4.362  39.129  1.00  0.00     0.001 A 
HETATM   21  C20 UNK     1      30.135  -3.996  38.859  1.00  0.00     0.000 A 
HETATM   22  C19 UNK     1      31.073  -4.970  38.516  1.00  0.00     0.001 A 
HETATM   23  C14 UNK     1      30.692  -6.309  38.444  1.00  0.00     0.007 A 
ENDBRANCH  17  18
ENDBRANCH  13  17
ENDBRANCH   4   5
ENDBRANCH   3   4
ENDBRANCH   2   3
BRANCH   2  24
HETATM   24  C17 UNK     1      29.319  -8.166  30.409  1.00  0.00    -0.008 A 
HETATM   25  C21 UNK     1      29.049  -6.949  31.036  1.00  0.00     0.014 A 
HETATM   26  C24 UNK     1      27.769  -6.402  30.976  1.00  0.00     0.007 A 
HETATM   27  C23 UNK     1      26.756  -7.070  30.288  1.00  0.00    -0.062 A 
HETATM   28  C25 UNK     1      27.025  -8.286  29.660  1.00  0.00     0.007 A 
HETATM   29  C28 UNK     1      25.387  -6.482  30.221  1.00  0.00     0.048 C 
HETATM   30  C22 UNK     1      28.306  -8.834  29.720  1.00  0.00     0.014 A 
ENDBRANCH   2  24
BRANCH   1  31
HETATM   31  N2  UNK     1      32.927  -8.464  30.670  1.00  0.00    -0.276 N 
HETATM   32  H20 UNK     1      33.195  -9.263  30.111  1.00  0.00     0.189 HD
BRANCH  31  33
HETATM   33  C26 UNK     1      33.811  -8.054  31.681  1.00  0.00     0.083 A 
HETATM   34  C27 UNK     1      35.040  -7.471  31.372  1.00  0.00     0.133 A 
HETATM   35  C30 UNK     1      35.900  -7.073  32.395  1.00  0.00     0.074 A 
HETATM   36  C31 UNK     1      35.530  -7.256  33.728  1.00  0.00     0.105 A 
HETATM   37  C32 UNK     1      34.300  -7.837  34.037  1.00  0.00     0.038 A 
HETATM   38  C29 UNK     1      33.441  -8.237  33.014  1.00  0.00     0.036 A 
BRANCH  34  39
HETATM   39  N3  UNK     1      35.442  -7.275  30.021  1.00  0.00    -0.113 N 
HETATM   40  O4  UNK     1      35.712  -8.277  29.318  1.00  0.00    -0.532 OA
HETATM   41  O5  UNK     1      35.512  -6.106  29.575  1.00  0.00    -0.532 OA
ENDBRANCH  34  39
BRANCH  36  42
HETATM   42  N4  UNK     1      36.404  -6.849  34.770  1.00  0.00    -0.116 N 
HETATM   43  O6  UNK     1      35.928  -6.252  35.766  1.00  0.00    -0.532 OA
HETATM   44  O7  UNK     1      37.631  -7.097  34.667  1.00  0.00    -0.532 OA
ENDBRANCH  36  42
ENDBRANCH  31  33
ENDBRANCH   1  31
TORSDOF 10
ENDMDL
MODEL 4
REMARK VINA RESULT:      -9.9      1.345      1.993
REMARK  10 active torsions:
REMARK  status: ('A' for Active; 'I' for Inactive)
REMARK    1  A    between atoms: C11_22  and  O2_2 
REMARK    2  A    between atoms: C15_26  and  O2_2 
REMARK    3  A    between atoms: N1_8  and  N2_9 
REMARK    4  A    between atoms: C26_37  and  N2_9 
REMARK    5  A    between atoms: C27_38  and  N3_10 
REMARK    6  A    between atoms: C31_42  and  N4_11 
REMARK    7  A    between atoms: C2_13  and  C4_15 
REMARK    8  A    between atoms: C4_15  and  C8_19 
REMARK    9  A    between atoms: C15_26  and  C16_27 
REMARK   10  A    between atoms: C16_27  and  C17_28 
ROOT
HETATM    1  N1  UNK     1      19.802  -4.980  37.470  1.00  0.00    -0.176 NA
HETATM    2  C16 UNK     1      20.766  -5.771  37.836  1.00  0.00     0.089 C 
ENDROOT
BRANCH   2   3
HETATM    3  C15 UNK     1      22.162  -5.305  38.225  1.00  0.00     0.237 C 
BRANCH   3   4
HETATM    4  O2  UNK     1      22.726  -6.218  39.165  1.00  0.00    -0.345 OA
BRANCH   4   5
HETATM    5  C11 UNK     1      24.044  -6.523  39.021  1.00  0.00     0.071 A 
HETATM    6  C10 UNK     1      24.998  -5.512  39.006  1.00  0.00     0.075 A 
HETATM    7  C5  UNK     1      26.346  -5.846  38.856  1.00  0.00     0.092 A 
HETATM    8  C3  UNK     1      26.782  -7.161  38.724  1.00  0.00     0.005 A 
HETATM    9  O1  UNK     1      27.256  -4.778  38.842  1.00  0.00    -0.274 OA
HETATM   10  C1  UNK     1      28.228  -7.422  38.571  1.00  0.00    -0.036 A 
HETATM   11  C7  UNK     1      25.801  -8.165  38.736  1.00  0.00     0.017 A 
HETATM   12  C9  UNK     1      28.656  -8.867  38.490  1.00  0.00     0.050 C 
HETATM   13  C2  UNK     1      29.089  -6.383  38.524  1.00  0.00     0.029 A 
HETATM   14  C6  UNK     1      28.616  -4.977  38.680  1.00  0.00     0.295 A 
HETATM   15  O3  UNK     1      29.390  -4.024  38.675  1.00  0.00    -0.259 OA
HETATM   16  C12 UNK     1      24.445  -7.848  38.885  1.00  0.00     0.038 A 
BRANCH  13  17
HETATM   17  C4  UNK     1      30.576  -6.504  38.308  1.00  0.00     0.084 C 
BRANCH  17  18
HETATM   18  C8  UNK     1      30.980  -6.110  36.918  1.00  0.00    -0.054 A 
HETATM   19  C13 UNK     1      30.329  -6.668  35.818  1.00  0.00     0.007 A 
HETATM   20  C18 UNK     1      30.704  -6.301  34.526  1.00  0.00     0.001 A 
HETATM   21  C20 UNK     1      31.730  -5.376  34.333  1.00  0.00     0.000 A 
HETATM   22  C19 UNK     1      32.382  -4.817  35.434  1.00  0.00     0.001 A 
HETATM   23  C14 UNK     1      32.006  -5.185  36.726  1.00  0.00     0.007 A 
ENDBRANCH  17  18
ENDBRANCH  13  17
ENDBRANCH   4   5
ENDBRANCH   3   4
ENDBRANCH   2   3
BRANCH   2  24
HETATM   24  C17 UNK     1      20.491  -7.236  37.866  1.00  0.00    -0.008 A 
HETATM   25  C21 UNK     1      19.774  -7.791  38.926  1.00  0.00     0.014 A 
HETATM   26  C24 UNK     1      19.518  -9.161  38.954  1.00  0.00     0.007 A 
HETATM   27  C23 UNK     1      19.977  -9.978  37.921  1.00  0.00    -0.062 A 
HETATM   28  C25 UNK     1      20.693  -9.424  36.860  1.00  0.00     0.007 A 
HETATM   29  C28 UNK     1      19.700 -11.443  37.950  1.00  0.00     0.048 C 
HETATM   30  C22 UNK     1      20.950  -8.053  36.832  1.00  0.00     0.014 A 
ENDBRANCH   2  24
BRANCH   1  31
HETATM   31  N2  UNK     1      20.041  -3.656  37.467  1.00  0.00    -0.276 N 
HETATM   32  H20 UNK     1      20.284  -3.165  38.317  1.00  0.00     0.189 HD
BRANCH  31  33
HETATM   33  C26 UNK     1      19.761  -2.883  36.328  1.00  0.00     0.083 A 
HETATM   34  C27 UNK     1      18.864  -1.817  36.384  1.00  0.00     0.133 A 
HETATM   35  C30 UNK     1      18.602  -1.065  35.238  1.00  0.00     0.074 A 
HETATM   36  C31 UNK     1      19.239  -1.380  34.037  1.00  0.00     0.105 A 
HETATM   37  C32 UNK     1      20.137  -2.446  33.983  1.00  0.00     0.038 A 
HETATM   38  C29 UNK     1      20.397  -3.198  35.127  1.00  0.00     0.036 A 
BRANCH  34  39
HETATM   39  N3  UNK     1      18.200  -1.476  37.596  1.00  0.00    -0.113 N 
HETATM   40  O4  UNK     1      16.947  -1.438  37.610  1.00  0.00    -0.532 OA
HETATM   41  O5  UNK     1      18.889  -1.225  38.612  1.00  0.00    -0.532 OA
ENDBRANCH  34  39
BRANCH  36  42
HETATM   42  N4  UNK     1      18.975  -0.614  32.871  1.00  0.00    -0.116 N 
HETATM   43  O6  UNK     1      18.610   0.580  32.997  1.00  0.00    -0.532 OA
HETATM   44  O7  UNK     1      19.113  -1.153  31.746  1.00  0.00    -0.532 OA
ENDBRANCH  36  42
ENDBRANCH  31  33
ENDBRANCH   1  31
TORSDOF 10
ENDMDL
MODEL 5
REMARK VINA RESULT:      -9.9     31.121     34.537
REMARK  10 active torsions:
REMARK  status: ('A' for Active; 'I' for Inactive)
REMARK    1  A    between atoms: C11_22  and  O2_2 
REMARK    2  A    between atoms: C15_26  and  O2_2 
REMARK    3  A    between atoms: N1_8  and  N2_9 
REMARK    4  A    between atoms: C26_37  and  N2_9 
REMARK    5  A    between atoms: C27_38  and  N3_10 
REMARK    6  A    between atoms: C31_42  and  N4_11 
REMARK    7  A    between atoms: C2_13  and  C4_15 
REMARK    8  A    between atoms: C4_15  and  C8_19 
REMARK    9  A    between atoms: C15_26  and  C16_27 
REMARK   10  A    between atoms: C16_27  and  C17_28 
ROOT
HETATM    1  N1  UNK     1      19.417  12.774   8.059  1.00  0.00    -0.176 NA
HETATM    2  C16 UNK     1      19.576  12.378   9.287  1.00  0.00     0.089 C 
ENDROOT
BRANCH   2   3
HETATM    3  C15 UNK     1      18.500  11.690  10.116  1.00  0.00     0.237 C 
BRANCH   3   4
HETATM    4  O2  UNK     1      18.451  10.304   9.779  1.00  0.00    -0.345 OA
BRANCH   4   5
HETATM    5  C11 UNK     1      17.227   9.711   9.770  1.00  0.00     0.071 A 
HETATM    6  C10 UNK     1      17.121   8.325   9.776  1.00  0.00     0.075 A 
HETATM    7  C5  UNK     1      15.855   7.736   9.766  1.00  0.00     0.092 A 
HETATM    8  C3  UNK     1      14.681   8.482   9.754  1.00  0.00     0.005 A 
HETATM    9  O1  UNK     1      15.820   6.332   9.766  1.00  0.00    -0.274 OA
HETATM   10  C1  UNK     1      13.384   7.774   9.744  1.00  0.00    -0.036 A 
HETATM   11  C7  UNK     1      14.812   9.880   9.741  1.00  0.00     0.017 A 
HETATM   12  C9  UNK     1      12.140   8.628   9.790  1.00  0.00     0.050 C 
HETATM   13  C2  UNK     1      13.365   6.425   9.709  1.00  0.00     0.029 A 
HETATM   14  C6  UNK     1      14.627   5.631   9.736  1.00  0.00     0.295 A 
HETATM   15  O3  UNK     1      14.625   4.403   9.741  1.00  0.00    -0.259 OA
HETATM   16  C12 UNK     1      16.073  10.488   9.751  1.00  0.00     0.038 A 
BRANCH  13  17
HETATM   17  C4  UNK     1      12.117   5.582   9.632  1.00  0.00     0.084 C 
BRANCH  17  18
HETATM   18  C8  UNK     1      11.358   5.810   8.359  1.00  0.00    -0.054 A 
HETATM   19  C13 UNK     1      12.034   5.831   7.138  1.00  0.00     0.007 A 
HETATM   20  C18 UNK     1      11.328   6.043   5.954  1.00  0.00     0.001 A 
HETATM   21  C20 UNK     1       9.947   6.234   5.989  1.00  0.00     0.000 A 
HETATM   22  C19 UNK     1       9.270   6.212   7.210  1.00  0.00     0.001 A 
HETATM   23  C14 UNK     1       9.977   6.000   8.393  1.00  0.00     0.007 A 
ENDBRANCH  17  18
ENDBRANCH  13  17
ENDBRANCH   4   5
ENDBRANCH   3   4
ENDBRANCH   2   3
BRANCH   2  24
HETATM   24  C17 UNK     1      20.898  12.624   9.932  1.00  0.00    -0.008 A 
HETATM   25  C21 UNK     1      21.817  13.485   9.334  1.00  0.00     0.014 A 
HETATM   26  C24 UNK     1      23.053  13.714   9.937  1.00  0.00     0.007 A 
HETATM   27  C23 UNK     1      23.371  13.084  11.139  1.00  0.00    -0.062 A 
HETATM   28  C25 UNK     1      22.451  12.223  11.739  1.00  0.00     0.007 A 
HETATM   29  C28 UNK     1      24.692  13.331  11.785  1.00  0.00     0.048 C 
HETATM   30  C22 UNK     1      21.214  11.993  11.136  1.00  0.00     0.014 A 
ENDBRANCH   2  24
BRANCH   1  31
HETATM   31  N2  UNK     1      18.235  12.530   7.467  1.00  0.00    -0.276 N 
HETATM   32  H20 UNK     1      18.044  11.642   7.021  1.00  0.00     0.189 HD
BRANCH  31  33
HETATM   33  C26 UNK     1      17.308  13.567   7.270  1.00  0.00     0.083 A 
HETATM   34  C27 UNK     1      17.469  14.491   6.239  1.00  0.00     0.133 A 
HETATM   35  C30 UNK     1      16.534  15.512   6.065  1.00  0.00     0.074 A 
HETATM   36  C31 UNK     1      15.438  15.607   6.923  1.00  0.00     0.105 A 
HETATM   37  C32 UNK     1      15.277  14.681   7.954  1.00  0.00     0.038 A 
HETATM   38  C29 UNK     1      16.211  13.661   8.128  1.00  0.00     0.036 A 
BRANCH  34  39
HETATM   39  N3  UNK     1      18.579  14.418   5.352  1.00  0.00    -0.113 N 
HETATM   40  O4  UNK     1      18.854  13.318   4.816  1.00  0.00    -0.532 OA
HETATM   41  O5  UNK     1      19.247  15.455   5.132  1.00  0.00    -0.532 OA
ENDBRANCH  34  39
BRANCH  36  42
HETATM   42  N4  UNK     1      14.485  16.645   6.746  1.00  0.00    -0.116 N 
HETATM   43  O6  UNK     1      14.693  17.759   7.283  1.00  0.00    -0.532 OA
HETATM   44  O7  UNK     1      13.460  16.418   6.058  1.00  0.00    -0.532 OA
ENDBRANCH  36  42
ENDBRANCH  31  33
ENDBRANCH   1  31
TORSDOF 10
ENDMDL
MODEL 6
REMARK VINA RESULT:      -9.8      8.612     12.574
REMARK  10 active torsions:
REMARK  status: ('A' for Active; 'I' for Inactive)
REMARK    1  A    between atoms: C11_22  and  O2_2 
REMARK    2  A    between atoms: C15_26  and  O2_2 
REMARK    3  A    between atoms: N1_8  and  N2_9 
REMARK    4  A    between atoms: C26_37  and  N2_9 
REMARK    5  A    between atoms: C27_38  and  N3_10 
REMARK    6  A    between atoms: C31_42  and  N4_11 
REMARK    7  A    between atoms: C2_13  and  C4_15 
REMARK    8  A    between atoms: C4_15  and  C8_19 
REMARK    9  A    between atoms: C15_26  and  C16_27 
REMARK   10  A    between atoms: C16_27  and  C17_28 
ROOT
HETATM    1  N1  UNK     1      31.980  -7.777  30.276  1.00  0.00    -0.176 NA
HETATM    2  C16 UNK     1      30.984  -8.611  30.214  1.00  0.00     0.089 C 
ENDROOT
BRANCH   2   3
HETATM    3  C15 UNK     1      31.131 -10.124  30.137  1.00  0.00     0.237 C 
BRANCH   3   4
HETATM    4  O2  UNK     1      31.697 -10.611  31.353  1.00  0.00    -0.345 OA
BRANCH   4   5
HETATM    5  C11 UNK     1      31.040 -10.314  32.506  1.00  0.00     0.071 A 
HETATM    6  C10 UNK     1      31.735  -9.806  33.597  1.00  0.00     0.075 A 
HETATM    7  C5  UNK     1      31.041  -9.508  34.772  1.00  0.00     0.092 A 
HETATM    8  C3  UNK     1      29.668  -9.695  34.900  1.00  0.00     0.005 A 
HETATM    9  O1  UNK     1      31.804  -9.005  35.837  1.00  0.00    -0.274 OA
HETATM   10  C1  UNK     1      29.016  -9.352  36.181  1.00  0.00    -0.036 A 
HETATM   11  C7  UNK     1      28.987 -10.215  33.788  1.00  0.00     0.017 A 
HETATM   12  C9  UNK     1      27.518  -9.518  36.249  1.00  0.00     0.050 C 
HETATM   13  C2  UNK     1      29.767  -8.902  37.208  1.00  0.00     0.029 A 
HETATM   14  C6  UNK     1      31.236  -8.691  37.060  1.00  0.00     0.295 A 
HETATM   15  O3  UNK     1      31.927  -8.249  37.973  1.00  0.00    -0.259 OA
HETATM   16  C12 UNK     1      29.667 -10.520  32.602  1.00  0.00     0.038 A 
BRANCH  13  17
HETATM   17  C4  UNK     1      29.241  -8.577  38.583  1.00  0.00     0.084 C 
BRANCH  17  18
HETATM   18  C8  UNK     1      28.690  -7.184  38.663  1.00  0.00    -0.054 A 
HETATM   19  C13 UNK     1      27.310  -6.977  38.626  1.00  0.00     0.007 A 
HETATM   20  C18 UNK     1      26.798  -5.682  38.700  1.00  0.00     0.001 A 
HETATM   21  C20 UNK     1      27.664  -4.594  38.813  1.00  0.00     0.000 A 
HETATM   22  C19 UNK     1      29.043  -4.801  38.850  1.00  0.00     0.001 A 
HETATM   23  C14 UNK     1      29.555  -6.096  38.775  1.00  0.00     0.007 A 
ENDBRANCH  17  18
ENDBRANCH  13  17
ENDBRANCH   4   5
ENDBRANCH   3   4
ENDBRANCH   2   3
BRANCH   2  24
HETATM   24  C17 UNK     1      29.604  -8.047  30.205  1.00  0.00    -0.008 A 
HETATM   25  C21 UNK     1      28.512  -8.876  29.948  1.00  0.00     0.014 A 
HETATM   26  C24 UNK     1      27.222  -8.347  29.938  1.00  0.00     0.007 A 
HETATM   27  C23 UNK     1      27.021  -6.989  30.187  1.00  0.00    -0.062 A 
HETATM   28  C25 UNK     1      28.113  -6.160  30.445  1.00  0.00     0.007 A 
HETATM   29  C28 UNK     1      25.641  -6.426  30.179  1.00  0.00     0.048 C 
HETATM   30  C22 UNK     1      29.404  -6.688  30.455  1.00  0.00     0.014 A 
ENDBRANCH   2  24
BRANCH   1  31
HETATM   31  N2  UNK     1      33.224  -8.286  30.310  1.00  0.00    -0.276 N 
HETATM   32  H20 UNK     1      33.514  -9.009  29.665  1.00  0.00     0.189 HD
BRANCH  31  33
HETATM   33  C26 UNK     1      34.092  -7.977  31.370  1.00  0.00     0.083 A 
HETATM   34  C27 UNK     1      35.344  -8.582  31.476  1.00  0.00     0.133 A 
HETATM   35  C30 UNK     1      36.188  -8.259  32.540  1.00  0.00     0.074 A 
HETATM   36  C31 UNK     1      35.779  -7.328  33.495  1.00  0.00     0.105 A 
HETATM   37  C32 UNK     1      34.527  -6.722  33.388  1.00  0.00     0.038 A 
HETATM   38  C29 UNK     1      33.684  -7.046  32.326  1.00  0.00     0.036 A 
BRANCH  34  39
HETATM   39  N3  UNK     1      35.784  -9.535  30.516  1.00  0.00    -0.113 N 
HETATM   40  O4  UNK     1      36.730  -9.232  29.751  1.00  0.00    -0.532 OA
HETATM   41  O5  UNK     1      35.214 -10.650  30.465  1.00  0.00    -0.532 OA
ENDBRANCH  34  39
BRANCH  36  42
HETATM   42  N4  UNK     1      36.637  -6.997  34.577  1.00  0.00    -0.116 N 
HETATM   43  O6  UNK     1      37.866  -7.223  34.469  1.00  0.00    -0.532 OA
HETATM   44  O7  UNK     1      36.142  -6.487  35.611  1.00  0.00    -0.532 OA
ENDBRANCH  36  42
ENDBRANCH  31  33
ENDBRANCH   1  31
TORSDOF 10
ENDMDL
MODEL 7
REMARK VINA RESULT:      -9.8     30.242     34.186
REMARK  10 active torsions:
REMARK  status: ('A' for Active; 'I' for Inactive)
REMARK    1  A    between atoms: C11_22  and  O2_2 
REMARK    2  A    between atoms: C15_26  and  O2_2 
REMARK    3  A    between atoms: N1_8  and  N2_9 
REMARK    4  A    between atoms: C26_37  and  N2_9 
REMARK    5  A    between atoms: C27_38  and  N3_10 
REMARK    6  A    between atoms: C31_42  and  N4_11 
REMARK    7  A    between atoms: C2_13  and  C4_15 
REMARK    8  A    between atoms: C4_15  and  C8_19 
REMARK    9  A    between atoms: C15_26  and  C16_27 
REMARK   10  A    between atoms: C16_27  and  C17_28 
ROOT
HETATM    1  N1  UNK     1      18.520  13.476   8.885  1.00  0.00    -0.176 NA
HETATM    2  C16 UNK     1      18.772  12.375   9.530  1.00  0.00     0.089 C 
ENDROOT
BRANCH   2   3
HETATM    3  C15 UNK     1      18.356  10.988   9.060  1.00  0.00     0.237 C 
BRANCH   3   4
HETATM    4  O2  UNK     1      18.104  10.157  10.192  1.00  0.00    -0.345 OA
BRANCH   4   5
HETATM    5  C11 UNK     1      17.149   9.197  10.057  1.00  0.00     0.071 A 
HETATM    6  C10 UNK     1      15.803   9.544  10.061  1.00  0.00     0.075 A 
HETATM    7  C5  UNK     1      14.838   8.543   9.921  1.00  0.00     0.092 A 
HETATM    8  C3  UNK     1      15.169   7.200   9.772  1.00  0.00     0.005 A 
HETATM    9  O1  UNK     1      13.499   8.961   9.940  1.00  0.00    -0.274 OA
HETATM   10  C1  UNK     1      14.082   6.209   9.630  1.00  0.00    -0.036 A 
HETATM   11  C7  UNK     1      16.534   6.872   9.777  1.00  0.00     0.017 A 
HETATM   12  C9  UNK     1      14.493   4.772   9.413  1.00  0.00     0.050 C 
HETATM   13  C2  UNK     1      12.797   6.620   9.685  1.00  0.00     0.029 A 
HETATM   14  C6  UNK     1      12.451   8.063   9.831  1.00  0.00     0.295 A 
HETATM   15  O3  UNK     1      11.288   8.456   9.847  1.00  0.00    -0.259 OA
HETATM   16  C12 UNK     1      17.514   7.861   9.916  1.00  0.00     0.038 A 
BRANCH  13  17
HETATM   17  C4  UNK     1      11.597   5.709   9.618  1.00  0.00     0.084 C 
BRANCH  17  18
HETATM   18  C8  UNK     1      10.848   5.856   8.326  1.00  0.00    -0.054 A 
HETATM   19  C13 UNK     1       9.456   5.958   8.335  1.00  0.00     0.007 A 
HETATM   20  C18 UNK     1       8.759   6.095   7.135  1.00  0.00     0.001 A 
HETATM   21  C20 UNK     1       9.453   6.130   5.925  1.00  0.00     0.000 A 
HETATM   22  C19 UNK     1      10.845   6.028   5.916  1.00  0.00     0.001 A 
HETATM   23  C14 UNK     1      11.541   5.891   7.117  1.00  0.00     0.007 A 
ENDBRANCH  17  18
ENDBRANCH  13  17
ENDBRANCH   4   5
ENDBRANCH   3   4
ENDBRANCH   2   3
BRANCH   2  24
HETATM   24  C17 UNK     1      19.507  12.478  10.823  1.00  0.00    -0.008 A 
HETATM   25  C21 UNK     1      18.882  13.036  11.939  1.00  0.00     0.014 A 
HETATM   26  C24 UNK     1      19.570  13.133  13.147  1.00  0.00     0.007 A 
HETATM   27  C23 UNK     1      20.883  12.672  13.242  1.00  0.00    -0.062 A 
HETATM   28  C25 UNK     1      21.508  12.113  12.127  1.00  0.00     0.007 A 
HETATM   29  C28 UNK     1      21.618  12.774  14.536  1.00  0.00     0.048 C 
HETATM   30  C22 UNK     1      20.820  12.016  10.917  1.00  0.00     0.014 A 
ENDBRANCH   2  24
BRANCH   1  31
HETATM   31  N2  UNK     1      17.880  13.383   7.706  1.00  0.00    -0.276 N 
HETATM   32  H20 UNK     1      18.240  12.806   6.957  1.00  0.00     0.189 HD
BRANCH  31  33
HETATM   33  C26 UNK     1      16.808  14.239   7.407  1.00  0.00     0.083 A 
HETATM   34  C27 UNK     1      15.487  13.810   7.530  1.00  0.00     0.133 A 
HETATM   35  C30 UNK     1      14.439  14.680   7.226  1.00  0.00     0.074 A 
HETATM   36  C31 UNK     1      14.714  15.980   6.801  1.00  0.00     0.105 A 
HETATM   37  C32 UNK     1      16.036  16.410   6.680  1.00  0.00     0.038 A 
HETATM   38  C29 UNK     1      17.082  15.539   6.983  1.00  0.00     0.036 A 
BRANCH  34  39
HETATM   39  N3  UNK     1      15.179  12.488   7.960  1.00  0.00    -0.113 N 
HETATM   40  O4  UNK     1      14.618  12.328   9.069  1.00  0.00    -0.532 OA
HETATM   41  O5  UNK     1      15.479  11.526   7.215  1.00  0.00    -0.532 OA
ENDBRANCH  34  39
BRANCH  36  42
HETATM   42  N4  UNK     1      13.649  16.867   6.494  1.00  0.00    -0.116 N 
HETATM   43  O6  UNK     1      12.632  16.418   5.913  1.00  0.00    -0.532 OA
HETATM   44  O7  UNK     1      13.755  18.077   6.810  1.00  0.00    -0.532 OA
ENDBRANCH  36  42
ENDBRANCH  31  33
ENDBRANCH   1  31
TORSDOF 10
ENDMDL
MODEL 8
REMARK VINA RESULT:      -9.7     29.872     33.593
REMARK  10 active torsions:
REMARK  status: ('A' for Active; 'I' for Inactive)
REMARK    1  A    between atoms: C11_22  and  O2_2 
REMARK    2  A    between atoms: C15_26  and  O2_2 
REMARK    3  A    between atoms: N1_8  and  N2_9 
REMARK    4  A    between atoms: C26_37  and  N2_9 
REMARK    5  A    between atoms: C27_38  and  N3_10 
REMARK    6  A    between atoms: C31_42  and  N4_11 
REMARK    7  A    between atoms: C2_13  and  C4_15 
REMARK    8  A    between atoms: C4_15  and  C8_19 
REMARK    9  A    between atoms: C15_26  and  C16_27 
REMARK   10  A    between atoms: C16_27  and  C17_28 
ROOT
HETATM    1  N1  UNK     1      20.510  13.429  10.437  1.00  0.00    -0.176 NA
HETATM    2  C16 UNK     1      19.372  12.927  10.058  1.00  0.00     0.089 C 
ENDROOT
BRANCH   2   3
HETATM    3  C15 UNK     1      18.660  11.780  10.761  1.00  0.00     0.237 C 
BRANCH   3   4
HETATM    4  O2  UNK     1      18.502  10.689   9.854  1.00  0.00    -0.345 OA
BRANCH   4   5
HETATM    5  C11 UNK     1      17.302  10.050   9.856  1.00  0.00     0.071 A 
HETATM    6  C10 UNK     1      17.248   8.661   9.814  1.00  0.00     0.075 A 
HETATM    7  C5  UNK     1      16.005   8.024   9.817  1.00  0.00     0.092 A 
HETATM    8  C3  UNK     1      14.804   8.725   9.863  1.00  0.00     0.005 A 
HETATM    9  O1  UNK     1      16.022   6.622   9.766  1.00  0.00    -0.274 OA
HETATM   10  C1  UNK     1      13.535   7.969   9.862  1.00  0.00    -0.036 A 
HETATM   11  C7  UNK     1      14.882  10.127   9.898  1.00  0.00     0.017 A 
HETATM   12  C9  UNK     1      12.261   8.772   9.972  1.00  0.00     0.050 C 
HETATM   13  C2  UNK     1      13.565   6.622   9.778  1.00  0.00     0.029 A 
HETATM   14  C6  UNK     1      14.856   5.876   9.742  1.00  0.00     0.295 A 
HETATM   15  O3  UNK     1      14.901   4.651   9.702  1.00  0.00    -0.259 OA
HETATM   16  C12 UNK     1      16.119  10.782   9.897  1.00  0.00     0.038 A 
BRANCH  13  17
HETATM   17  C4  UNK     1      12.348   5.735   9.704  1.00  0.00     0.084 C 
BRANCH  17  18
HETATM   18  C8  UNK     1      11.582   5.931   8.429  1.00  0.00    -0.054 A 
HETATM   19  C13 UNK     1      10.191   6.036   8.460  1.00  0.00     0.007 A 
HETATM   20  C18 UNK     1       9.479   6.218   7.275  1.00  0.00     0.001 A 
HETATM   21  C20 UNK     1      10.158   6.297   6.058  1.00  0.00     0.000 A 
HETATM   22  C19 UNK     1      11.549   6.193   6.027  1.00  0.00     0.001 A 
HETATM   23  C14 UNK     1      12.260   6.010   7.213  1.00  0.00     0.007 A 
ENDBRANCH  17  18
ENDBRANCH  13  17
ENDBRANCH   4   5
ENDBRANCH   3   4
ENDBRANCH   2   3
BRANCH   2  24
HETATM   24  C17 UNK     1      18.727  13.505   8.844  1.00  0.00    -0.008 A 
HETATM   25  C21 UNK     1      17.458  14.077   8.933  1.00  0.00     0.014 A 
HETATM   26  C24 UNK     1      16.855  14.616   7.798  1.00  0.00     0.007 A 
HETATM   27  C23 UNK     1      17.520  14.585   6.572  1.00  0.00    -0.062 A 
HETATM   28  C25 UNK     1      18.789  14.013   6.482  1.00  0.00     0.007 A 
HETATM   29  C28 UNK     1      16.875  15.164   5.359  1.00  0.00     0.048 C 
HETATM   30  C22 UNK     1      19.393  13.473   7.618  1.00  0.00     0.014 A 
ENDBRANCH   2  24
BRANCH   1  31
HETATM   31  N2  UNK     1      21.081  12.926  11.546  1.00  0.00    -0.276 N 
HETATM   32  H20 UNK     1      20.565  12.847  12.413  1.00  0.00     0.189 HD
BRANCH  31  33
HETATM   33  C26 UNK     1      22.465  12.688  11.591  1.00  0.00     0.083 A 
HETATM   34  C27 UNK     1      23.146  12.625  12.806  1.00  0.00     0.133 A 
HETATM   35  C30 UNK     1      24.521  12.387  12.823  1.00  0.00     0.074 A 
HETATM   36  C31 UNK     1      25.213  12.212  11.625  1.00  0.00     0.105 A 
HETATM   37  C32 UNK     1      24.530  12.275  10.409  1.00  0.00     0.038 A 
HETATM   38  C29 UNK     1      23.157  12.513  10.392  1.00  0.00     0.036 A 
BRANCH  34  39
HETATM   39  N3  UNK     1      22.464  12.801  14.042  1.00  0.00    -0.113 N 
HETATM   40  O4  UNK     1      22.447  11.856  14.865  1.00  0.00    -0.532 OA
HETATM   41  O5  UNK     1      21.902  13.898  14.271  1.00  0.00    -0.532 OA
ENDBRANCH  34  39
BRANCH  36  42
HETATM   42  N4  UNK     1      26.612  11.969  11.641  1.00  0.00    -0.116 N 
HETATM   43  O6  UNK     1      27.023  10.784  11.671  1.00  0.00    -0.532 OA
HETATM   44  O7  UNK     1      27.399  12.947  11.624  1.00  0.00    -0.532 OA
ENDBRANCH  36  42
ENDBRANCH  31  33
ENDBRANCH   1  31
TORSDOF 10
ENDMDL
MODEL 9
REMARK VINA RESULT:      -9.7      8.801     14.606
REMARK  10 active torsions:
REMARK  status: ('A' for Active; 'I' for Inactive)
REMARK    1  A    between atoms: C11_22  and  O2_2 
REMARK    2  A    between atoms: C15_26  and  O2_2 
REMARK    3  A    between atoms: N1_8  and  N2_9 
REMARK    4  A    between atoms: C26_37  and  N2_9 
REMARK    5  A    between atoms: C27_38  and  N3_10 
REMARK    6  A    between atoms: C31_42  and  N4_11 
REMARK    7  A    between atoms: C2_13  and  C4_15 
REMARK    8  A    between atoms: C4_15  and  C8_19 
REMARK    9  A    between atoms: C15_26  and  C16_27 
REMARK   10  A    between atoms: C16_27  and  C17_28 
ROOT
HETATM    1  N1  UNK     1      36.433  -9.297  31.131  1.00  0.00    -0.176 NA
HETATM    2  C16 UNK     1      37.200  -9.541  32.152  1.00  0.00     0.089 C 
ENDROOT
BRANCH   2   3
HETATM    3  C15 UNK     1      36.995  -8.956  33.542  1.00  0.00     0.237 C 
BRANCH   3   4
HETATM    4  O2  UNK     1      36.900  -7.535  33.453  1.00  0.00    -0.345 OA
BRANCH   4   5
HETATM    5  C11 UNK     1      35.913  -6.933  34.169  1.00  0.00     0.071 A 
HETATM    6  C10 UNK     1      35.324  -7.594  35.242  1.00  0.00     0.075 A 
HETATM    7  C5  UNK     1      34.311  -6.958  35.964  1.00  0.00     0.092 A 
HETATM    8  C3  UNK     1      33.862  -5.677  35.657  1.00  0.00     0.005 A 
HETATM    9  O1  UNK     1      33.755  -7.683  37.029  1.00  0.00    -0.274 OA
HETATM   10  C1  UNK     1      32.786  -5.082  36.475  1.00  0.00    -0.036 A 
HETATM   11  C7  UNK     1      34.467  -5.032  34.566  1.00  0.00     0.017 A 
HETATM   12  C9  UNK     1      32.375  -3.669  36.139  1.00  0.00     0.050 C 
HETATM   13  C2  UNK     1      32.236  -5.803  37.475  1.00  0.00     0.029 A 
HETATM   14  C6  UNK     1      32.731  -7.170  37.807  1.00  0.00     0.295 A 
HETATM   15  O3  UNK     1      32.266  -7.825  38.735  1.00  0.00    -0.259 OA
HETATM   16  C12 UNK     1      35.483  -5.653  33.831  1.00  0.00     0.038 A 
BRANCH  13  17
HETATM   17  C4  UNK     1      31.092  -5.343  38.343  1.00  0.00     0.084 C 
BRANCH  17  18
HETATM   18  C8  UNK     1      29.812  -6.054  38.016  1.00  0.00    -0.054 A 
HETATM   19  C13 UNK     1      29.446  -6.252  36.684  1.00  0.00     0.007 A 
HETATM   20  C18 UNK     1      28.256  -6.913  36.380  1.00  0.00     0.001 A 
HETATM   21  C20 UNK     1      27.433  -7.377  37.407  1.00  0.00     0.000 A 
HETATM   22  C19 UNK     1      27.799  -7.178  38.738  1.00  0.00     0.001 A 
HETATM   23  C14 UNK     1      28.989  -6.517  39.042  1.00  0.00     0.007 A 
ENDBRANCH  17  18
ENDBRANCH  13  17
ENDBRANCH   4   5
ENDBRANCH   3   4
ENDBRANCH   2   3
BRANCH   2  24
HETATM   24  C17 UNK     1      38.367 -10.445  31.944  1.00  0.00    -0.008 A 
HETATM   25  C21 UNK     1      38.954 -11.090  33.033  1.00  0.00     0.014 A 
HETATM   26  C24 UNK     1      40.046 -11.934  32.839  1.00  0.00     0.007 A 
HETATM   27  C23 UNK     1      40.553 -12.135  31.555  1.00  0.00    -0.062 A 
HETATM   28  C25 UNK     1      39.966 -11.491  30.465  1.00  0.00     0.007 A 
HETATM   29  C28 UNK     1      41.720 -13.040  31.347  1.00  0.00     0.048 C 
HETATM   30  C22 UNK     1      38.873 -10.646  30.660  1.00  0.00     0.014 A 
ENDBRANCH   2  24
BRANCH   1  31
HETATM   31  N2  UNK     1      35.365  -8.502  31.323  1.00  0.00    -0.276 N 
HETATM   32  H20 UNK     1      35.313  -7.874  32.114  1.00  0.00     0.189 HD
BRANCH  31  33
HETATM   33  C26 UNK     1      34.205  -8.667  30.548  1.00  0.00     0.083 A 
HETATM   34  C27 UNK     1      34.074  -8.050  29.305  1.00  0.00     0.133 A 
HETATM   35  C30 UNK     1      32.911  -8.230  28.555  1.00  0.00     0.074 A 
HETATM   36  C31 UNK     1      31.880  -9.028  29.050  1.00  0.00     0.105 A 
HETATM   37  C32 UNK     1      32.011  -9.646  30.294  1.00  0.00     0.038 A 
HETATM   38  C29 UNK     1      33.173  -9.465  31.043  1.00  0.00     0.036 A 
BRANCH  34  39
HETATM   39  N3  UNK     1      35.111  -7.230  28.778  1.00  0.00    -0.113 N 
HETATM   40  O4  UNK     1      35.713  -7.604  27.744  1.00  0.00    -0.532 OA
HETATM   41  O5  UNK     1      35.389  -6.157  29.363  1.00  0.00    -0.532 OA
ENDBRANCH  34  39
BRANCH  36  42
HETATM   42  N4  UNK     1      30.696  -9.213  28.288  1.00  0.00    -0.116 N 
HETATM   43  O6  UNK     1      29.677  -8.538  28.573  1.00  0.00    -0.532 OA
HETATM   44  O7  UNK     1      30.701 -10.047  27.350  1.00  0.00    -0.532 OA
ENDBRANCH  36  42
ENDBRANCH  31  33
ENDBRANCH   1  31
TORSDOF 10
ENDMDL
MODEL 10
REMARK VINA RESULT:      -9.7      9.587     13.635
REMARK  10 active torsions:
REMARK  status: ('A' for Active; 'I' for Inactive)
REMARK    1  A    between atoms: C11_22  and  O2_2 
REMARK    2  A    between atoms: C15_26  and  O2_2 
REMARK    3  A    between atoms: N1_8  and  N2_9 
REMARK    4  A    between atoms: C26_37  and  N2_9 
REMARK    5  A    between atoms: C27_38  and  N3_10 
REMARK    6  A    between atoms: C31_42  and  N4_11 
REMARK    7  A    between atoms: C2_13  and  C4_15 
REMARK    8  A    between atoms: C4_15  and  C8_19 
REMARK    9  A    between atoms: C15_26  and  C16_27 
REMARK   10  A    between atoms: C16_27  and  C17_28 
ROOT
HETATM    1  N1  UNK     1      30.280 -12.745  30.217  1.00  0.00    -0.176 NA
HETATM    2  C16 UNK     1      30.711 -11.521  30.297  1.00  0.00     0.089 C 
ENDROOT
BRANCH   2   3
HETATM    3  C15 UNK     1      32.180 -11.129  30.377  1.00  0.00     0.237 C 
BRANCH   3   4
HETATM    4  O2  UNK     1      32.754 -11.667  31.568  1.00  0.00    -0.345 OA
BRANCH   4   5
HETATM    5  C11 UNK     1      32.804 -10.853  32.655  1.00  0.00     0.071 A 
HETATM    6  C10 UNK     1      32.147 -11.208  33.828  1.00  0.00     0.075 A 
HETATM    7  C5  UNK     1      32.211 -10.357  34.933  1.00  0.00     0.092 A 
HETATM    8  C3  UNK     1      32.915  -9.157  34.915  1.00  0.00     0.005 A 
HETATM    9  O1  UNK     1      31.520 -10.773  36.082  1.00  0.00    -0.274 OA
HETATM   10  C1  UNK     1      32.929  -8.319  36.132  1.00  0.00    -0.036 A 
HETATM   11  C7  UNK     1      33.566  -8.815  33.720  1.00  0.00     0.017 A 
HETATM   12  C9  UNK     1      33.755  -7.056  36.081  1.00  0.00     0.050 C 
HETATM   13  C2  UNK     1      32.232  -8.714  37.219  1.00  0.00     0.029 A 
HETATM   14  C6  UNK     1      31.490 -10.008  37.235  1.00  0.00     0.295 A 
HETATM   15  O3  UNK     1      30.881 -10.398  38.226  1.00  0.00    -0.259 OA
HETATM   16  C12 UNK     1      33.513  -9.656  32.601  1.00  0.00     0.038 A 
BRANCH  13  17
HETATM   17  C4  UNK     1      32.110  -7.926  38.498  1.00  0.00     0.084 C 
BRANCH  17  18
HETATM   18  C8  UNK     1      31.086  -6.835  38.395  1.00  0.00    -0.054 A 
HETATM   19  C13 UNK     1      29.729  -7.154  38.344  1.00  0.00     0.007 A 
HETATM   20  C18 UNK     1      28.777  -6.139  38.248  1.00  0.00     0.001 A 
HETATM   21  C20 UNK     1      29.181  -4.804  38.203  1.00  0.00     0.000 A 
HETATM   22  C19 UNK     1      30.539  -4.485  38.254  1.00  0.00     0.001 A 
HETATM   23  C14 UNK     1      31.490  -5.501  38.350  1.00  0.00     0.007 A 
ENDBRANCH  17  18
ENDBRANCH  13  17
ENDBRANCH   4   5
ENDBRANCH   3   4
ENDBRANCH   2   3
BRANCH   2  24
HETATM   24  C17 UNK     1      29.698 -10.427  30.326  1.00  0.00    -0.008 A 
HETATM   25  C21 UNK     1      29.425  -9.759  31.520  1.00  0.00     0.014 A 
HETATM   26  C24 UNK     1      28.477  -8.737  31.546  1.00  0.00     0.007 A 
HETATM   27  C23 UNK     1      27.801  -8.381  30.379  1.00  0.00    -0.062 A 
HETATM   28  C25 UNK     1      28.075  -9.048  29.184  1.00  0.00     0.007 A 
HETATM   29  C28 UNK     1      26.789  -7.286  30.407  1.00  0.00     0.048 C 
HETATM   30  C22 UNK     1      29.024 -10.071  29.157  1.00  0.00     0.014 A 
ENDBRANCH   2  24
BRANCH   1  31
HETATM   31  N2  UNK     1      31.193 -13.731  30.165  1.00  0.00    -0.276 N 
HETATM   32  H20 UNK     1      31.807 -13.837  29.369  1.00  0.00     0.189 HD
BRANCH  31  33
HETATM   33  C26 UNK     1      31.182 -14.764  31.117  1.00  0.00     0.083 A 
HETATM   34  C27 UNK     1      31.439 -16.084  30.751  1.00  0.00     0.133 A 
HETATM   35  C30 UNK     1      31.422 -17.092  31.716  1.00  0.00     0.074 A 
HETATM   36  C31 UNK     1      31.148 -16.777  33.048  1.00  0.00     0.105 A 
HETATM   37  C32 UNK     1      30.892 -15.455  33.414  1.00  0.00     0.038 A 
HETATM   38  C29 UNK     1      30.908 -14.449  32.449  1.00  0.00     0.036 A 
BRANCH  34  39
HETATM   39  N3  UNK     1      31.719 -16.432  29.400  1.00  0.00    -0.113 N 
HETATM   40  O4  UNK     1      30.865 -17.082  28.753  1.00  0.00    -0.532 OA
HETATM   41  O5  UNK     1      32.811 -16.077  28.899  1.00  0.00    -0.532 OA
ENDBRANCH  34  39
BRANCH  36  42
HETATM   42  N4  UNK     1      31.132 -17.801  34.031  1.00  0.00    -0.116 N 
HETATM   43  O6  UNK     1      32.222 -18.234  34.476  1.00  0.00    -0.532 OA
HETATM   44  O7  UNK     1      30.027 -18.246  34.427  1.00  0.00    -0.532 OA
ENDBRANCH  36  42
ENDBRANCH  31  33
ENDBRANCH   1  31
TORSDOF 10
ENDMDL
