MODEL 1
REMARK VINA RESULT:      -9.3      0.000      0.000
REMARK  3 active torsions:
REMARK  status: ('A' for Active; 'I' for Inactive)
REMARK    1  A    between atoms: C6_11  and  N1_4 
REMARK    2  A    between atoms: C11_16  and  N2_5 
REMARK    3  A    between atoms: C6_11  and  N2_5 
ROOT
HETATM    1  N2  UNK     1      18.385   4.076  32.015  1.00  0.00    -0.333 N 
HETATM    2  H11 UNK     1      18.107   3.389  32.713  1.00  0.00     0.168 HD
ENDROOT
BRANCH   1   3
HETATM    3  C11 UNK     1      18.500   5.394  32.521  1.00  0.00     0.036 A 
HETATM    4  C15 UNK     1      19.733   5.845  32.959  1.00  0.00     0.030 A 
HETATM    5  C16 UNK     1      19.854   7.146  33.461  1.00  0.00     0.017 A 
HETATM    6  C12 UNK     1      18.742   7.995  33.526  1.00  0.00     0.004 A 
HETATM    7  C17 UNK     1      18.794   9.370  34.041  1.00  0.00    -0.043 A 
HETATM    8  C13 UNK     1      17.520   7.496  33.074  1.00  0.00     0.092 A 
HETATM    9  C18 UNK     1      17.669  10.099  34.060  1.00  0.00     0.090 A 
HETATM   10  C19 UNK     1      20.094   9.936  34.535  1.00  0.00     0.049 C 
HETATM   11  C20 UNK     1      16.372   9.588  33.586  1.00  0.00     0.288 A 
HETATM   12  O1  UNK     1      16.353   8.288  33.106  1.00  0.00    -0.275 OA
HETATM   13  O2  UNK     1      15.364  10.284  33.618  1.00  0.00    -0.260 OA
HETATM   14  C14 UNK     1      17.383   6.202  32.570  1.00  0.00     0.067 A 
ENDBRANCH   1   3
BRANCH   1  15
HETATM   15  C6  UNK     1      18.601   3.569  30.761  1.00  0.00     0.174 C 
HETATM   16  S1  UNK     1      18.992   4.598  29.494  1.00  0.00    -0.041 SA
BRANCH  15  17
HETATM   17  N1  UNK     1      18.560   2.228  30.556  1.00  0.00    -0.353 N 
HETATM   18  C1  UNK     1      18.236   1.666  29.253  1.00  0.00     0.130 C 
HETATM   19  C2  UNK     1      19.328   0.694  28.817  1.00  0.00     0.059 C 
HETATM   20  C4  UNK     1      19.660  -0.300  29.902  1.00  0.00    -0.049 A 
HETATM   21  C5  UNK     1      19.403  -0.000  31.254  1.00  0.00    -0.034 A 
HETATM   22  C7  UNK     1      20.286  -1.509  29.568  1.00  0.00     0.008 A 
HETATM   23  C3  UNK     1      18.733   1.289  31.660  1.00  0.00     0.164 C 
HETATM   24  C8  UNK     1      19.750  -0.931  32.242  1.00  0.00     0.009 A 
HETATM   25  C10 UNK     1      20.361  -2.136  31.898  1.00  0.00     0.001 A 
HETATM   26  C9  UNK     1      20.632  -2.423  30.562  1.00  0.00     0.001 A 
ENDBRANCH  15  17
ENDBRANCH   1  15
TORSDOF 3
ENDMDL
MODEL 2
REMARK VINA RESULT:      -9.2      3.099      9.139
REMARK  3 active torsions:
REMARK  status: ('A' for Active; 'I' for Inactive)
REMARK    1  A    between atoms: C6_11  and  N1_4 
REMARK    2  A    between atoms: C11_16  and  N2_5 
REMARK    3  A    between atoms: C6_11  and  N2_5 
ROOT
HETATM    1  N2  UNK     1      17.746   4.364  31.659  1.00  0.00    -0.333 N 
HETATM    2  H11 UNK     1      16.729   4.384  31.696  1.00  0.00     0.168 HD
ENDROOT
BRANCH   1   3
HETATM    3  C11 UNK     1      18.283   3.116  31.260  1.00  0.00     0.036 A 
HETATM    4  C15 UNK     1      18.579   2.902  29.925  1.00  0.00     0.030 A 
HETATM    5  C16 UNK     1      19.108   1.670  29.525  1.00  0.00     0.017 A 
HETATM    6  C12 UNK     1      19.342   0.653  30.459  1.00  0.00     0.004 A 
HETATM    7  C17 UNK     1      19.894  -0.663  30.110  1.00  0.00    -0.043 A 
HETATM    8  C13 UNK     1      19.027   0.914  31.793  1.00  0.00     0.092 A 
HETATM    9  C18 UNK     1      20.077  -1.569  31.083  1.00  0.00     0.090 A 
HETATM   10  C19 UNK     1      20.242  -0.976  28.684  1.00  0.00     0.049 C 
HETATM   11  C20 UNK     1      19.751  -1.308  32.495  1.00  0.00     0.288 A 
HETATM   12  O1  UNK     1      19.232  -0.058  32.793  1.00  0.00    -0.275 OA
HETATM   13  O2  UNK     1      19.932  -2.159  33.357  1.00  0.00    -0.260 OA
HETATM   14  C14 UNK     1      18.499   2.137  32.208  1.00  0.00     0.067 A 
ENDBRANCH   1   3
BRANCH   1  15
HETATM   15  C6  UNK     1      18.356   5.548  31.981  1.00  0.00     0.174 C 
HETATM   16  S1  UNK     1      19.811   5.968  31.257  1.00  0.00    -0.041 SA
BRANCH  15  17
HETATM   17  N1  UNK     1      17.755   6.409  32.841  1.00  0.00    -0.353 N 
HETATM   18  C1  UNK     1      18.493   7.047  33.921  1.00  0.00     0.130 C 
HETATM   19  C2  UNK     1      18.318   8.560  33.851  1.00  0.00     0.059 C 
HETATM   20  C4  UNK     1      16.866   8.952  33.719  1.00  0.00    -0.049 A 
HETATM   21  C5  UNK     1      15.925   8.051  33.185  1.00  0.00    -0.034 A 
HETATM   22  C7  UNK     1      16.461  10.245  34.075  1.00  0.00     0.008 A 
HETATM   23  C3  UNK     1      16.316   6.649  32.786  1.00  0.00     0.164 C 
HETATM   24  C8  UNK     1      14.590   8.453  33.047  1.00  0.00     0.009 A 
HETATM   25  C10 UNK     1      14.195   9.738  33.416  1.00  0.00     0.001 A 
HETATM   26  C9  UNK     1      15.131  10.635  33.927  1.00  0.00     0.001 A 
ENDBRANCH  15  17
ENDBRANCH   1  15
TORSDOF 3
ENDMDL
MODEL 3
REMARK VINA RESULT:      -9.2      1.395      2.087
REMARK  3 active torsions:
REMARK  status: ('A' for Active; 'I' for Inactive)
REMARK    1  A    between atoms: C6_11  and  N1_4 
REMARK    2  A    between atoms: C11_16  and  N2_5 
REMARK    3  A    between atoms: C6_11  and  N2_5 
ROOT
HETATM    1  N2  UNK     1      18.016   4.111  31.984  1.00  0.00    -0.333 N 
HETATM    2  H11 UNK     1      17.695   3.409  32.648  1.00  0.00     0.168 HD
ENDROOT
BRANCH   1   3
HETATM    3  C11 UNK     1      17.926   5.440  32.463  1.00  0.00     0.036 A 
HETATM    4  C15 UNK     1      16.698   6.080  32.461  1.00  0.00     0.030 A 
HETATM    5  C16 UNK     1      16.604   7.394  32.932  1.00  0.00     0.017 A 
HETATM    6  C12 UNK     1      17.736   8.069  33.405  1.00  0.00     0.004 A 
HETATM    7  C17 UNK     1      17.711   9.447  33.913  1.00  0.00    -0.043 A 
HETATM    8  C13 UNK     1      18.952   7.385  33.387  1.00  0.00     0.092 A 
HETATM    9  C18 UNK     1      18.855  10.002  34.342  1.00  0.00     0.090 A 
HETATM   10  C19 UNK     1      16.419  10.211  33.945  1.00  0.00     0.049 C 
HETATM   11  C20 UNK     1      20.145   9.293  34.330  1.00  0.00     0.288 A 
HETATM   12  O1  UNK     1      20.138   7.994  33.845  1.00  0.00    -0.275 OA
HETATM   13  O2  UNK     1      21.171   9.832  34.730  1.00  0.00    -0.260 OA
HETATM   14  C14 UNK     1      19.063   6.074  32.920  1.00  0.00     0.067 A 
ENDBRANCH   1   3
BRANCH   1  15
HETATM   15  C6  UNK     1      18.476   3.610  30.795  1.00  0.00     0.174 C 
HETATM   16  S1  UNK     1      19.132   4.642  29.645  1.00  0.00    -0.041 SA
BRANCH  15  17
HETATM   17  N1  UNK     1      18.458   2.271  30.571  1.00  0.00    -0.353 N 
HETATM   18  C1  UNK     1      18.091   1.721  29.275  1.00  0.00     0.130 C 
HETATM   19  C2  UNK     1      19.185   0.782  28.776  1.00  0.00     0.059 C 
HETATM   20  C4  UNK     1      19.589  -0.219  29.831  1.00  0.00    -0.049 A 
HETATM   21  C5  UNK     1      19.385   0.055  31.197  1.00  0.00    -0.034 A 
HETATM   22  C7  UNK     1      20.228  -1.407  29.451  1.00  0.00     0.008 A 
HETATM   23  C3  UNK     1      18.702   1.321  31.651  1.00  0.00     0.164 C 
HETATM   24  C8  UNK     1      19.796  -0.881  32.155  1.00  0.00     0.009 A 
HETATM   25  C10 UNK     1      20.421  -2.066  31.766  1.00  0.00     0.001 A 
HETATM   26  C9  UNK     1      20.639  -2.327  30.415  1.00  0.00     0.001 A 
ENDBRANCH  15  17
ENDBRANCH   1  15
TORSDOF 3
ENDMDL
MODEL 4
REMARK VINA RESULT:      -9.2      3.133      9.129
REMARK  3 active torsions:
REMARK  status: ('A' for Active; 'I' for Inactive)
REMARK    1  A    between atoms: C6_11  and  N1_4 
REMARK    2  A    between atoms: C11_16  and  N2_5 
REMARK    3  A    between atoms: C6_11  and  N2_5 
ROOT
HETATM    1  N2  UNK     1      17.721   4.614  32.131  1.00  0.00    -0.333 N 
HETATM    2  H11 UNK     1      16.722   4.737  31.977  1.00  0.00     0.168 HD
ENDROOT
BRANCH   1   3
HETATM    3  C11 UNK     1      18.158   3.272  32.019  1.00  0.00     0.036 A 
HETATM    4  C15 UNK     1      18.129   2.455  33.136  1.00  0.00     0.030 A 
HETATM    5  C16 UNK     1      18.562   1.128  33.033  1.00  0.00     0.017 A 
HETATM    6  C12 UNK     1      19.024   0.618  31.813  1.00  0.00     0.004 A 
HETATM    7  C17 UNK     1      19.494  -0.762  31.631  1.00  0.00    -0.043 A 
HETATM    8  C13 UNK     1      19.037   1.479  30.715  1.00  0.00     0.092 A 
HETATM    9  C18 UNK     1      19.918  -1.149  30.419  1.00  0.00     0.090 A 
HETATM   10  C19 UNK     1      19.493  -1.712  32.793  1.00  0.00     0.049 C 
HETATM   11  C20 UNK     1      19.937  -0.253  29.251  1.00  0.00     0.288 A 
HETATM   12  O1  UNK     1      19.489   1.043  29.453  1.00  0.00    -0.275 OA
HETATM   13  O2  UNK     1      20.332  -0.641  28.158  1.00  0.00    -0.260 OA
HETATM   14  C14 UNK     1      18.609   2.805  30.802  1.00  0.00     0.067 A 
ENDBRANCH   1   3
BRANCH   1  15
HETATM   15  C6  UNK     1      18.410   5.770  32.388  1.00  0.00     0.174 C 
HETATM   16  S1  UNK     1      19.830   6.103  31.559  1.00  0.00    -0.041 SA
BRANCH  15  17
HETATM   17  N1  UNK     1      17.913   6.673  33.270  1.00  0.00    -0.353 N 
HETATM   18  C1  UNK     1      18.788   7.491  34.097  1.00  0.00     0.130 C 
HETATM   19  C2  UNK     1      18.446   8.967  33.920  1.00  0.00     0.059 C 
HETATM   20  C4  UNK     1      16.966   9.222  34.068  1.00  0.00    -0.049 A 
HETATM   21  C5  UNK     1      16.033   8.192  33.841  1.00  0.00    -0.034 A 
HETATM   22  C7  UNK     1      16.511  10.511  34.377  1.00  0.00     0.008 A 
HETATM   23  C3  UNK     1      16.477   6.789  33.505  1.00  0.00     0.164 C 
HETATM   24  C8  UNK     1      14.664   8.466  33.957  1.00  0.00     0.009 A 
HETATM   25  C10 UNK     1      14.223   9.749  34.276  1.00  0.00     0.001 A 
HETATM   26  C9  UNK     1      15.146  10.772  34.483  1.00  0.00     0.001 A 
ENDBRANCH  15  17
ENDBRANCH   1  15
TORSDOF 3
ENDMDL
MODEL 5
REMARK VINA RESULT:      -9.0      8.617     13.448
REMARK  3 active torsions:
REMARK  status: ('A' for Active; 'I' for Inactive)
REMARK    1  A    between atoms: C6_11  and  N1_4 
REMARK    2  A    between atoms: C11_16  and  N2_5 
REMARK    3  A    between atoms: C6_11  and  N2_5 
ROOT
HETATM    1  N2  UNK     1      18.549  -4.651  36.508  1.00  0.00    -0.333 N 
HETATM    2  H11 UNK     1      17.542  -4.622  36.359  1.00  0.00     0.168 HD
ENDROOT
BRANCH   1   3
HETATM    3  C11 UNK     1      19.111  -5.946  36.390  1.00  0.00     0.036 A 
HETATM    4  C15 UNK     1      19.988  -6.211  35.354  1.00  0.00     0.030 A 
HETATM    5  C16 UNK     1      20.545  -7.489  35.231  1.00  0.00     0.017 A 
HETATM    6  C12 UNK     1      20.225  -8.501  36.145  1.00  0.00     0.004 A 
HETATM    7  C17 UNK     1      20.770  -9.864  36.077  1.00  0.00    -0.043 A 
HETATM    8  C13 UNK     1      19.335  -8.187  37.172  1.00  0.00     0.092 A 
HETATM    9  C18 UNK     1      20.396 -10.759  37.003  1.00  0.00     0.090 A 
HETATM   10  C19 UNK     1      21.729 -10.233  34.983  1.00  0.00     0.049 C 
HETATM   11  C20 UNK     1      19.459 -10.443  38.093  1.00  0.00     0.288 A 
HETATM   12  O1  UNK     1      18.961  -9.150  38.132  1.00  0.00    -0.275 OA
HETATM   13  O2  UNK     1      19.140 -11.288  38.923  1.00  0.00    -0.260 OA
HETATM   14  C14 UNK     1      18.771  -6.918  37.309  1.00  0.00     0.067 A 
ENDBRANCH   1   3
BRANCH   1  15
HETATM   15  C6  UNK     1      19.128  -3.436  36.767  1.00  0.00     0.174 C 
HETATM   16  S1  UNK     1      20.706  -3.361  37.333  1.00  0.00    -0.041 SA
BRANCH  15  17
HETATM   17  N1  UNK     1      18.446  -2.292  36.507  1.00  0.00    -0.353 N 
HETATM   18  C1  UNK     1      17.648  -1.632  37.530  1.00  0.00     0.130 C 
HETATM   19  C2  UNK     1      18.071  -0.173  37.663  1.00  0.00     0.059 C 
HETATM   20  C4  UNK     1      18.131   0.518  36.322  1.00  0.00    -0.049 A 
HETATM   21  C5  UNK     1      18.315  -0.224  35.140  1.00  0.00    -0.034 A 
HETATM   22  C7  UNK     1      18.062   1.916  36.258  1.00  0.00     0.008 A 
HETATM   23  C3  UNK     1      18.396  -1.730  35.161  1.00  0.00     0.164 C 
HETATM   24  C8  UNK     1      18.397   0.447  33.913  1.00  0.00     0.009 A 
HETATM   25  C10 UNK     1      18.315   1.838  33.859  1.00  0.00     0.001 A 
HETATM   26  C9  UNK     1      18.151   2.572  35.032  1.00  0.00     0.001 A 
ENDBRANCH  15  17
ENDBRANCH   1  15
TORSDOF 3
ENDMDL
MODEL 6
REMARK VINA RESULT:      -9.0      7.379      9.790
REMARK  3 active torsions:
REMARK  status: ('A' for Active; 'I' for Inactive)
REMARK    1  A    between atoms: C6_11  and  N1_4 
REMARK    2  A    between atoms: C11_16  and  N2_5 
REMARK    3  A    between atoms: C6_11  and  N2_5 
ROOT
HETATM    1  N2  UNK     1      19.803  -3.981  35.653  1.00  0.00    -0.333 N 
HETATM    2  H11 UNK     1      19.780  -4.232  34.667  1.00  0.00     0.168 HD
ENDROOT
BRANCH   1   3
HETATM    3  C11 UNK     1      19.282  -2.693  35.930  1.00  0.00     0.036 A 
HETATM    4  C15 UNK     1      18.853  -2.398  37.213  1.00  0.00     0.030 A 
HETATM    5  C16 UNK     1      18.336  -1.128  37.492  1.00  0.00     0.017 A 
HETATM    6  C12 UNK     1      18.248  -0.153  36.490  1.00  0.00     0.004 A 
HETATM    7  C17 UNK     1      17.717   1.198  36.711  1.00  0.00    -0.043 A 
HETATM    8  C13 UNK     1      18.692  -0.497  35.212  1.00  0.00     0.092 A 
HETATM    9  C18 UNK     1      17.676   2.056  35.681  1.00  0.00     0.090 A 
HETATM   10  C19 UNK     1      17.232   1.599  38.074  1.00  0.00     0.049 C 
HETATM   11  C20 UNK     1      18.141   1.709  34.328  1.00  0.00     0.288 A 
HETATM   12  O1  UNK     1      18.637   0.427  34.149  1.00  0.00    -0.275 OA
HETATM   13  O2  UNK     1      18.088   2.519  33.409  1.00  0.00    -0.260 OA
HETATM   14  C14 UNK     1      19.210  -1.759  34.917  1.00  0.00     0.067 A 
ENDBRANCH   1   3
BRANCH   1  15
HETATM   15  C6  UNK     1      20.308  -4.947  36.482  1.00  0.00     0.174 C 
HETATM   16  S1  UNK     1      21.326  -4.522  37.747  1.00  0.00    -0.041 SA
BRANCH  15  17
HETATM   17  N1  UNK     1      19.938  -6.242  36.318  1.00  0.00    -0.353 N 
HETATM   18  C1  UNK     1      20.127  -6.934  35.051  1.00  0.00     0.130 C 
HETATM   19  C2  UNK     1      20.907  -8.225  35.272  1.00  0.00     0.059 C 
HETATM   20  C4  UNK     1      20.324  -9.048  36.395  1.00  0.00    -0.049 A 
HETATM   21  C5  UNK     1      19.555  -8.441  37.406  1.00  0.00    -0.034 A 
HETATM   22  C7  UNK     1      20.600 -10.421  36.465  1.00  0.00     0.008 A 
HETATM   23  C3  UNK     1      19.234  -6.967  37.371  1.00  0.00     0.164 C 
HETATM   24  C8  UNK     1      19.051  -9.226  38.451  1.00  0.00     0.009 A 
HETATM   25  C10 UNK     1      19.322 -10.592  38.506  1.00  0.00     0.001 A 
HETATM   26  C9  UNK     1      20.098 -11.189  37.515  1.00  0.00     0.001 A 
ENDBRANCH  15  17
ENDBRANCH   1  15
TORSDOF 3
ENDMDL
MODEL 7
REMARK VINA RESULT:      -9.0      3.600      5.703
REMARK  3 active torsions:
REMARK  status: ('A' for Active; 'I' for Inactive)
REMARK    1  A    between atoms: C6_11  and  N1_4 
REMARK    2  A    between atoms: C11_16  and  N2_5 
REMARK    3  A    between atoms: C6_11  and  N2_5 
ROOT
HETATM    1  N2  UNK     1      18.651  -0.358  31.355  1.00  0.00    -0.333 N 
HETATM    2  H11 UNK     1      18.133  -0.837  30.621  1.00  0.00     0.168 HD
ENDROOT
BRANCH   1   3
HETATM    3  C11 UNK     1      18.665   1.052  31.221  1.00  0.00     0.036 A 
HETATM    4  C15 UNK     1      19.040   1.614  30.013  1.00  0.00     0.030 A 
HETATM    5  C16 UNK     1      19.057   3.006  29.875  1.00  0.00     0.017 A 
HETATM    6  C12 UNK     1      18.700   3.837  30.945  1.00  0.00     0.004 A 
HETATM    7  C17 UNK     1      18.696   5.304  30.872  1.00  0.00    -0.043 A 
HETATM    8  C13 UNK     1      18.331   3.226  32.143  1.00  0.00     0.092 A 
HETATM    9  C18 UNK     1      18.338   6.007  31.957  1.00  0.00     0.090 A 
HETATM   10  C19 UNK     1      19.089   5.992  29.597  1.00  0.00     0.049 C 
HETATM   11  C20 UNK     1      17.944   5.377  33.228  1.00  0.00     0.288 A 
HETATM   12  O1  UNK     1      17.958   3.991  33.267  1.00  0.00    -0.275 OA
HETATM   13  O2  UNK     1      17.622   6.051  34.199  1.00  0.00    -0.260 OA
HETATM   14  C14 UNK     1      18.308   1.839  32.297  1.00  0.00     0.067 A 
ENDBRANCH   1   3
BRANCH   1  15
HETATM   15  C6  UNK     1      19.194  -1.179  32.308  1.00  0.00     0.174 C 
HETATM   16  S1  UNK     1      20.543  -2.109  31.947  1.00  0.00    -0.041 SA
BRANCH  15  17
HETATM   17  N1  UNK     1      18.677  -1.195  33.563  1.00  0.00    -0.353 N 
HETATM   18  C1  UNK     1      19.482  -1.577  34.713  1.00  0.00     0.130 C 
HETATM   19  C2  UNK     1      19.425  -0.487  35.777  1.00  0.00     0.059 C 
HETATM   20  C4  UNK     1      18.007  -0.064  36.073  1.00  0.00    -0.049 A 
HETATM   21  C5  UNK     1      16.988  -0.251  35.119  1.00  0.00    -0.034 A 
HETATM   22  C7  UNK     1      17.710   0.574  37.285  1.00  0.00     0.008 A 
HETATM   23  C3  UNK     1      17.261  -0.932  33.800  1.00  0.00     0.164 C 
HETATM   24  C8  UNK     1      15.686   0.178  35.409  1.00  0.00     0.009 A 
HETATM   25  C10 UNK     1      15.400   0.801  36.623  1.00  0.00     0.001 A 
HETATM   26  C9  UNK     1      16.412   1.002  37.559  1.00  0.00     0.001 A 
ENDBRANCH  15  17
ENDBRANCH   1  15
TORSDOF 3
ENDMDL
MODEL 8
REMARK VINA RESULT:      -8.9      7.659     12.050
REMARK  3 active torsions:
REMARK  status: ('A' for Active; 'I' for Inactive)
REMARK    1  A    between atoms: C6_11  and  N1_4 
REMARK    2  A    between atoms: C11_16  and  N2_5 
REMARK    3  A    between atoms: C6_11  and  N2_5 
ROOT
HETATM    1  N2  UNK     1      19.429  -3.464  35.603  1.00  0.00    -0.333 N 
HETATM    2  H11 UNK     1      18.425  -3.373  35.744  1.00  0.00     0.168 HD
ENDROOT
BRANCH   1   3
HETATM    3  C11 UNK     1      19.968  -4.683  36.081  1.00  0.00     0.036 A 
HETATM    4  C15 UNK     1      20.268  -4.811  37.426  1.00  0.00     0.030 A 
HETATM    5  C16 UNK     1      20.802  -6.013  37.903  1.00  0.00     0.017 A 
HETATM    6  C12 UNK     1      21.037  -7.087  37.035  1.00  0.00     0.004 A 
HETATM    7  C17 UNK     1      21.595  -8.376  37.466  1.00  0.00    -0.043 A 
HETATM    8  C13 UNK     1      20.721  -6.912  35.688  1.00  0.00     0.092 A 
HETATM    9  C18 UNK     1      21.782  -9.340  36.552  1.00  0.00     0.090 A 
HETATM   10  C19 UNK     1      21.947  -8.596  38.909  1.00  0.00     0.049 C 
HETATM   11  C20 UNK     1      21.452  -9.171  35.127  1.00  0.00     0.288 A 
HETATM   12  O1  UNK     1      20.927  -7.945  34.751  1.00  0.00    -0.275 OA
HETATM   13  O2  UNK     1      21.636 -10.075  34.320  1.00  0.00    -0.260 OA
HETATM   14  C14 UNK     1      20.187  -5.720  35.196  1.00  0.00     0.067 A 
ENDBRANCH   1   3
BRANCH   1  15
HETATM   15  C6  UNK     1      20.020  -2.402  34.970  1.00  0.00     0.174 C 
HETATM   16  S1  UNK     1      21.402  -1.702  35.616  1.00  0.00    -0.041 SA
BRANCH  15  17
HETATM   17  N1  UNK     1      19.524  -1.956  33.789  1.00  0.00    -0.353 N 
HETATM   18  C1  UNK     1      18.400  -1.032  33.736  1.00  0.00     0.130 C 
HETATM   19  C2  UNK     1      18.768   0.192  32.903  1.00  0.00     0.059 C 
HETATM   20  C4  UNK     1      19.372  -0.194  31.575  1.00  0.00    -0.049 A 
HETATM   21  C5  UNK     1      19.994  -1.446  31.405  1.00  0.00    -0.034 A 
HETATM   22  C7  UNK     1      19.366   0.724  30.516  1.00  0.00     0.008 A 
HETATM   23  C3  UNK     1      20.025  -2.466  32.517  1.00  0.00     0.164 C 
HETATM   24  C8  UNK     1      20.572  -1.765  30.169  1.00  0.00     0.009 A 
HETATM   25  C10 UNK     1      20.550  -0.848  29.119  1.00  0.00     0.001 A 
HETATM   26  C9  UNK     1      19.950   0.397  29.294  1.00  0.00     0.001 A 
ENDBRANCH  15  17
ENDBRANCH   1  15
TORSDOF 3
ENDMDL
MODEL 9
REMARK VINA RESULT:      -8.8      8.736     13.623
REMARK  3 active torsions:
REMARK  status: ('A' for Active; 'I' for Inactive)
REMARK    1  A    between atoms: C6_11  and  N1_4 
REMARK    2  A    between atoms: C11_16  and  N2_5 
REMARK    3  A    between atoms: C6_11  and  N2_5 
ROOT
HETATM    1  N2  UNK     1      18.997  -4.774  36.045  1.00  0.00    -0.333 N 
HETATM    2  H11 UNK     1      18.434  -4.660  35.205  1.00  0.00     0.168 HD
ENDROOT
BRANCH   1   3
HETATM    3  C11 UNK     1      19.257  -6.124  36.385  1.00  0.00     0.036 A 
HETATM    4  C15 UNK     1      18.639  -6.675  37.493  1.00  0.00     0.030 A 
HETATM    5  C16 UNK     1      18.894  -8.008  37.835  1.00  0.00     0.017 A 
HETATM    6  C12 UNK     1      19.767  -8.790  37.067  1.00  0.00     0.004 A 
HETATM    7  C17 UNK     1      20.081 -10.194  37.366  1.00  0.00    -0.043 A 
HETATM    8  C13 UNK     1      20.368  -8.191  35.960  1.00  0.00     0.092 A 
HETATM    9  C18 UNK     1      20.933 -10.853  36.567  1.00  0.00     0.090 A 
HETATM   10  C19 UNK     1      19.451 -10.867  38.551  1.00  0.00     0.049 C 
HETATM   11  C20 UNK     1      21.574 -10.235  35.394  1.00  0.00     0.288 A 
HETATM   12  O1  UNK     1      21.259  -8.910  35.137  1.00  0.00    -0.275 OA
HETATM   13  O2  UNK     1      22.348 -10.869  34.685  1.00  0.00    -0.260 OA
HETATM   14  C14 UNK     1      20.124  -6.863  35.606  1.00  0.00     0.067 A 
ENDBRANCH   1   3
BRANCH   1  15
HETATM   15  C6  UNK     1      19.388  -3.603  36.639  1.00  0.00     0.174 C 
HETATM   16  S1  UNK     1      20.822  -3.540  37.509  1.00  0.00    -0.041 SA
BRANCH  15  17
HETATM   17  N1  UNK     1      18.647  -2.478  36.473  1.00  0.00    -0.353 N 
HETATM   18  C1  UNK     1      17.830  -1.938  37.550  1.00  0.00     0.130 C 
HETATM   19  C2  UNK     1      18.181  -0.474  37.789  1.00  0.00     0.059 C 
HETATM   20  C4  UNK     1      18.190   0.318  36.504  1.00  0.00    -0.049 A 
HETATM   21  C5  UNK     1      18.397  -0.323  35.267  1.00  0.00    -0.034 A 
HETATM   22  C7  UNK     1      18.051   1.712  36.546  1.00  0.00     0.008 A 
HETATM   23  C3  UNK     1      18.552  -1.821  35.174  1.00  0.00     0.164 C 
HETATM   24  C8  UNK     1      18.429   0.442  34.093  1.00  0.00     0.009 A 
HETATM   25  C10 UNK     1      18.278   1.827  34.145  1.00  0.00     0.001 A 
HETATM   26  C9  UNK     1      18.092   2.462  35.372  1.00  0.00     0.001 A 
ENDBRANCH  15  17
ENDBRANCH   1  15
TORSDOF 3
ENDMDL
MODEL 10
REMARK VINA RESULT:      -8.6     15.163     16.022
REMARK  3 active torsions:
REMARK  status: ('A' for Active; 'I' for Inactive)
REMARK    1  A    between atoms: C6_11  and  N1_4 
REMARK    2  A    between atoms: C11_16  and  N2_5 
REMARK    3  A    between atoms: C6_11  and  N2_5 
ROOT
HETATM    1  N2  UNK     1      25.702  -9.074  37.872  1.00  0.00    -0.333 N 
HETATM    2  H11 UNK     1      25.435  -9.171  38.850  1.00  0.00     0.168 HD
ENDROOT
BRANCH   1   3
HETATM    3  C11 UNK     1      26.766  -8.164  37.656  1.00  0.00     0.036 A 
HETATM    4  C15 UNK     1      27.524  -8.271  36.502  1.00  0.00     0.030 A 
HETATM    5  C16 UNK     1      28.577  -7.376  36.283  1.00  0.00     0.017 A 
HETATM    6  C12 UNK     1      28.874  -6.376  37.218  1.00  0.00     0.004 A 
HETATM    7  C17 UNK     1      29.964  -5.405  37.054  1.00  0.00    -0.043 A 
HETATM    8  C13 UNK     1      28.084  -6.308  38.366  1.00  0.00     0.092 A 
HETATM    9  C18 UNK     1      30.164  -4.486  38.011  1.00  0.00     0.090 A 
HETATM   10  C19 UNK     1      30.832  -5.451  35.830  1.00  0.00     0.049 C 
HETATM   11  C20 UNK     1      29.339  -4.401  39.227  1.00  0.00     0.288 A 
HETATM   12  O1  UNK     1      28.319  -5.331  39.354  1.00  0.00    -0.275 OA
HETATM   13  O2  UNK     1      29.551  -3.548  40.082  1.00  0.00    -0.260 OA
HETATM   14  C14 UNK     1      27.030  -7.193  38.599  1.00  0.00     0.067 A 
ENDBRANCH   1   3
BRANCH   1  15
HETATM   15  C6  UNK     1      24.991  -9.854  37.000  1.00  0.00     0.174 C 
HETATM   16  S1  UNK     1      25.730 -11.157  36.243  1.00  0.00    -0.041 SA
BRANCH  15  17
HETATM   17  N1  UNK     1      23.671  -9.611  36.794  1.00  0.00    -0.353 N 
HETATM   18  C1  UNK     1      22.909 -10.344  35.794  1.00  0.00     0.130 C 
HETATM   19  C2  UNK     1      21.673 -10.967  36.433  1.00  0.00     0.059 C 
HETATM   20  C4  UNK     1      20.898  -9.964  37.253  1.00  0.00    -0.049 A 
HETATM   21  C5  UNK     1      21.533  -8.823  37.779  1.00  0.00    -0.034 A 
HETATM   22  C7  UNK     1      19.548 -10.201  37.544  1.00  0.00     0.008 A 
HETATM   23  C3  UNK     1      22.985  -8.529  37.492  1.00  0.00     0.164 C 
HETATM   24  C8  UNK     1      20.795  -7.925  38.561  1.00  0.00     0.009 A 
HETATM   25  C10 UNK     1      19.449  -8.163  38.835  1.00  0.00     0.001 A 
HETATM   26  C9  UNK     1      18.827  -9.303  38.329  1.00  0.00     0.001 A 
ENDBRANCH  15  17
ENDBRANCH   1  15
TORSDOF 3
ENDMDL
