MODEL 1
REMARK VINA RESULT:      -8.5      0.000      0.000
REMARK  17 active torsions:
REMARK  status: ('A' for Active; 'I' for Inactive)
REMARK    1  A    between atoms: C13_28  and  O3_3 
REMARK    2  A    between atoms: C7_22  and  O3_3 
REMARK    3  A    between atoms: C10_25  and  O4_4 
REMARK    4  A    between atoms: C15_30  and  O4_4 
REMARK    5  A    between atoms: C1_16  and  O5_5 
REMARK    6  A    between atoms: C2_17  and  O6_6 
REMARK    7  A    between atoms: C3_18  and  O7_7 
REMARK    8  A    between atoms: C5_20  and  O8_8 
REMARK    9  A    between atoms: C6_21  and  O9_9 
REMARK   10  A    between atoms: C8_23  and  O10_10 
REMARK   11  A    between atoms: C11_26  and  O11_11 
REMARK   12  A    between atoms: C21_36  and  O13_13 
REMARK   13  A    between atoms: C30_45  and  O15_15 
REMARK   14  A    between atoms: C11_26  and  C4_19 
REMARK   15  A    between atoms: C14_29  and  C22_37 
REMARK   16  A    between atoms: C20_35  and  C23_38 
REMARK   17  A    between atoms: C22_37  and  C24_39 
ROOT
HETATM    1  O12 UNK     1      28.391  -9.581  36.131  1.00  0.00    -0.305 OA
HETATM    2  O14 UNK     1      30.337  -6.919  38.525  1.00  0.00    -0.284 OA
HETATM    3  C13 UNK     1      25.602  -8.570  38.247  1.00  0.00     0.084 A 
HETATM    4  C14 UNK     1      26.350  -9.208  37.257  1.00  0.00     0.014 A 
HETATM    5  C15 UNK     1      30.447  -8.458  36.730  1.00  0.00     0.157 A 
HETATM    6  C16 UNK     1      27.710  -8.923  37.123  1.00  0.00     0.102 A 
HETATM    7  C17 UNK     1      28.316  -8.004  37.975  1.00  0.00     0.085 A 
HETATM    8  C18 UNK     1      29.751  -7.720  37.810  1.00  0.00     0.223 A 
HETATM    9  C19 UNK     1      26.211  -7.649  39.099  1.00  0.00     0.075 A 
HETATM   10  C20 UNK     1      29.745  -9.327  35.980  1.00  0.00     0.123 A 
HETATM   11  C21 UNK     1      27.570  -7.362  38.966  1.00  0.00     0.085 A 
ENDROOT
BRANCH   3  12
HETATM   12  O3  UNK     1      24.273  -8.834  38.396  1.00  0.00    -0.317 OA
BRANCH  12  13
HETATM   13  C7  UNK     1      23.372  -8.100  37.570  1.00  0.00     0.298 C 
HETATM   14  C3  UNK     1      22.633  -9.082  36.661  1.00  0.00     0.205 C 
HETATM   15  C1  UNK     1      21.640  -8.325  35.779  1.00  0.00     0.183 C 
HETATM   16  C2  UNK     1      20.722  -7.441  36.626  1.00  0.00     0.180 C 
HETATM   17  C4  UNK     1      21.549  -6.569  37.581  1.00  0.00     0.179 C 
HETATM   18  O1  UNK     1      22.436  -7.373  38.367  1.00  0.00    -0.348 OA
BRANCH  14  19
HETATM   19  O7  UNK     1      21.913 -10.015  37.473  1.00  0.00    -0.388 OA
HETATM   20  H18 UNK     1      22.337 -10.886  37.388  1.00  0.00     0.210 HD
ENDBRANCH  14  19
BRANCH  15  21
HETATM   21  O5  UNK     1      20.850  -9.246  35.031  1.00  0.00    -0.390 OA
HETATM   22  H16 UNK     1      19.941  -9.197  35.373  1.00  0.00     0.210 HD
ENDBRANCH  15  21
BRANCH  16  23
HETATM   23  O6  UNK     1      19.961  -6.620  35.744  1.00  0.00    -0.390 OA
HETATM   24  H17 UNK     1      20.564  -6.262  35.070  1.00  0.00     0.210 HD
ENDBRANCH  16  23
BRANCH  17  25
HETATM   25  C11 UNK     1      20.669  -5.789  38.553  1.00  0.00     0.198 C 
BRANCH  25  26
HETATM   26  O11 UNK     1      19.389  -6.394  38.588  1.00  0.00    -0.398 OA
HETATM   27  H25 UNK     1      19.458  -7.177  39.162  1.00  0.00     0.209 HD
ENDBRANCH  25  26
ENDBRANCH  17  25
ENDBRANCH  12  13
ENDBRANCH   3  12
BRANCH   4  28
HETATM   28  C22 UNK     1      25.689 -10.194  36.348  1.00  0.00     0.072 C 
BRANCH  28  29
HETATM   29  C24 UNK     1      25.741 -11.604  36.879  1.00  0.00    -0.020 C 
HETATM   30  C27 UNK     1      24.980 -12.655  36.517  1.00  0.00    -0.091 C 
HETATM   31  C31 UNK     1      25.085 -14.040  37.091  1.00  0.00     0.042 C 
HETATM   32  C32 UNK     1      23.914 -12.497  35.465  1.00  0.00     0.042 C 
ENDBRANCH  28  29
ENDBRANCH   4  28
BRANCH  11  33
HETATM   33  O13 UNK     1      28.116  -6.456  39.825  1.00  0.00    -0.360 OA
HETATM   34  H27 UNK     1      28.600  -6.907  40.534  1.00  0.00     0.217 HD
ENDBRANCH  11  33
BRANCH  10  35
HETATM   35  C23 UNK     1      30.354 -10.097  34.880  1.00  0.00     0.001 A 
HETATM   36  C25 UNK     1      31.346 -11.040  35.155  1.00  0.00     0.017 A 
HETATM   37  C28 UNK     1      31.924 -11.767  34.115  1.00  0.00     0.037 A 
HETATM   38  C30 UNK     1      31.510 -11.553  32.800  1.00  0.00     0.068 A 
HETATM   39  C29 UNK     1      30.519 -10.611  32.526  1.00  0.00     0.037 A 
HETATM   40  C26 UNK     1      29.940  -9.883  33.566  1.00  0.00     0.017 A 
BRANCH  38  41
HETATM   41  O15 UNK     1      32.075 -12.261  31.785  1.00  0.00    -0.356 OA
HETATM   42  C33 UNK     1      32.129 -11.633  30.505  1.00  0.00     0.210 C 
ENDBRANCH  38  41
ENDBRANCH  10  35
BRANCH   5  43
HETATM   43  O4  UNK     1      31.787  -8.204  36.531  1.00  0.00    -0.311 OA
BRANCH  43  44
HETATM   44  C10 UNK     1      31.991  -7.050  35.724  1.00  0.00     0.298 C 
HETATM   45  O2  UNK     1      32.269  -7.377  34.359  1.00  0.00    -0.351 OA
HETATM   46  C9  UNK     1      33.490  -8.098  34.166  1.00  0.00     0.152 C 
HETATM   47  C12 UNK     1      33.600  -8.399  32.673  1.00  0.00     0.042 C 
HETATM   48  C6  UNK     1      34.693  -7.293  34.679  1.00  0.00     0.178 C 
HETATM   49  C5  UNK     1      34.470  -6.889  36.138  1.00  0.00     0.183 C 
HETATM   50  C8  UNK     1      33.115  -6.200  36.314  1.00  0.00     0.205 C 
BRANCH  48  51
HETATM   51  O9  UNK     1      35.879  -8.081  34.614  1.00  0.00    -0.390 OA
HETATM   52  H20 UNK     1      35.664  -8.912  34.157  1.00  0.00     0.210 HD
ENDBRANCH  48  51
BRANCH  49  53
HETATM   53  O8  UNK     1      35.518  -6.013  36.547  1.00  0.00    -0.390 OA
HETATM   54  H19 UNK     1      35.235  -5.104  36.344  1.00  0.00     0.210 HD
ENDBRANCH  49  53
BRANCH  50  55
HETATM   55  O10 UNK     1      33.115  -4.944  35.634  1.00  0.00    -0.388 OA
HETATM   56  H21 UNK     1      33.566  -4.300  36.206  1.00  0.00     0.210 HD
ENDBRANCH  50  55
ENDBRANCH  43  44
ENDBRANCH   5  43
TORSDOF 17
ENDMDL
MODEL 2
REMARK VINA RESULT:      -8.3     33.744     36.480
REMARK  17 active torsions:
REMARK  status: ('A' for Active; 'I' for Inactive)
REMARK    1  A    between atoms: C13_28  and  O3_3 
REMARK    2  A    between atoms: C7_22  and  O3_3 
REMARK    3  A    between atoms: C10_25  and  O4_4 
REMARK    4  A    between atoms: C15_30  and  O4_4 
REMARK    5  A    between atoms: C1_16  and  O5_5 
REMARK    6  A    between atoms: C2_17  and  O6_6 
REMARK    7  A    between atoms: C3_18  and  O7_7 
REMARK    8  A    between atoms: C5_20  and  O8_8 
REMARK    9  A    between atoms: C6_21  and  O9_9 
REMARK   10  A    between atoms: C8_23  and  O10_10 
REMARK   11  A    between atoms: C11_26  and  O11_11 
REMARK   12  A    between atoms: C21_36  and  O13_13 
REMARK   13  A    between atoms: C30_45  and  O15_15 
REMARK   14  A    between atoms: C11_26  and  C4_19 
REMARK   15  A    between atoms: C14_29  and  C22_37 
REMARK   16  A    between atoms: C20_35  and  C23_38 
REMARK   17  A    between atoms: C22_37  and  C24_39 
ROOT
HETATM    1  O12 UNK     1      14.560  10.829   9.111  1.00  0.00    -0.305 OA
HETATM    2  O14 UNK     1      18.169   9.033   9.699  1.00  0.00    -0.284 OA
HETATM    3  C13 UNK     1      13.403   7.463   9.888  1.00  0.00     0.084 A 
HETATM    4  C14 UNK     1      13.408   8.818   9.557  1.00  0.00     0.014 A 
HETATM    5  C15 UNK     1      16.972  11.002   9.160  1.00  0.00     0.157 A 
HETATM    6  C16 UNK     1      14.620   9.499   9.437  1.00  0.00     0.102 A 
HETATM    7  C17 UNK     1      15.820   8.826   9.649  1.00  0.00     0.085 A 
HETATM    8  C18 UNK     1      17.084   9.568   9.519  1.00  0.00     0.223 A 
HETATM    9  C19 UNK     1      14.607   6.791  10.101  1.00  0.00     0.075 A 
HETATM   10  C20 UNK     1      15.748  11.530   8.974  1.00  0.00     0.123 A 
HETATM   11  C21 UNK     1      15.820   7.470   9.983  1.00  0.00     0.085 A 
ENDROOT
BRANCH   3  12
HETATM   12  O3  UNK     1      12.231   6.779  10.009  1.00  0.00    -0.317 OA
BRANCH  12  13
HETATM   13  C7  UNK     1      11.243   7.006   9.006  1.00  0.00     0.298 C 
HETATM   14  C3  UNK     1      11.806   6.558   7.658  1.00  0.00     0.205 C 
HETATM   15  C1  UNK     1      10.758   6.767   6.564  1.00  0.00     0.183 C 
HETATM   16  C2  UNK     1       9.434   6.101   6.943  1.00  0.00     0.180 C 
HETATM   17  C4  UNK     1       9.004   6.527   8.354  1.00  0.00     0.179 C 
HETATM   18  O1  UNK     1      10.049   6.279   9.302  1.00  0.00    -0.348 OA
BRANCH  14  19
HETATM   19  O7  UNK     1      12.130   5.166   7.727  1.00  0.00    -0.388 OA
HETATM   20  H18 UNK     1      13.098   5.075   7.681  1.00  0.00     0.210 HD
ENDBRANCH  14  19
BRANCH  15  21
HETATM   21  O5  UNK     1      11.224   6.224   5.331  1.00  0.00    -0.390 OA
HETATM   22  H16 UNK     1      11.030   5.271   5.340  1.00  0.00     0.210 HD
ENDBRANCH  15  21
BRANCH  16  23
HETATM   23  O6  UNK     1       8.450   6.494   5.989  1.00  0.00    -0.390 OA
HETATM   24  H17 UNK     1       8.249   7.435   6.135  1.00  0.00     0.210 HD
ENDBRANCH  16  23
BRANCH  17  25
HETATM   25  C11 UNK     1       7.772   5.764   8.834  1.00  0.00     0.198 C 
BRANCH  25  26
HETATM   26  O11 UNK     1       7.560   4.662   7.970  1.00  0.00    -0.398 OA
HETATM   27  H25 UNK     1       8.354   4.575   7.415  1.00  0.00     0.209 HD
ENDBRANCH  25  26
ENDBRANCH  17  25
ENDBRANCH  12  13
ENDBRANCH   3  12
BRANCH   4  28
HETATM   28  C22 UNK     1      12.112   9.531   9.331  1.00  0.00     0.072 C 
BRANCH  28  29
HETATM   29  C24 UNK     1      11.660  10.315  10.537  1.00  0.00    -0.020 C 
HETATM   30  C27 UNK     1      10.402  10.495  10.984  1.00  0.00    -0.091 C 
HETATM   31  C31 UNK     1      10.020  11.292  12.198  1.00  0.00     0.042 C 
HETATM   32  C32 UNK     1       9.238   9.885  10.249  1.00  0.00     0.042 C 
ENDBRANCH  28  29
ENDBRANCH   4  28
BRANCH  11  33
HETATM   33  O13 UNK     1      16.966   6.767  10.200  1.00  0.00    -0.360 OA
HETATM   34  H27 UNK     1      17.449   7.128  10.959  1.00  0.00     0.217 HD
ENDBRANCH  11  33
BRANCH  10  35
HETATM   35  C23 UNK     1      15.542  12.947   8.623  1.00  0.00     0.001 A 
HETATM   36  C25 UNK     1      15.657  13.933   9.604  1.00  0.00     0.017 A 
HETATM   37  C28 UNK     1      15.460  15.273   9.271  1.00  0.00     0.037 A 
HETATM   38  C30 UNK     1      15.149  15.628   7.959  1.00  0.00     0.068 A 
HETATM   39  C29 UNK     1      15.033  14.643   6.979  1.00  0.00     0.037 A 
HETATM   40  C26 UNK     1      15.230  13.302   7.310  1.00  0.00     0.017 A 
BRANCH  38  41
HETATM   41  O15 UNK     1      14.956  16.935   7.635  1.00  0.00    -0.356 OA
HETATM   42  C33 UNK     1      13.710  17.278   7.030  1.00  0.00     0.210 C 
ENDBRANCH  38  41
ENDBRANCH  10  35
BRANCH   5  43
HETATM   43  O4  UNK     1      18.132  11.737   9.049  1.00  0.00    -0.311 OA
BRANCH  43  44
HETATM   44  C10 UNK     1      18.878  11.372   7.892  1.00  0.00     0.298 C 
HETATM   45  O2  UNK     1      20.280  11.263   8.157  1.00  0.00    -0.351 OA
HETATM   46  C9  UNK     1      20.902  12.493   8.540  1.00  0.00     0.152 C 
HETATM   47  C12 UNK     1      22.369  12.181   8.824  1.00  0.00     0.042 C 
HETATM   48  C6  UNK     1      20.743  13.557   7.444  1.00  0.00     0.178 C 
HETATM   49  C5  UNK     1      19.264  13.728   7.090  1.00  0.00     0.183 C 
HETATM   50  C8  UNK     1      18.617  12.379   6.772  1.00  0.00     0.205 C 
BRANCH  48  51
HETATM   51  O9  UNK     1      21.238  14.813   7.900  1.00  0.00    -0.390 OA
HETATM   52  H20 UNK     1      21.111  14.856   8.863  1.00  0.00     0.210 HD
ENDBRANCH  48  51
BRANCH  49  53
HETATM   53  O8  UNK     1      19.149  14.599   5.967  1.00  0.00    -0.390 OA
HETATM   54  H19 UNK     1      19.970  15.119   5.915  1.00  0.00     0.210 HD
ENDBRANCH  49  53
BRANCH  50  55
HETATM   55  O10 UNK     1      19.172  11.844   5.569  1.00  0.00    -0.388 OA
HETATM   56  H21 UNK     1      18.510  11.957   4.866  1.00  0.00     0.210 HD
ENDBRANCH  50  55
ENDBRANCH  43  44
ENDBRANCH   5  43
TORSDOF 17
ENDMDL
MODEL 3
REMARK VINA RESULT:      -8.3      1.528      2.078
REMARK  17 active torsions:
REMARK  status: ('A' for Active; 'I' for Inactive)
REMARK    1  A    between atoms: C13_28  and  O3_3 
REMARK    2  A    between atoms: C7_22  and  O3_3 
REMARK    3  A    between atoms: C10_25  and  O4_4 
REMARK    4  A    between atoms: C15_30  and  O4_4 
REMARK    5  A    between atoms: C1_16  and  O5_5 
REMARK    6  A    between atoms: C2_17  and  O6_6 
REMARK    7  A    between atoms: C3_18  and  O7_7 
REMARK    8  A    between atoms: C5_20  and  O8_8 
REMARK    9  A    between atoms: C6_21  and  O9_9 
REMARK   10  A    between atoms: C8_23  and  O10_10 
REMARK   11  A    between atoms: C11_26  and  O11_11 
REMARK   12  A    between atoms: C21_36  and  O13_13 
REMARK   13  A    between atoms: C30_45  and  O15_15 
REMARK   14  A    between atoms: C11_26  and  C4_19 
REMARK   15  A    between atoms: C14_29  and  C22_37 
REMARK   16  A    between atoms: C20_35  and  C23_38 
REMARK   17  A    between atoms: C22_37  and  C24_39 
ROOT
HETATM    1  O12 UNK     1      28.104  -9.140  36.156  1.00  0.00    -0.305 OA
HETATM    2  O14 UNK     1      29.658  -5.427  36.790  1.00  0.00    -0.284 OA
HETATM    3  C13 UNK     1      25.581  -7.848  38.446  1.00  0.00     0.084 A 
HETATM    4  C14 UNK     1      26.280  -8.698  37.588  1.00  0.00     0.014 A 
HETATM    5  C15 UNK     1      29.851  -7.528  35.716  1.00  0.00     0.157 A 
HETATM    6  C16 UNK     1      27.463  -8.261  36.990  1.00  0.00     0.102 A 
HETATM    7  C17 UNK     1      27.942  -6.979  37.250  1.00  0.00     0.085 A 
HETATM    8  C18 UNK     1      29.191  -6.543  36.605  1.00  0.00     0.223 A 
HETATM    9  C19 UNK     1      26.063  -6.565  38.705  1.00  0.00     0.075 A 
HETATM   10  C20 UNK     1      29.286  -8.739  35.556  1.00  0.00     0.123 A 
HETATM   11  C21 UNK     1      27.245  -6.125  38.107  1.00  0.00     0.085 A 
ENDROOT
BRANCH   3  12
HETATM   12  O3  UNK     1      24.425  -8.255  39.041  1.00  0.00    -0.317 OA
BRANCH  12  13
HETATM   13  C7  UNK     1      23.208  -7.968  38.353  1.00  0.00     0.298 C 
HETATM   14  C3  UNK     1      22.094  -8.823  38.956  1.00  0.00     0.205 C 
HETATM   15  C1  UNK     1      20.771  -8.519  38.254  1.00  0.00     0.183 C 
HETATM   16  C2  UNK     1      20.482  -7.016  38.262  1.00  0.00     0.180 C 
HETATM   17  C4  UNK     1      21.697  -6.234  37.741  1.00  0.00     0.179 C 
HETATM   18  O1  UNK     1      22.878  -6.583  38.470  1.00  0.00    -0.348 OA
BRANCH  14  19
HETATM   19  O7  UNK     1      21.964  -8.506  40.346  1.00  0.00    -0.388 OA
HETATM   20  H18 UNK     1      21.336  -7.768  40.434  1.00  0.00     0.210 HD
ENDBRANCH  14  19
BRANCH  15  21
HETATM   21  O5  UNK     1      19.704  -9.207  38.903  1.00  0.00    -0.390 OA
HETATM   22  H16 UNK     1      19.490  -9.988  38.364  1.00  0.00     0.210 HD
ENDBRANCH  15  21
BRANCH  16  23
HETATM   23  O6  UNK     1      19.350  -6.777  37.430  1.00  0.00    -0.390 OA
HETATM   24  H17 UNK     1      19.291  -5.820  37.269  1.00  0.00     0.210 HD
ENDBRANCH  16  23
BRANCH  17  25
HETATM   25  C11 UNK     1      21.511  -4.726  37.880  1.00  0.00     0.198 C 
BRANCH  25  26
HETATM   26  O11 UNK     1      20.876  -4.240  36.711  1.00  0.00    -0.398 OA
HETATM   27  H25 UNK     1      21.569  -3.857  36.146  1.00  0.00     0.209 HD
ENDBRANCH  25  26
ENDBRANCH  17  25
ENDBRANCH  12  13
ENDBRANCH   3  12
BRANCH   4  28
HETATM   28  C22 UNK     1      25.756 -10.072  37.316  1.00  0.00     0.072 C 
BRANCH  28  29
HETATM   29  C24 UNK     1      24.448 -10.060  36.567  1.00  0.00    -0.020 C 
HETATM   30  C27 UNK     1      23.831 -11.091  35.958  1.00  0.00    -0.091 C 
HETATM   31  C31 UNK     1      22.522 -11.008  35.226  1.00  0.00     0.042 C 
HETATM   32  C32 UNK     1      24.453 -12.463  35.967  1.00  0.00     0.042 C 
ENDBRANCH  28  29
ENDBRANCH   4  28
BRANCH  11  33
HETATM   33  O13 UNK     1      27.672  -4.864  38.394  1.00  0.00    -0.360 OA
HETATM   34  H27 UNK     1      28.298  -4.555  37.722  1.00  0.00     0.217 HD
ENDBRANCH  11  33
BRANCH  10  35
HETATM   35  C23 UNK     1      29.870  -9.776  34.686  1.00  0.00     0.001 A 
HETATM   36  C25 UNK     1      30.869 -10.617  35.177  1.00  0.00     0.017 A 
HETATM   37  C28 UNK     1      31.423 -11.597  34.353  1.00  0.00     0.037 A 
HETATM   38  C30 UNK     1      30.977 -11.737  33.040  1.00  0.00     0.068 A 
HETATM   39  C29 UNK     1      29.978 -10.897  32.549  1.00  0.00     0.037 A 
HETATM   40  C26 UNK     1      29.424  -9.916  33.372  1.00  0.00     0.017 A 
BRANCH  38  41
HETATM   41  O15 UNK     1      31.518 -12.693  32.236  1.00  0.00    -0.356 OA
HETATM   42  C33 UNK     1      30.835 -13.944  32.164  1.00  0.00     0.210 C 
ENDBRANCH  38  41
ENDBRANCH  10  35
BRANCH   5  43
HETATM   43  O4  UNK     1      31.012  -7.149  35.077  1.00  0.00    -0.311 OA
BRANCH  43  44
HETATM   44  C10 UNK     1      32.097  -7.018  35.989  1.00  0.00     0.298 C 
HETATM   45  O2  UNK     1      32.727  -5.736  35.910  1.00  0.00    -0.351 OA
HETATM   46  C9  UNK     1      33.357  -5.468  34.653  1.00  0.00     0.152 C 
HETATM   47  C12 UNK     1      33.929  -4.055  34.733  1.00  0.00     0.042 C 
HETATM   48  C6  UNK     1      34.442  -6.511  34.347  1.00  0.00     0.178 C 
HETATM   49  C5  UNK     1      33.852  -7.920  34.423  1.00  0.00     0.183 C 
HETATM   50  C8  UNK     1      33.113  -8.133  35.746  1.00  0.00     0.205 C 
BRANCH  48  51
HETATM   51  O9  UNK     1      34.956  -6.317  33.032  1.00  0.00    -0.390 OA
HETATM   52  H20 UNK     1      34.991  -5.360  32.860  1.00  0.00     0.210 HD
ENDBRANCH  48  51
BRANCH  49  53
HETATM   53  O8  UNK     1      34.901  -8.876  34.293  1.00  0.00    -0.390 OA
HETATM   54  H19 UNK     1      35.725  -8.446  34.582  1.00  0.00     0.210 HD
ENDBRANCH  49  53
BRANCH  50  55
HETATM   55  O10 UNK     1      34.042  -8.119  36.831  1.00  0.00    -0.388 OA
HETATM   56  H21 UNK     1      33.829  -7.354  37.390  1.00  0.00     0.210 HD
ENDBRANCH  50  55
ENDBRANCH  43  44
ENDBRANCH   5  43
TORSDOF 17
ENDMDL
MODEL 4
REMARK VINA RESULT:      -8.2      5.392     13.292
REMARK  17 active torsions:
REMARK  status: ('A' for Active; 'I' for Inactive)
REMARK    1  A    between atoms: C13_28  and  O3_3 
REMARK    2  A    between atoms: C7_22  and  O3_3 
REMARK    3  A    between atoms: C10_25  and  O4_4 
REMARK    4  A    between atoms: C15_30  and  O4_4 
REMARK    5  A    between atoms: C1_16  and  O5_5 
REMARK    6  A    between atoms: C2_17  and  O6_6 
REMARK    7  A    between atoms: C3_18  and  O7_7 
REMARK    8  A    between atoms: C5_20  and  O8_8 
REMARK    9  A    between atoms: C6_21  and  O9_9 
REMARK   10  A    between atoms: C8_23  and  O10_10 
REMARK   11  A    between atoms: C11_26  and  O11_11 
REMARK   12  A    between atoms: C21_36  and  O13_13 
REMARK   13  A    between atoms: C30_45  and  O15_15 
REMARK   14  A    between atoms: C11_26  and  C4_19 
REMARK   15  A    between atoms: C14_29  and  C22_37 
REMARK   16  A    between atoms: C20_35  and  C23_38 
REMARK   17  A    between atoms: C22_37  and  C24_39 
ROOT
HETATM    1  O12 UNK     1      34.590  -9.153  32.740  1.00  0.00    -0.305 OA
HETATM    2  O14 UNK     1      33.845 -11.800  29.733  1.00  0.00    -0.284 OA
HETATM    3  C13 UNK     1      37.986 -10.341  32.170  1.00  0.00     0.084 A 
HETATM    4  C14 UNK     1      36.898  -9.643  32.693  1.00  0.00     0.014 A 
HETATM    5  C15 UNK     1      32.990 -10.216  31.271  1.00  0.00     0.157 A 
HETATM    6  C16 UNK     1      35.618  -9.870  32.185  1.00  0.00     0.102 A 
HETATM    7  C17 UNK     1      35.430 -10.790  31.158  1.00  0.00     0.085 A 
HETATM    8  C18 UNK     1      34.071 -11.009  30.638  1.00  0.00     0.223 A 
HETATM    9  C19 UNK     1      37.796 -11.263  31.140  1.00  0.00     0.075 A 
HETATM   10  C20 UNK     1      33.306  -9.364  32.263  1.00  0.00     0.123 A 
HETATM   11  C21 UNK     1      36.517 -11.490  30.629  1.00  0.00     0.085 A 
ENDROOT
BRANCH   3  12
HETATM   12  O3  UNK     1      39.244 -10.135  32.652  1.00  0.00    -0.317 OA
BRANCH  12  13
HETATM   13  C7  UNK     1      40.174 -11.208  32.513  1.00  0.00     0.298 C 
HETATM   14  C3  UNK     1      41.590 -10.635  32.554  1.00  0.00     0.205 C 
HETATM   15  C1  UNK     1      42.611 -11.766  32.431  1.00  0.00     0.183 C 
HETATM   16  C2  UNK     1      42.345 -12.855  33.473  1.00  0.00     0.180 C 
HETATM   17  C4  UNK     1      40.873 -13.291  33.429  1.00  0.00     0.179 C 
HETATM   18  O1  UNK     1      40.003 -12.162  33.563  1.00  0.00    -0.348 OA
BRANCH  14  19
HETATM   19  O7  UNK     1      41.787  -9.968  33.804  1.00  0.00    -0.388 OA
HETATM   20  H18 UNK     1      41.267  -9.145  33.798  1.00  0.00     0.210 HD
ENDBRANCH  14  19
BRANCH  15  21
HETATM   21  O5  UNK     1      43.930 -11.256  32.608  1.00  0.00    -0.390 OA
HETATM   22  H16 UNK     1      44.515 -12.012  32.788  1.00  0.00     0.210 HD
ENDBRANCH  15  21
BRANCH  16  23
HETATM   23  O6  UNK     1      43.195 -13.962  33.183  1.00  0.00    -0.390 OA
HETATM   24  H17 UNK     1      42.935 -14.700  33.762  1.00  0.00     0.210 HD
ENDBRANCH  16  23
BRANCH  17  25
HETATM   25  C11 UNK     1      40.528 -14.260  34.556  1.00  0.00     0.198 C 
BRANCH  25  26
HETATM   26  O11 UNK     1      41.438 -14.055  35.622  1.00  0.00    -0.398 OA
HETATM   27  H25 UNK     1      41.945 -14.878  35.729  1.00  0.00     0.209 HD
ENDBRANCH  25  26
ENDBRANCH  17  25
ENDBRANCH  12  13
ENDBRANCH   3  12
BRANCH   4  28
HETATM   28  C22 UNK     1      37.112  -8.657  33.798  1.00  0.00     0.072 C 
BRANCH  28  29
HETATM   29  C24 UNK     1      36.564  -7.290  33.473  1.00  0.00    -0.020 C 
HETATM   30  C27 UNK     1      35.692  -6.555  34.190  1.00  0.00    -0.091 C 
HETATM   31  C31 UNK     1      35.185  -5.193  33.805  1.00  0.00     0.042 C 
HETATM   32  C32 UNK     1      35.134  -7.083  35.484  1.00  0.00     0.042 C 
ENDBRANCH  28  29
ENDBRANCH   4  28
BRANCH  11  33
HETATM   33  O13 UNK     1      36.387 -12.401  29.625  1.00  0.00    -0.360 OA
HETATM   34  H27 UNK     1      37.255 -12.742  29.359  1.00  0.00     0.217 HD
ENDBRANCH  11  33
BRANCH  10  35
HETATM   35  C23 UNK     1      32.297  -8.531  32.943  1.00  0.00     0.001 A 
HETATM   36  C25 UNK     1      32.241  -7.159  32.693  1.00  0.00     0.017 A 
HETATM   37  C28 UNK     1      31.288  -6.372  33.338  1.00  0.00     0.037 A 
HETATM   38  C30 UNK     1      30.390  -6.955  34.232  1.00  0.00     0.068 A 
HETATM   39  C29 UNK     1      30.446  -8.325  34.482  1.00  0.00     0.037 A 
HETATM   40  C26 UNK     1      31.399  -9.114  33.837  1.00  0.00     0.017 A 
BRANCH  38  41
HETATM   41  O15 UNK     1      29.461  -6.185  34.861  1.00  0.00    -0.356 OA
HETATM   42  C33 UNK     1      29.496  -6.160  36.288  1.00  0.00     0.210 C 
ENDBRANCH  38  41
ENDBRANCH  10  35
BRANCH   5  43
HETATM   43  O4  UNK     1      31.705 -10.377  30.799  1.00  0.00    -0.311 OA
BRANCH  43  44
HETATM   44  C10 UNK     1      31.531  -9.763  29.526  1.00  0.00     0.298 C 
HETATM   45  O2  UNK     1      31.012  -8.433  29.628  1.00  0.00    -0.351 OA
HETATM   46  C9  UNK     1      29.695  -8.358  30.181  1.00  0.00     0.152 C 
HETATM   47  C12 UNK     1      29.326  -6.878  30.255  1.00  0.00     0.042 C 
HETATM   48  C6  UNK     1      28.694  -9.157  29.334  1.00  0.00     0.178 C 
HETATM   49  C5  UNK     1      29.182 -10.597  29.166  1.00  0.00     0.183 C 
HETATM   50  C8  UNK     1      30.624 -10.630  28.655  1.00  0.00     0.205 C 
BRANCH  48  51
HETATM   51  O9  UNK     1      27.421  -9.193  29.976  1.00  0.00    -0.390 OA
HETATM   52  H20 UNK     1      26.752  -9.411  29.306  1.00  0.00     0.210 HD
ENDBRANCH  48  51
BRANCH  49  53
HETATM   53  O8  UNK     1      28.326 -11.278  28.251  1.00  0.00    -0.390 OA
HETATM   54  H19 UNK     1      28.382 -10.814  27.397  1.00  0.00     0.210 HD
ENDBRANCH  49  53
BRANCH  50  55
HETATM   55  O10 UNK     1      30.680 -10.118  27.323  1.00  0.00    -0.388 OA
HETATM   56  H21 UNK     1      30.558 -10.867  26.715  1.00  0.00     0.210 HD
ENDBRANCH  50  55
ENDBRANCH  43  44
ENDBRANCH   5  43
TORSDOF 17
ENDMDL
MODEL 5
REMARK VINA RESULT:      -8.1     32.766     36.511
REMARK  17 active torsions:
REMARK  status: ('A' for Active; 'I' for Inactive)
REMARK    1  A    between atoms: C13_28  and  O3_3 
REMARK    2  A    between atoms: C7_22  and  O3_3 
REMARK    3  A    between atoms: C10_25  and  O4_4 
REMARK    4  A    between atoms: C15_30  and  O4_4 
REMARK    5  A    between atoms: C1_16  and  O5_5 
REMARK    6  A    between atoms: C2_17  and  O6_6 
REMARK    7  A    between atoms: C3_18  and  O7_7 
REMARK    8  A    between atoms: C5_20  and  O8_8 
REMARK    9  A    between atoms: C6_21  and  O9_9 
REMARK   10  A    between atoms: C8_23  and  O10_10 
REMARK   11  A    between atoms: C11_26  and  O11_11 
REMARK   12  A    between atoms: C21_36  and  O13_13 
REMARK   13  A    between atoms: C30_45  and  O15_15 
REMARK   14  A    between atoms: C11_26  and  C4_19 
REMARK   15  A    between atoms: C14_29  and  C22_37 
REMARK   16  A    between atoms: C20_35  and  C23_38 
REMARK   17  A    between atoms: C22_37  and  C24_39 
ROOT
HETATM    1  O12 UNK     1      13.960  10.940  10.429  1.00  0.00    -0.305 OA
HETATM    2  O14 UNK     1      14.961   7.033   9.850  1.00  0.00    -0.284 OA
HETATM    3  C13 UNK     1      17.558  11.328  10.010  1.00  0.00     0.084 A 
HETATM    4  C14 UNK     1      16.210  11.621  10.217  1.00  0.00     0.014 A 
HETATM    5  C15 UNK     1      13.263   8.630  10.260  1.00  0.00     0.157 A 
HETATM    6  C16 UNK     1      15.269  10.590  10.222  1.00  0.00     0.102 A 
HETATM    7  C17 UNK     1      15.677   9.274  10.020  1.00  0.00     0.085 A 
HETATM    8  C18 UNK     1      14.664   8.207  10.028  1.00  0.00     0.223 A 
HETATM    9  C19 UNK     1      17.965  10.010   9.808  1.00  0.00     0.075 A 
HETATM   10  C20 UNK     1      13.003   9.937  10.450  1.00  0.00     0.123 A 
HETATM   11  C21 UNK     1      17.026   8.977   9.811  1.00  0.00     0.085 A 
ENDROOT
BRANCH   3  12
HETATM   12  O3  UNK     1      18.493  12.320  10.002  1.00  0.00    -0.317 OA
BRANCH  12  13
HETATM   13  C7  UNK     1      19.861  11.919   9.943  1.00  0.00     0.298 C 
HETATM   14  C3  UNK     1      20.418  12.288   8.569  1.00  0.00     0.205 C 
HETATM   15  C1  UNK     1      21.892  11.891   8.484  1.00  0.00     0.183 C 
HETATM   16  C2  UNK     1      22.681  12.473   9.659  1.00  0.00     0.180 C 
HETATM   17  C4  UNK     1      21.988  12.142  10.988  1.00  0.00     0.179 C 
HETATM   18  O1  UNK     1      20.619  12.563  10.967  1.00  0.00    -0.348 OA
BRANCH  14  19
HETATM   19  O7  UNK     1      20.309  13.704   8.388  1.00  0.00    -0.388 OA
HETATM   20  H18 UNK     1      19.388  13.913   8.156  1.00  0.00     0.210 HD
ENDBRANCH  14  19
BRANCH  15  21
HETATM   21  O5  UNK     1      22.454  12.358   7.260  1.00  0.00    -0.390 OA
HETATM   22  H16 UNK     1      22.180  13.285   7.147  1.00  0.00     0.210 HD
ENDBRANCH  15  21
BRANCH  16  23
HETATM   23  O6  UNK     1      23.991  11.912   9.634  1.00  0.00    -0.390 OA
HETATM   24  H17 UNK     1      24.598  12.580   9.272  1.00  0.00     0.210 HD
ENDBRANCH  16  23
BRANCH  17  25
HETATM   25  C11 UNK     1      22.654  12.836  12.172  1.00  0.00     0.198 C 
BRANCH  25  26
HETATM   26  O11 UNK     1      23.697  12.007  12.652  1.00  0.00    -0.398 OA
HETATM   27  H25 UNK     1      24.161  12.503  13.348  1.00  0.00     0.209 HD
ENDBRANCH  25  26
ENDBRANCH  17  25
ENDBRANCH  12  13
ENDBRANCH   3  12
BRANCH   4  28
HETATM   28  C22 UNK     1      15.783  13.038  10.433  1.00  0.00     0.072 C 
BRANCH  28  29
HETATM   29  C24 UNK     1      15.526  13.773   9.141  1.00  0.00    -0.020 C 
HETATM   30  C27 UNK     1      14.355  14.248   8.676  1.00  0.00    -0.091 C 
HETATM   31  C31 UNK     1      14.170  14.975   7.375  1.00  0.00     0.042 C 
HETATM   32  C32 UNK     1      13.089  14.062   9.470  1.00  0.00     0.042 C 
ENDBRANCH  28  29
ENDBRANCH   4  28
BRANCH  11  33
HETATM   33  O13 UNK     1      17.476   7.708   9.610  1.00  0.00    -0.360 OA
HETATM   34  H27 UNK     1      18.427   7.651   9.787  1.00  0.00     0.217 HD
ENDBRANCH  11  33
BRANCH  10  35
HETATM   35  C23 UNK     1      11.640  10.449  10.680  1.00  0.00     0.001 A 
HETATM   36  C25 UNK     1      11.198  10.696  11.980  1.00  0.00     0.017 A 
HETATM   37  C28 UNK     1       9.908  11.179  12.198  1.00  0.00     0.037 A 
HETATM   38  C30 UNK     1       9.059  11.413  11.117  1.00  0.00     0.068 A 
HETATM   39  C29 UNK     1       9.500  11.165   9.817  1.00  0.00     0.037 A 
HETATM   40  C26 UNK     1      10.791  10.683   9.598  1.00  0.00     0.017 A 
BRANCH  38  41
HETATM   41  O15 UNK     1       7.799  11.882  11.330  1.00  0.00    -0.356 OA
HETATM   42  C33 UNK     1       7.526  13.220  10.916  1.00  0.00     0.210 C 
ENDBRANCH  38  41
ENDBRANCH  10  35
BRANCH   5  43
HETATM   43  O4  UNK     1      12.282   7.662  10.254  1.00  0.00    -0.311 OA
BRANCH  43  44
HETATM   44  C10 UNK     1      11.970   7.237   8.932  1.00  0.00     0.298 C 
HETATM   45  O2  UNK     1      10.665   7.653   8.517  1.00  0.00    -0.351 OA
HETATM   46  C9  UNK     1       9.597   7.081   9.278  1.00  0.00     0.152 C 
HETATM   47  C12 UNK     1       8.297   7.667   8.732  1.00  0.00     0.042 C 
HETATM   48  C6  UNK     1       9.618   5.548   9.191  1.00  0.00     0.178 C 
HETATM   49  C5  UNK     1      10.990   5.017   9.608  1.00  0.00     0.183 C 
HETATM   50  C8  UNK     1      12.107   5.718   8.833  1.00  0.00     0.205 C 
BRANCH  48  51
HETATM   51  O9  UNK     1       8.641   4.991  10.067  1.00  0.00    -0.390 OA
HETATM   52  H20 UNK     1       7.812   5.485   9.948  1.00  0.00     0.210 HD
ENDBRANCH  48  51
BRANCH  49  53
HETATM   53  O8  UNK     1      11.041   3.612   9.371  1.00  0.00    -0.390 OA
HETATM   54  H19 UNK     1      11.239   3.180  10.220  1.00  0.00     0.210 HD
ENDBRANCH  49  53
BRANCH  50  55
HETATM   55  O10 UNK     1      12.037   5.364   7.451  1.00  0.00    -0.388 OA
HETATM   56  H21 UNK     1      11.762   4.433   7.400  1.00  0.00     0.210 HD
ENDBRANCH  50  55
ENDBRANCH  43  44
ENDBRANCH   5  43
TORSDOF 17
ENDMDL
MODEL 6
REMARK VINA RESULT:      -8.1     34.145     36.843
REMARK  17 active torsions:
REMARK  status: ('A' for Active; 'I' for Inactive)
REMARK    1  A    between atoms: C13_28  and  O3_3 
REMARK    2  A    between atoms: C7_22  and  O3_3 
REMARK    3  A    between atoms: C10_25  and  O4_4 
REMARK    4  A    between atoms: C15_30  and  O4_4 
REMARK    5  A    between atoms: C1_16  and  O5_5 
REMARK    6  A    between atoms: C2_17  and  O6_6 
REMARK    7  A    between atoms: C3_18  and  O7_7 
REMARK    8  A    between atoms: C5_20  and  O8_8 
REMARK    9  A    between atoms: C6_21  and  O9_9 
REMARK   10  A    between atoms: C8_23  and  O10_10 
REMARK   11  A    between atoms: C11_26  and  O11_11 
REMARK   12  A    between atoms: C21_36  and  O13_13 
REMARK   13  A    between atoms: C30_45  and  O15_15 
REMARK   14  A    between atoms: C11_26  and  C4_19 
REMARK   15  A    between atoms: C14_29  and  C22_37 
REMARK   16  A    between atoms: C20_35  and  C23_38 
REMARK   17  A    between atoms: C22_37  and  C24_39 
ROOT
HETATM    1  O12 UNK     1      15.085  12.120   9.249  1.00  0.00    -0.305 OA
HETATM    2  O14 UNK     1      18.879  10.635   9.215  1.00  0.00    -0.284 OA
HETATM    3  C13 UNK     1      14.374   8.709  10.314  1.00  0.00     0.084 A 
HETATM    4  C14 UNK     1      14.205  10.046   9.951  1.00  0.00     0.014 A 
HETATM    5  C15 UNK     1      17.443  12.481   8.852  1.00  0.00     0.157 A 
HETATM    6  C16 UNK     1      15.314  10.813   9.594  1.00  0.00     0.102 A 
HETATM    7  C17 UNK     1      16.586  10.245   9.601  1.00  0.00     0.085 A 
HETATM    8  C18 UNK     1      17.739  11.077   9.223  1.00  0.00     0.223 A 
HETATM    9  C19 UNK     1      15.648   8.142  10.321  1.00  0.00     0.075 A 
HETATM   10  C20 UNK     1      16.166  12.905   8.879  1.00  0.00     0.123 A 
HETATM   11  C21 UNK     1      16.759   8.908   9.965  1.00  0.00     0.085 A 
ENDROOT
BRANCH   3  12
HETATM   12  O3  UNK     1      13.304   7.942  10.666  1.00  0.00    -0.317 OA
BRANCH  12  13
HETATM   13  C7  UNK     1      12.485   7.449   9.607  1.00  0.00     0.298 C 
HETATM   14  C3  UNK     1      12.687   5.939   9.496  1.00  0.00     0.205 C 
HETATM   15  C1  UNK     1      11.803   5.377   8.383  1.00  0.00     0.183 C 
HETATM   16  C2  UNK     1      10.346   5.803   8.579  1.00  0.00     0.180 C 
HETATM   17  C4  UNK     1      10.253   7.321   8.789  1.00  0.00     0.179 C 
HETATM   18  O1  UNK     1      11.109   7.740   9.857  1.00  0.00    -0.348 OA
BRANCH  14  19
HETATM   19  O7  UNK     1      12.315   5.327  10.736  1.00  0.00    -0.388 OA
HETATM   20  H18 UNK     1      12.499   4.373  10.673  1.00  0.00     0.210 HD
ENDBRANCH  14  19
BRANCH  15  21
HETATM   21  O5  UNK     1      11.881   3.954   8.367  1.00  0.00    -0.390 OA
HETATM   22  H16 UNK     1      12.030   3.659   9.282  1.00  0.00     0.210 HD
ENDBRANCH  15  21
BRANCH  16  23
HETATM   23  O6  UNK     1       9.612   5.421   7.417  1.00  0.00    -0.390 OA
HETATM   24  H17 UNK     1       8.868   6.038   7.316  1.00  0.00     0.210 HD
ENDBRANCH  16  23
BRANCH  17  25
HETATM   25  C11 UNK     1       8.838   7.766   9.144  1.00  0.00     0.198 C 
BRANCH  25  26
HETATM   26  O11 UNK     1       8.893   8.537  10.331  1.00  0.00    -0.398 OA
HETATM   27  H25 UNK     1       8.096   8.329  10.846  1.00  0.00     0.209 HD
ENDBRANCH  25  26
ENDBRANCH  17  25
ENDBRANCH  12  13
ENDBRANCH   3  12
BRANCH   4  28
HETATM   28  C22 UNK     1      12.835  10.646   9.947  1.00  0.00     0.072 C 
BRANCH  28  29
HETATM   29  C24 UNK     1      12.497  11.338  11.244  1.00  0.00    -0.020 C 
HETATM   30  C27 UNK     1      12.227  12.643  11.441  1.00  0.00    -0.091 C 
HETATM   31  C31 UNK     1      11.897  13.269  12.766  1.00  0.00     0.042 C 
HETATM   32  C32 UNK     1      12.249  13.608  10.285  1.00  0.00     0.042 C 
ENDBRANCH  28  29
ENDBRANCH   4  28
BRANCH  11  33
HETATM   33  O13 UNK     1      17.980   8.305   9.988  1.00  0.00    -0.360 OA
HETATM   34  H27 UNK     1      18.521   8.658  10.710  1.00  0.00     0.217 HD
ENDBRANCH  11  33
BRANCH  10  35
HETATM   35  C23 UNK     1      15.782  14.286   8.534  1.00  0.00     0.001 A 
HETATM   36  C25 UNK     1      15.812  15.283   9.510  1.00  0.00     0.017 A 
HETATM   37  C28 UNK     1      15.447  16.589   9.183  1.00  0.00     0.037 A 
HETATM   38  C30 UNK     1      15.052  16.898   7.882  1.00  0.00     0.068 A 
HETATM   39  C29 UNK     1      15.022  15.901   6.907  1.00  0.00     0.037 A 
HETATM   40  C26 UNK     1      15.387  14.595   7.233  1.00  0.00     0.017 A 
BRANCH  38  41
HETATM   41  O15 UNK     1      14.695  18.172   7.564  1.00  0.00    -0.356 OA
HETATM   42  C33 UNK     1      13.329  18.397   7.219  1.00  0.00     0.210 C 
ENDBRANCH  38  41
ENDBRANCH  10  35
BRANCH   5  43
HETATM   43  O4  UNK     1      18.499  13.299   8.511  1.00  0.00    -0.311 OA
BRANCH  43  44
HETATM   44  C10 UNK     1      19.248  12.766   7.424  1.00  0.00     0.298 C 
HETATM   45  O2  UNK     1      20.627  13.147   7.471  1.00  0.00    -0.351 OA
HETATM   46  C9  UNK     1      20.852  14.553   7.330  1.00  0.00     0.152 C 
HETATM   47  C12 UNK     1      22.357  14.778   7.449  1.00  0.00     0.042 C 
HETATM   48  C6  UNK     1      20.297  15.070   5.995  1.00  0.00     0.178 C 
HETATM   49  C5  UNK     1      18.822  14.692   5.858  1.00  0.00     0.183 C 
HETATM   50  C8  UNK     1      18.615  13.196   6.102  1.00  0.00     0.205 C 
BRANCH  48  51
HETATM   51  O9  UNK     1      20.399  16.491   5.935  1.00  0.00    -0.390 OA
HETATM   52  H20 UNK     1      19.524  16.845   5.704  1.00  0.00     0.210 HD
ENDBRANCH  48  51
BRANCH  49  53
HETATM   53  O8  UNK     1      18.368  15.039   4.552  1.00  0.00    -0.390 OA
HETATM   54  H19 UNK     1      17.742  14.350   4.267  1.00  0.00     0.210 HD
ENDBRANCH  49  53
BRANCH  50  55
HETATM   55  O10 UNK     1      19.233  12.442   5.058  1.00  0.00    -0.388 OA
HETATM   56  H21 UNK     1      18.632  11.714   4.826  1.00  0.00     0.210 HD
ENDBRANCH  50  55
ENDBRANCH  43  44
ENDBRANCH   5  43
TORSDOF 17
ENDMDL
MODEL 7
REMARK VINA RESULT:      -8.0     31.777     34.134
REMARK  17 active torsions:
REMARK  status: ('A' for Active; 'I' for Inactive)
REMARK    1  A    between atoms: C13_28  and  O3_3 
REMARK    2  A    between atoms: C7_22  and  O3_3 
REMARK    3  A    between atoms: C10_25  and  O4_4 
REMARK    4  A    between atoms: C15_30  and  O4_4 
REMARK    5  A    between atoms: C1_16  and  O5_5 
REMARK    6  A    between atoms: C2_17  and  O6_6 
REMARK    7  A    between atoms: C3_18  and  O7_7 
REMARK    8  A    between atoms: C5_20  and  O8_8 
REMARK    9  A    between atoms: C6_21  and  O9_9 
REMARK   10  A    between atoms: C8_23  and  O10_10 
REMARK   11  A    between atoms: C11_26  and  O11_11 
REMARK   12  A    between atoms: C21_36  and  O13_13 
REMARK   13  A    between atoms: C30_45  and  O15_15 
REMARK   14  A    between atoms: C11_26  and  C4_19 
REMARK   15  A    between atoms: C14_29  and  C22_37 
REMARK   16  A    between atoms: C20_35  and  C23_38 
REMARK   17  A    between atoms: C22_37  and  C24_39 
ROOT
HETATM    1  O12 UNK     1      18.553  12.945  11.692  1.00  0.00    -0.305 OA
HETATM    2  O14 UNK     1      21.606  12.078   9.136  1.00  0.00    -0.284 OA
HETATM    3  C13 UNK     1      16.648  11.284   9.068  1.00  0.00     0.084 A 
HETATM    4  C14 UNK     1      16.971  11.950  10.250  1.00  0.00     0.014 A 
HETATM    5  C15 UNK     1      20.915  13.048  11.182  1.00  0.00     0.157 A 
HETATM    6  C16 UNK     1      18.298  12.292  10.513  1.00  0.00     0.102 A 
HETATM    7  C17 UNK     1      19.295  11.969   9.597  1.00  0.00     0.085 A 
HETATM    8  C18 UNK     1      20.687  12.340   9.900  1.00  0.00     0.223 A 
HETATM    9  C19 UNK     1      17.648  10.960   8.152  1.00  0.00     0.075 A 
HETATM   10  C20 UNK     1      19.860  13.308  11.976  1.00  0.00     0.123 A 
HETATM   11  C21 UNK     1      18.976  11.301   8.413  1.00  0.00     0.085 A 
ENDROOT
BRANCH   3  12
HETATM   12  O3  UNK     1      15.358  10.940   8.791  1.00  0.00    -0.317 OA
BRANCH  12  13
HETATM   13  C7  UNK     1      14.916   9.664   9.252  1.00  0.00     0.298 C 
HETATM   14  C3  UNK     1      13.902   9.876  10.376  1.00  0.00     0.205 C 
HETATM   15  C1  UNK     1      13.391   8.524  10.874  1.00  0.00     0.183 C 
HETATM   16  C2  UNK     1      12.871   7.676   9.712  1.00  0.00     0.180 C 
HETATM   17  C4  UNK     1      13.914   7.610   8.587  1.00  0.00     0.179 C 
HETATM   18  O1  UNK     1      14.317   8.924   8.187  1.00  0.00    -0.348 OA
BRANCH  14  19
HETATM   19  O7  UNK     1      12.796  10.630   9.869  1.00  0.00    -0.388 OA
HETATM   20  H18 UNK     1      12.262  10.047   9.303  1.00  0.00     0.210 HD
ENDBRANCH  14  19
BRANCH  15  21
HETATM   21  O5  UNK     1      12.345   8.717  11.823  1.00  0.00    -0.390 OA
HETATM   22  H16 UNK     1      11.581   9.082  11.346  1.00  0.00     0.210 HD
ENDBRANCH  15  21
BRANCH  16  23
HETATM   23  O6  UNK     1      12.596   6.367  10.206  1.00  0.00    -0.390 OA
HETATM   24  H17 UNK     1      13.173   6.208  10.973  1.00  0.00     0.210 HD
ENDBRANCH  16  23
BRANCH  17  25
HETATM   25  C11 UNK     1      13.376   6.907   7.345  1.00  0.00     0.198 C 
BRANCH  25  26
HETATM   26  O11 UNK     1      13.465   5.507   7.545  1.00  0.00    -0.398 OA
HETATM   27  H25 UNK     1      13.273   5.339   8.483  1.00  0.00     0.209 HD
ENDBRANCH  25  26
ENDBRANCH  17  25
ENDBRANCH  12  13
ENDBRANCH   3  12
BRANCH   4  28
HETATM   28  C22 UNK     1      15.891  12.292  11.228  1.00  0.00     0.072 C 
BRANCH  28  29
HETATM   29  C24 UNK     1      15.364  13.693  11.046  1.00  0.00    -0.020 C 
HETATM   30  C27 UNK     1      15.421  14.720  11.916  1.00  0.00    -0.091 C 
HETATM   31  C31 UNK     1      14.873  16.096  11.670  1.00  0.00     0.042 C 
HETATM   32  C32 UNK     1      16.066  14.540  13.265  1.00  0.00     0.042 C 
ENDBRANCH  28  29
ENDBRANCH   4  28
BRANCH  11  33
HETATM   33  O13 UNK     1      19.914  10.963   7.485  1.00  0.00    -0.360 OA
HETATM   34  H27 UNK     1      20.806  11.102   7.836  1.00  0.00     0.217 HD
ENDBRANCH  11  33
BRANCH  10  35
HETATM   35  C23 UNK     1      19.995  14.000  13.271  1.00  0.00     0.001 A 
HETATM   36  C25 UNK     1      20.420  15.329  13.311  1.00  0.00     0.017 A 
HETATM   37  C28 UNK     1      20.549  15.983  14.536  1.00  0.00     0.037 A 
HETATM   38  C30 UNK     1      20.254  15.309  15.721  1.00  0.00     0.068 A 
HETATM   39  C29 UNK     1      19.829  13.981  15.681  1.00  0.00     0.037 A 
HETATM   40  C26 UNK     1      19.699  13.327  14.456  1.00  0.00     0.017 A 
BRANCH  38  41
HETATM   41  O15 UNK     1      20.381  15.947  16.916  1.00  0.00    -0.356 OA
HETATM   42  C33 UNK     1      20.806  15.163  18.029  1.00  0.00     0.210 C 
ENDBRANCH  38  41
ENDBRANCH  10  35
BRANCH   5  43
HETATM   43  O4  UNK     1      22.207  13.395  11.511  1.00  0.00    -0.311 OA
BRANCH  43  44
HETATM   44  C10 UNK     1      22.908  12.309  12.109  1.00  0.00     0.298 C 
HETATM   45  O2  UNK     1      22.898  12.373  13.538  1.00  0.00    -0.351 OA
HETATM   46  C9  UNK     1      23.583  13.507  14.080  1.00  0.00     0.152 C 
HETATM   47  C12 UNK     1      23.432  13.435  15.597  1.00  0.00     0.042 C 
HETATM   48  C6  UNK     1      25.056  13.519  13.648  1.00  0.00     0.178 C 
HETATM   49  C5  UNK     1      25.157  13.441  12.124  1.00  0.00     0.183 C 
HETATM   50  C8  UNK     1      24.341  12.267  11.581  1.00  0.00     0.205 C 
BRANCH  48  51
HETATM   51  O9  UNK     1      25.685  14.726  14.073  1.00  0.00    -0.390 OA
HETATM   52  H20 UNK     1      26.646  14.613  13.983  1.00  0.00     0.210 HD
ENDBRANCH  48  51
BRANCH  49  53
HETATM   53  O8  UNK     1      26.526  13.295  11.752  1.00  0.00    -0.390 OA
HETATM   54  H19 UNK     1      26.624  12.420  11.338  1.00  0.00     0.210 HD
ENDBRANCH  49  53
BRANCH  50  55
HETATM   55  O10 UNK     1      24.923  11.033  12.001  1.00  0.00    -0.388 OA
HETATM   56  H21 UNK     1      24.498  10.777  12.836  1.00  0.00     0.210 HD
ENDBRANCH  50  55
ENDBRANCH  43  44
ENDBRANCH   5  43
TORSDOF 17
ENDMDL
MODEL 8
REMARK VINA RESULT:      -7.9      4.311     11.345
REMARK  17 active torsions:
REMARK  status: ('A' for Active; 'I' for Inactive)
REMARK    1  A    between atoms: C13_28  and  O3_3 
REMARK    2  A    between atoms: C7_22  and  O3_3 
REMARK    3  A    between atoms: C10_25  and  O4_4 
REMARK    4  A    between atoms: C15_30  and  O4_4 
REMARK    5  A    between atoms: C1_16  and  O5_5 
REMARK    6  A    between atoms: C2_17  and  O6_6 
REMARK    7  A    between atoms: C3_18  and  O7_7 
REMARK    8  A    between atoms: C5_20  and  O8_8 
REMARK    9  A    between atoms: C6_21  and  O9_9 
REMARK   10  A    between atoms: C8_23  and  O10_10 
REMARK   11  A    between atoms: C11_26  and  O11_11 
REMARK   12  A    between atoms: C21_36  and  O13_13 
REMARK   13  A    between atoms: C30_45  and  O15_15 
REMARK   14  A    between atoms: C11_26  and  C4_19 
REMARK   15  A    between atoms: C14_29  and  C22_37 
REMARK   16  A    between atoms: C20_35  and  C23_38 
REMARK   17  A    between atoms: C22_37  and  C24_39 
ROOT
HETATM    1  O12 UNK     1      32.893  -7.628  32.452  1.00  0.00    -0.305 OA
HETATM    2  O14 UNK     1      34.367  -6.466  36.068  1.00  0.00    -0.284 OA
HETATM    3  C13 UNK     1      36.344  -8.721  32.040  1.00  0.00     0.084 A 
HETATM    4  C14 UNK     1      34.995  -8.472  31.787  1.00  0.00     0.014 A 
HETATM    5  C15 UNK     1      32.511  -6.594  34.604  1.00  0.00     0.157 A 
HETATM    6  C16 UNK     1      34.212  -7.845  32.757  1.00  0.00     0.102 A 
HETATM    7  C17 UNK     1      34.777  -7.471  33.973  1.00  0.00     0.085 A 
HETATM    8  C18 UNK     1      33.928  -6.813  34.980  1.00  0.00     0.223 A 
HETATM    9  C19 UNK     1      36.908  -8.346  33.259  1.00  0.00     0.075 A 
HETATM   10  C20 UNK     1      32.092  -6.998  33.390  1.00  0.00     0.123 A 
HETATM   11  C21 UNK     1      36.127  -7.720  34.231  1.00  0.00     0.085 A 
ENDROOT
BRANCH   3  12
HETATM   12  O3  UNK     1      37.127  -9.332  31.106  1.00  0.00    -0.317 OA
BRANCH  12  13
HETATM   13  C7  UNK     1      37.530 -10.673  31.377  1.00  0.00     0.298 C 
HETATM   14  C3  UNK     1      37.644 -11.425  30.052  1.00  0.00     0.205 C 
HETATM   15  C1  UNK     1      38.098 -12.862  30.309  1.00  0.00     0.183 C 
HETATM   16  C2  UNK     1      39.372 -12.888  31.157  1.00  0.00     0.180 C 
HETATM   17  C4  UNK     1      39.199 -12.019  32.411  1.00  0.00     0.179 C 
HETATM   18  O1  UNK     1      38.784 -10.694  32.060  1.00  0.00    -0.348 OA
BRANCH  14  19
HETATM   19  O7  UNK     1      38.616 -10.773  29.229  1.00  0.00    -0.388 OA
HETATM   20  H18 UNK     1      38.231  -9.944  28.898  1.00  0.00     0.210 HD
ENDBRANCH  14  19
BRANCH  15  21
HETATM   21  O5  UNK     1      38.342 -13.527  29.071  1.00  0.00    -0.390 OA
HETATM   22  H16 UNK     1      38.988 -14.233  29.241  1.00  0.00     0.210 HD
ENDBRANCH  15  21
BRANCH  16  23
HETATM   23  O6  UNK     1      39.632 -14.240  31.526  1.00  0.00    -0.390 OA
HETATM   24  H17 UNK     1      40.529 -14.466  31.227  1.00  0.00     0.210 HD
ENDBRANCH  16  23
BRANCH  17  25
HETATM   25  C11 UNK     1      40.496 -11.889  33.203  1.00  0.00     0.198 C 
BRANCH  25  26
HETATM   26  O11 UNK     1      40.194 -11.988  34.583  1.00  0.00    -0.398 OA
HETATM   27  H25 UNK     1      40.044 -11.084  34.909  1.00  0.00     0.209 HD
ENDBRANCH  25  26
ENDBRANCH  17  25
ENDBRANCH  12  13
ENDBRANCH   3  12
BRANCH   4  28
HETATM   28  C22 UNK     1      34.398  -8.879  30.477  1.00  0.00     0.072 C 
BRANCH  28  29
HETATM   29  C24 UNK     1      33.715 -10.222  30.539  1.00  0.00    -0.020 C 
HETATM   30  C27 UNK     1      32.427 -10.510  30.270  1.00  0.00    -0.091 C 
HETATM   31  C31 UNK     1      31.810 -11.877  30.352  1.00  0.00     0.042 C 
HETATM   32  C32 UNK     1      31.473  -9.421  29.857  1.00  0.00     0.042 C 
ENDBRANCH  28  29
ENDBRANCH   4  28
BRANCH  11  33
HETATM   33  O13 UNK     1      36.728  -7.373  35.403  1.00  0.00    -0.360 OA
HETATM   34  H27 UNK     1      36.512  -6.457  35.638  1.00  0.00     0.217 HD
ENDBRANCH  11  33
BRANCH  10  35
HETATM   35  C23 UNK     1      30.700  -6.828  32.937  1.00  0.00     0.001 A 
HETATM   36  C25 UNK     1      29.791  -7.879  33.065  1.00  0.00     0.017 A 
HETATM   37  C28 UNK     1      28.474  -7.718  32.634  1.00  0.00     0.037 A 
HETATM   38  C30 UNK     1      28.066  -6.508  32.076  1.00  0.00     0.068 A 
HETATM   39  C29 UNK     1      28.974  -5.457  31.947  1.00  0.00     0.037 A 
HETATM   40  C26 UNK     1      30.291  -5.617  32.378  1.00  0.00     0.017 A 
BRANCH  38  41
HETATM   41  O15 UNK     1      26.781  -6.352  31.654  1.00  0.00    -0.356 OA
HETATM   42  C33 UNK     1      26.450  -6.880  30.371  1.00  0.00     0.210 C 
ENDBRANCH  38  41
ENDBRANCH  10  35
BRANCH   5  43
HETATM   43  O4  UNK     1      31.679  -5.999  35.528  1.00  0.00    -0.311 OA
BRANCH  43  44
HETATM   44  C10 UNK     1      31.494  -6.820  36.676  1.00  0.00     0.298 C 
HETATM   45  O2  UNK     1      30.250  -7.526  36.649  1.00  0.00    -0.351 OA
HETATM   46  C9  UNK     1      29.096  -6.682  36.694  1.00  0.00     0.152 C 
HETATM   47  C12 UNK     1      27.874  -7.594  36.611  1.00  0.00     0.042 C 
HETATM   48  C6  UNK     1      29.088  -5.825  37.968  1.00  0.00     0.178 C 
HETATM   49  C5  UNK     1      30.396  -5.042  38.081  1.00  0.00     0.183 C 
HETATM   50  C8  UNK     1      31.604  -5.970  37.941  1.00  0.00     0.205 C 
BRANCH  48  51
HETATM   51  O9  UNK     1      28.013  -4.890  37.927  1.00  0.00    -0.390 OA
HETATM   52  H20 UNK     1      27.303  -5.221  38.503  1.00  0.00     0.210 HD
ENDBRANCH  48  51
BRANCH  49  53
HETATM   53  O8  UNK     1      30.438  -4.377  39.342  1.00  0.00    -0.390 OA
HETATM   54  H19 UNK     1      30.927  -4.949  39.958  1.00  0.00     0.210 HD
ENDBRANCH  49  53
BRANCH  50  55
HETATM   55  O10 UNK     1      31.669  -6.857  39.058  1.00  0.00    -0.388 OA
HETATM   56  H21 UNK     1      31.353  -7.727  38.760  1.00  0.00     0.210 HD
ENDBRANCH  50  55
ENDBRANCH  43  44
ENDBRANCH   5  43
TORSDOF 17
ENDMDL
MODEL 9
REMARK VINA RESULT:      -7.9      4.323     11.302
REMARK  17 active torsions:
REMARK  status: ('A' for Active; 'I' for Inactive)
REMARK    1  A    between atoms: C13_28  and  O3_3 
REMARK    2  A    between atoms: C7_22  and  O3_3 
REMARK    3  A    between atoms: C10_25  and  O4_4 
REMARK    4  A    between atoms: C15_30  and  O4_4 
REMARK    5  A    between atoms: C1_16  and  O5_5 
REMARK    6  A    between atoms: C2_17  and  O6_6 
REMARK    7  A    between atoms: C3_18  and  O7_7 
REMARK    8  A    between atoms: C5_20  and  O8_8 
REMARK    9  A    between atoms: C6_21  and  O9_9 
REMARK   10  A    between atoms: C8_23  and  O10_10 
REMARK   11  A    between atoms: C11_26  and  O11_11 
REMARK   12  A    between atoms: C21_36  and  O13_13 
REMARK   13  A    between atoms: C30_45  and  O15_15 
REMARK   14  A    between atoms: C11_26  and  C4_19 
REMARK   15  A    between atoms: C14_29  and  C22_37 
REMARK   16  A    between atoms: C20_35  and  C23_38 
REMARK   17  A    between atoms: C22_37  and  C24_39 
ROOT
HETATM    1  O12 UNK     1      32.748  -7.685  32.318  1.00  0.00    -0.305 OA
HETATM    2  O14 UNK     1      34.432  -6.546  35.849  1.00  0.00    -0.284 OA
HETATM    3  C13 UNK     1      36.150  -8.851  31.732  1.00  0.00     0.084 A 
HETATM    4  C14 UNK     1      34.795  -8.574  31.549  1.00  0.00     0.014 A 
HETATM    5  C15 UNK     1      32.501  -6.639  34.484  1.00  0.00     0.157 A 
HETATM    6  C16 UNK     1      34.076  -7.929  32.556  1.00  0.00     0.102 A 
HETATM    7  C17 UNK     1      34.712  -7.563  33.740  1.00  0.00     0.085 A 
HETATM    8  C18 UNK     1      33.930  -6.886  34.786  1.00  0.00     0.223 A 
HETATM    9  C19 UNK     1      36.785  -8.485  32.919  1.00  0.00     0.075 A 
HETATM   10  C20 UNK     1      32.011  -7.036  33.295  1.00  0.00     0.123 A 
HETATM   11  C21 UNK     1      36.068  -7.840  33.928  1.00  0.00     0.085 A 
ENDROOT
BRANCH   3  12
HETATM   12  O3  UNK     1      36.871  -9.480  30.761  1.00  0.00    -0.317 OA
BRANCH  12  13
HETATM   13  C7  UNK     1      37.628 -10.623  31.155  1.00  0.00     0.298 C 
HETATM   14  C3  UNK     1      36.697 -11.834  31.195  1.00  0.00     0.205 C 
HETATM   15  C1  UNK     1      37.487 -13.082  31.592  1.00  0.00     0.183 C 
HETATM   16  C2  UNK     1      38.712 -13.260  30.693  1.00  0.00     0.180 C 
HETATM   17  C4  UNK     1      39.526 -11.960  30.630  1.00  0.00     0.179 C 
HETATM   18  O1  UNK     1      38.698 -10.859  30.239  1.00  0.00    -0.348 OA
BRANCH  14  19
HETATM   19  O7  UNK     1      36.139 -12.036  29.892  1.00  0.00    -0.388 OA
HETATM   20  H18 UNK     1      36.228 -11.207  29.390  1.00  0.00     0.210 HD
ENDBRANCH  14  19
BRANCH  15  21
HETATM   21  O5  UNK     1      36.658 -14.237  31.495  1.00  0.00    -0.390 OA
HETATM   22  H16 UNK     1      35.814 -13.959  31.099  1.00  0.00     0.210 HD
ENDBRANCH  15  21
BRANCH  16  23
HETATM   23  O6  UNK     1      39.508 -14.313  31.231  1.00  0.00    -0.390 OA
HETATM   24  H17 UNK     1      40.436 -14.135  31.002  1.00  0.00     0.210 HD
ENDBRANCH  16  23
BRANCH  17  25
HETATM   25  C11 UNK     1      40.667 -12.045  29.621  1.00  0.00     0.198 C 
BRANCH  25  26
HETATM   26  O11 UNK     1      40.468 -11.052  28.631  1.00  0.00    -0.398 OA
HETATM   27  H25 UNK     1      40.124 -11.501  27.840  1.00  0.00     0.209 HD
ENDBRANCH  25  26
ENDBRANCH  17  25
ENDBRANCH  12  13
ENDBRANCH   3  12
BRANCH   4  28
HETATM   28  C22 UNK     1      34.123  -8.971  30.273  1.00  0.00     0.072 C 
BRANCH  28  29
HETATM   29  C24 UNK     1      33.199 -10.151  30.442  1.00  0.00    -0.020 C 
HETATM   30  C27 UNK     1      31.883 -10.221  30.162  1.00  0.00    -0.091 C 
HETATM   31  C31 UNK     1      31.019 -11.434  30.356  1.00  0.00     0.042 C 
HETATM   32  C32 UNK     1      31.156  -9.021  29.615  1.00  0.00     0.042 C 
ENDBRANCH  28  29
ENDBRANCH   4  28
BRANCH  11  33
HETATM   33  O13 UNK     1      36.735  -7.503  35.066  1.00  0.00    -0.360 OA
HETATM   34  H27 UNK     1      36.114  -7.220  35.754  1.00  0.00     0.217 HD
ENDBRANCH  11  33
BRANCH  10  35
HETATM   35  C23 UNK     1      30.600  -6.838  32.913  1.00  0.00     0.001 A 
HETATM   36  C25 UNK     1      29.687  -7.884  33.049  1.00  0.00     0.017 A 
HETATM   37  C28 UNK     1      28.354  -7.697  32.687  1.00  0.00     0.037 A 
HETATM   38  C30 UNK     1      27.933  -6.465  32.188  1.00  0.00     0.068 A 
HETATM   39  C29 UNK     1      28.845  -5.419  32.052  1.00  0.00     0.037 A 
HETATM   40  C26 UNK     1      30.179  -5.605  32.415  1.00  0.00     0.017 A 
BRANCH  38  41
HETATM   41  O15 UNK     1      26.631  -6.283  31.833  1.00  0.00    -0.356 OA
HETATM   42  C33 UNK     1      26.233  -6.772  30.554  1.00  0.00     0.210 C 
ENDBRANCH  38  41
ENDBRANCH  10  35
BRANCH   5  43
HETATM   43  O4  UNK     1      31.730  -6.024  35.447  1.00  0.00    -0.311 OA
BRANCH  43  44
HETATM   44  C10 UNK     1      31.522  -6.869  36.574  1.00  0.00     0.298 C 
HETATM   45  O2  UNK     1      30.254  -7.530  36.536  1.00  0.00    -0.351 OA
HETATM   46  C9  UNK     1      29.130  -6.647  36.611  1.00  0.00     0.152 C 
HETATM   47  C12 UNK     1      27.876  -7.512  36.512  1.00  0.00     0.042 C 
HETATM   48  C6  UNK     1      29.160  -5.826  37.908  1.00  0.00     0.178 C 
HETATM   49  C5  UNK     1      30.496  -5.092  38.034  1.00  0.00     0.183 C 
HETATM   50  C8  UNK     1      31.670  -6.059  37.860  1.00  0.00     0.205 C 
BRANCH  48  51
HETATM   51  O9  UNK     1      28.118  -4.852  37.900  1.00  0.00    -0.390 OA
HETATM   52  H20 UNK     1      28.530  -3.972  37.872  1.00  0.00     0.210 HD
ENDBRANCH  48  51
BRANCH  49  53
HETATM   53  O8  UNK     1      30.568  -4.465  39.312  1.00  0.00    -0.390 OA
HETATM   54  H19 UNK     1      29.727  -4.637  39.770  1.00  0.00     0.210 HD
ENDBRANCH  49  53
BRANCH  50  55
HETATM   55  O10 UNK     1      31.709  -6.979  38.952  1.00  0.00    -0.388 OA
HETATM   56  H21 UNK     1      32.027  -6.494  39.733  1.00  0.00     0.210 HD
ENDBRANCH  50  55
ENDBRANCH  43  44
ENDBRANCH   5  43
TORSDOF 17
ENDMDL
MODEL 10
REMARK VINA RESULT:      -7.8      5.918      9.741
REMARK  17 active torsions:
REMARK  status: ('A' for Active; 'I' for Inactive)
REMARK    1  A    between atoms: C13_28  and  O3_3 
REMARK    2  A    between atoms: C7_22  and  O3_3 
REMARK    3  A    between atoms: C10_25  and  O4_4 
REMARK    4  A    between atoms: C15_30  and  O4_4 
REMARK    5  A    between atoms: C1_16  and  O5_5 
REMARK    6  A    between atoms: C2_17  and  O6_6 
REMARK    7  A    between atoms: C3_18  and  O7_7 
REMARK    8  A    between atoms: C5_20  and  O8_8 
REMARK    9  A    between atoms: C6_21  and  O9_9 
REMARK   10  A    between atoms: C8_23  and  O10_10 
REMARK   11  A    between atoms: C11_26  and  O11_11 
REMARK   12  A    between atoms: C21_36  and  O13_13 
REMARK   13  A    between atoms: C30_45  and  O15_15 
REMARK   14  A    between atoms: C11_26  and  C4_19 
REMARK   15  A    between atoms: C14_29  and  C22_37 
REMARK   16  A    between atoms: C20_35  and  C23_38 
REMARK   17  A    between atoms: C22_37  and  C24_39 
ROOT
HETATM    1  O12 UNK     1      30.557  -9.597  32.124  1.00  0.00    -0.305 OA
HETATM    2  O14 UNK     1      31.751 -10.005  35.998  1.00  0.00    -0.284 OA
HETATM    3  C13 UNK     1      30.890 -13.223  32.240  1.00  0.00     0.084 A 
HETATM    4  C14 UNK     1      30.644 -11.930  31.778  1.00  0.00     0.014 A 
HETATM    5  C15 UNK     1      31.112  -8.559  34.237  1.00  0.00     0.157 A 
HETATM    6  C16 UNK     1      30.814 -10.842  32.636  1.00  0.00     0.102 A 
HETATM    7  C17 UNK     1      31.227 -11.050  33.949  1.00  0.00     0.085 A 
HETATM    8  C18 UNK     1      31.397  -9.886  34.834  1.00  0.00     0.223 A 
HETATM    9  C19 UNK     1      31.303 -13.429  33.557  1.00  0.00     0.075 A 
HETATM   10  C20 UNK     1      30.727  -8.496  32.949  1.00  0.00     0.123 A 
HETATM   11  C21 UNK     1      31.473 -12.343  34.417  1.00  0.00     0.085 A 
ENDROOT
BRANCH   3  12
HETATM   12  O3  UNK     1      30.730 -14.299  31.419  1.00  0.00    -0.317 OA
BRANCH  12  13
HETATM   13  C7  UNK     1      31.908 -15.020  31.061  1.00  0.00     0.298 C 
HETATM   14  C3  UNK     1      31.494 -16.372  30.481  1.00  0.00     0.205 C 
HETATM   15  C1  UNK     1      32.737 -17.159  30.065  1.00  0.00     0.183 C 
HETATM   16  C2  UNK     1      33.626 -16.325  29.140  1.00  0.00     0.180 C 
HETATM   17  C4  UNK     1      33.898 -14.946  29.758  1.00  0.00     0.179 C 
HETATM   18  O1  UNK     1      32.673 -14.290  30.100  1.00  0.00    -0.348 OA
BRANCH  14  19
HETATM   19  O7  UNK     1      30.677 -16.153  29.326  1.00  0.00    -0.388 OA
HETATM   20  H18 UNK     1      29.754 -16.345  29.564  1.00  0.00     0.210 HD
ENDBRANCH  14  19
BRANCH  15  21
HETATM   21  O5  UNK     1      32.355 -18.359  29.396  1.00  0.00    -0.390 OA
HETATM   22  H16 UNK     1      33.054 -18.572  28.755  1.00  0.00     0.210 HD
ENDBRANCH  15  21
BRANCH  16  23
HETATM   23  O6  UNK     1      34.851 -17.029  28.948  1.00  0.00    -0.390 OA
HETATM   24  H17 UNK     1      35.465 -16.440  28.477  1.00  0.00     0.210 HD
ENDBRANCH  16  23
BRANCH  17  25
HETATM   25  C11 UNK     1      34.648 -14.026  28.799  1.00  0.00     0.198 C 
BRANCH  25  26
HETATM   26  O11 UNK     1      34.275 -14.355  27.474  1.00  0.00    -0.398 OA
HETATM   27  H25 UNK     1      33.328 -14.576  27.488  1.00  0.00     0.209 HD
ENDBRANCH  25  26
ENDBRANCH  17  25
ENDBRANCH  12  13
ENDBRANCH   3  12
BRANCH   4  28
HETATM   28  C22 UNK     1      30.202 -11.719  30.365  1.00  0.00     0.072 C 
BRANCH  28  29
HETATM   29  C24 UNK     1      31.138 -10.829  29.587  1.00  0.00    -0.020 C 
HETATM   30  C27 UNK     1      30.834  -9.726  28.875  1.00  0.00    -0.091 C 
HETATM   31  C31 UNK     1      31.821  -8.882  28.121  1.00  0.00     0.042 C 
HETATM   32  C32 UNK     1      29.408  -9.251  28.780  1.00  0.00     0.042 C 
ENDBRANCH  28  29
ENDBRANCH   4  28
BRANCH  11  33
HETATM   33  O13 UNK     1      31.878 -12.599  35.691  1.00  0.00    -0.360 OA
HETATM   34  H27 UNK     1      31.899 -13.554  35.857  1.00  0.00     0.217 HD
ENDBRANCH  11  33
BRANCH  10  35
HETATM   35  C23 UNK     1      30.417  -7.221  32.276  1.00  0.00     0.001 A 
HETATM   36  C25 UNK     1      29.403  -6.400  32.773  1.00  0.00     0.017 A 
HETATM   37  C28 UNK     1      29.108  -5.195  32.136  1.00  0.00     0.037 A 
HETATM   38  C30 UNK     1      29.826  -4.810  31.003  1.00  0.00     0.068 A 
HETATM   39  C29 UNK     1      30.838  -5.631  30.507  1.00  0.00     0.037 A 
HETATM   40  C26 UNK     1      31.134  -6.837  31.144  1.00  0.00     0.017 A 
BRANCH  38  41
HETATM   41  O15 UNK     1      29.537  -3.635  30.381  1.00  0.00    -0.356 OA
HETATM   42  C33 UNK     1      30.041  -2.442  30.980  1.00  0.00     0.210 C 
ENDBRANCH  38  41
ENDBRANCH  10  35
BRANCH   5  43
HETATM   43  O4  UNK     1      31.240  -7.446  35.039  1.00  0.00    -0.311 OA
BRANCH  43  44
HETATM   44  C10 UNK     1      32.481  -6.783  34.826  1.00  0.00     0.298 C 
HETATM   45  O2  UNK     1      33.464  -7.134  35.805  1.00  0.00    -0.351 OA
HETATM   46  C9  UNK     1      33.133  -6.733  37.138  1.00  0.00     0.152 C 
HETATM   47  C12 UNK     1      34.260  -7.225  38.044  1.00  0.00     0.042 C 
HETATM   48  C6  UNK     1      32.949  -5.211  37.227  1.00  0.00     0.178 C 
HETATM   49  C5  UNK     1      31.916  -4.747  36.198  1.00  0.00     0.183 C 
HETATM   50  C8  UNK     1      32.261  -5.271  34.802  1.00  0.00     0.205 C 
BRANCH  48  51
HETATM   51  O9  UNK     1      32.479  -4.846  38.522  1.00  0.00    -0.390 OA
HETATM   52  H20 UNK     1      32.268  -3.897  38.509  1.00  0.00     0.210 HD
ENDBRANCH  48  51
BRANCH  49  53
HETATM   53  O8  UNK     1      31.874  -3.322  36.186  1.00  0.00    -0.390 OA
HETATM   54  H19 UNK     1      32.727  -3.007  35.839  1.00  0.00     0.210 HD
ENDBRANCH  49  53
BRANCH  50  55
HETATM   55  O10 UNK     1      33.467  -4.663  34.338  1.00  0.00    -0.388 OA
HETATM   56  H21 UNK     1      33.813  -5.213  33.615  1.00  0.00     0.210 HD
ENDBRANCH  50  55
ENDBRANCH  43  44
ENDBRANCH   5  43
TORSDOF 17
ENDMDL
