MODEL 1
REMARK VINA RESULT:      -8.5      0.000      0.000
REMARK  5 active torsions:
REMARK  status: ('A' for Active; 'I' for Inactive)
REMARK    1  A    between atoms: C16_21  and  O2_2 
REMARK    2  A    between atoms: C6_11  and  O2_2 
REMARK    3  A    between atoms: C12_17  and  O3_3 
REMARK    4  A    between atoms: C14_19  and  O4_4 
REMARK    5  A    between atoms: C2_7  and  C4_9 
ROOT
HETATM    1  O1  UNK     1      18.303   1.771  32.241  1.00  0.00    -0.271 OA
HETATM    2  O5  UNK     1      18.188   3.684  31.009  1.00  0.00    -0.259 OA
HETATM    3  C1  UNK     1      18.386   1.883  34.661  1.00  0.00     0.002 A 
HETATM    4  C2  UNK     1      18.214   3.954  33.380  1.00  0.00     0.051 A 
HETATM    5  C3  UNK     1      18.385   1.134  33.492  1.00  0.00     0.123 A 
HETATM    6  C5  UNK     1      18.293   3.329  34.566  1.00  0.00     0.032 A 
HETATM    7  C6  UNK     1      18.468  -0.257  33.510  1.00  0.00     0.103 A 
HETATM    8  C7  UNK     1      18.230   3.157  32.116  1.00  0.00     0.299 A 
HETATM    9  C8  UNK     1      18.470   1.217  35.887  1.00  0.00     0.014 A 
HETATM   10  C11 UNK     1      18.552  -0.913  34.735  1.00  0.00     0.040 A 
HETATM   11  C13 UNK     1      18.554  -0.177  35.923  1.00  0.00     0.004 A 
ENDROOT
BRANCH   4  12
HETATM   12  C4  UNK     1      18.117   5.389  33.280  1.00  0.00    -0.017 A 
HETATM   13  C10 UNK     1      19.149   6.192  33.766  1.00  0.00     0.015 A 
HETATM   14  C15 UNK     1      19.056   7.581  33.668  1.00  0.00     0.040 A 
HETATM   15  C14 UNK     1      17.931   8.165  33.086  1.00  0.00     0.101 A 
HETATM   16  C12 UNK     1      16.900   7.361  32.601  1.00  0.00     0.102 A 
HETATM   17  C9  UNK     1      16.992   5.974  32.698  1.00  0.00     0.052 A 
BRANCH  15  18
HETATM   18  O4  UNK     1      17.852   9.522  32.998  1.00  0.00    -0.353 OA
HETATM   19  C19 UNK     1      17.297  10.213  34.115  1.00  0.00     0.210 C 
ENDBRANCH  15  18
BRANCH  16  20
HETATM   20  O3  UNK     1      15.797   7.921  32.029  1.00  0.00    -0.353 OA
HETATM   21  C18 UNK     1      14.608   7.132  32.007  1.00  0.00     0.210 C 
ENDBRANCH  16  20
ENDBRANCH   4  12
BRANCH   7  22
HETATM   22  O2  UNK     1      18.467  -0.977  32.355  1.00  0.00    -0.349 OA
BRANCH  22  23
HETATM   23  C16 UNK     1      19.696  -1.595  31.974  1.00  0.00     0.171 C 
HETATM   24  C17 UNK     1      20.295  -0.827  30.815  1.00  0.00     0.034 C 
ENDBRANCH  22  23
ENDBRANCH   7  22
TORSDOF 5
ENDMDL
MODEL 2
REMARK VINA RESULT:      -8.2      4.746     10.499
REMARK  5 active torsions:
REMARK  status: ('A' for Active; 'I' for Inactive)
REMARK    1  A    between atoms: C16_21  and  O2_2 
REMARK    2  A    between atoms: C6_11  and  O2_2 
REMARK    3  A    between atoms: C12_17  and  O3_3 
REMARK    4  A    between atoms: C14_19  and  O4_4 
REMARK    5  A    between atoms: C2_7  and  C4_9 
ROOT
HETATM    1  O1  UNK     1      19.484  -1.192  34.834  1.00  0.00    -0.271 OA
HETATM    2  O5  UNK     1      20.498  -3.172  34.343  1.00  0.00    -0.259 OA
HETATM    3  C1  UNK     1      18.437  -0.862  36.995  1.00  0.00     0.002 A 
HETATM    4  C2  UNK     1      19.555  -2.981  36.526  1.00  0.00     0.051 A 
HETATM    5  C3  UNK     1      18.761  -0.386  35.732  1.00  0.00     0.123 A 
HETATM    6  C5  UNK     1      18.864  -2.198  37.371  1.00  0.00     0.032 A 
HETATM    7  C6  UNK     1      18.387   0.887  35.307  1.00  0.00     0.103 A 
HETATM    8  C7  UNK     1      19.893  -2.483  35.158  1.00  0.00     0.299 A 
HETATM    9  C8  UNK     1      17.716  -0.035  37.862  1.00  0.00     0.014 A 
HETATM   10  C11 UNK     1      17.668   1.705  36.176  1.00  0.00     0.040 A 
HETATM   11  C13 UNK     1      17.332   1.244  37.451  1.00  0.00     0.004 A 
ENDROOT
BRANCH   4  12
HETATM   12  C4  UNK     1      19.985  -4.307  36.895  1.00  0.00    -0.017 A 
HETATM   13  C10 UNK     1      21.141  -4.478  37.656  1.00  0.00     0.015 A 
HETATM   14  C15 UNK     1      21.556  -5.761  38.014  1.00  0.00     0.040 A 
HETATM   15  C14 UNK     1      20.816  -6.871  37.611  1.00  0.00     0.101 A 
HETATM   16  C12 UNK     1      19.660  -6.700  36.850  1.00  0.00     0.102 A 
HETATM   17  C9  UNK     1      19.244  -5.418  36.492  1.00  0.00     0.052 A 
BRANCH  15  18
HETATM   18  O4  UNK     1      21.232  -8.119  37.967  1.00  0.00    -0.353 OA
HETATM   19  C19 UNK     1      21.218  -8.434  39.358  1.00  0.00     0.210 C 
ENDBRANCH  15  18
BRANCH  16  20
HETATM   20  O3  UNK     1      18.927  -7.777  36.451  1.00  0.00    -0.353 OA
HETATM   21  C18 UNK     1      17.849  -7.531  35.550  1.00  0.00     0.210 C 
ENDBRANCH  16  20
ENDBRANCH   4  12
BRANCH   7  22
HETATM   22  O2  UNK     1      18.711   1.339  34.065  1.00  0.00    -0.349 OA
BRANCH  22  23
HETATM   23  C16 UNK     1      18.220   2.626  33.693  1.00  0.00     0.171 C 
HETATM   24  C17 UNK     1      18.227   2.738  32.183  1.00  0.00     0.034 C 
ENDBRANCH  22  23
ENDBRANCH   7  22
TORSDOF 5
ENDMDL
MODEL 3
REMARK VINA RESULT:      -8.1      1.617      7.822
REMARK  5 active torsions:
REMARK  status: ('A' for Active; 'I' for Inactive)
REMARK    1  A    between atoms: C16_21  and  O2_2 
REMARK    2  A    between atoms: C6_11  and  O2_2 
REMARK    3  A    between atoms: C12_17  and  O3_3 
REMARK    4  A    between atoms: C14_19  and  O4_4 
REMARK    5  A    between atoms: C2_7  and  C4_9 
ROOT
HETATM    1  O1  UNK     1      16.882   7.751  32.908  1.00  0.00    -0.271 OA
HETATM    2  O5  UNK     1      15.962   5.800  32.177  1.00  0.00    -0.259 OA
HETATM    3  C1  UNK     1      19.190   7.807  33.649  1.00  0.00     0.002 A 
HETATM    4  C2  UNK     1      18.255   5.707  32.827  1.00  0.00     0.051 A 
HETATM    5  C3  UNK     1      17.982   8.456  33.429  1.00  0.00     0.123 A 
HETATM    6  C5  UNK     1      19.296   6.396  33.325  1.00  0.00     0.032 A 
HETATM    7  C6  UNK     1      17.812   9.809  33.714  1.00  0.00     0.103 A 
HETATM    8  C7  UNK     1      16.947   6.393  32.603  1.00  0.00     0.299 A 
HETATM    9  C8  UNK     1      20.262   8.538  34.170  1.00  0.00     0.014 A 
HETATM   10  C11 UNK     1      18.884  10.530  34.233  1.00  0.00     0.040 A 
HETATM   11  C13 UNK     1      20.107   9.896  34.461  1.00  0.00     0.004 A 
ENDROOT
BRANCH   4  12
HETATM   12  C4  UNK     1      18.356   4.306  32.500  1.00  0.00    -0.017 A 
HETATM   13  C10 UNK     1      18.191   3.344  33.495  1.00  0.00     0.015 A 
HETATM   14  C15 UNK     1      18.288   1.989  33.178  1.00  0.00     0.040 A 
HETATM   15  C14 UNK     1      18.550   1.597  31.866  1.00  0.00     0.101 A 
HETATM   16  C12 UNK     1      18.715   2.560  30.871  1.00  0.00     0.102 A 
HETATM   17  C9  UNK     1      18.618   3.914  31.187  1.00  0.00     0.052 A 
BRANCH  15  18
HETATM   18  O4  UNK     1      18.643   0.271  31.569  1.00  0.00    -0.353 OA
HETATM   19  C19 UNK     1      18.730  -0.635  32.668  1.00  0.00     0.210 C 
ENDBRANCH  15  18
BRANCH  16  20
HETATM   20  O3  UNK     1      18.971   2.189  29.585  1.00  0.00    -0.353 OA
HETATM   21  C18 UNK     1      17.851   2.066  28.710  1.00  0.00     0.210 C 
ENDBRANCH  16  20
ENDBRANCH   4  12
BRANCH   7  22
HETATM   22  O2  UNK     1      16.621  10.431  33.494  1.00  0.00    -0.349 OA
BRANCH  22  23
HETATM   23  C16 UNK     1      15.837  10.757  34.641  1.00  0.00     0.171 C 
HETATM   24  C17 UNK     1      14.651   9.818  34.710  1.00  0.00     0.034 C 
ENDBRANCH  22  23
ENDBRANCH   7  22
TORSDOF 5
ENDMDL
MODEL 4
REMARK VINA RESULT:      -8.0      1.592      7.926
REMARK  5 active torsions:
REMARK  status: ('A' for Active; 'I' for Inactive)
REMARK    1  A    between atoms: C16_21  and  O2_2 
REMARK    2  A    between atoms: C6_11  and  O2_2 
REMARK    3  A    between atoms: C12_17  and  O3_3 
REMARK    4  A    between atoms: C14_19  and  O4_4 
REMARK    5  A    between atoms: C2_7  and  C4_9 
ROOT
HETATM    1  O1  UNK     1      16.907   7.998  32.876  1.00  0.00    -0.271 OA
HETATM    2  O5  UNK     1      15.987   6.099  32.017  1.00  0.00    -0.259 OA
HETATM    3  C1  UNK     1      19.229   8.019  33.575  1.00  0.00     0.002 A 
HETATM    4  C2  UNK     1      18.294   5.978  32.615  1.00  0.00     0.051 A 
HETATM    5  C3  UNK     1      18.012   8.672  33.427  1.00  0.00     0.123 A 
HETATM    6  C5  UNK     1      19.339   6.637  33.144  1.00  0.00     0.032 A 
HETATM    7  C6  UNK     1      17.838   9.999  33.817  1.00  0.00     0.103 A 
HETATM    8  C7  UNK     1      16.976   6.668  32.468  1.00  0.00     0.299 A 
HETATM    9  C8  UNK     1      20.305   8.718  34.129  1.00  0.00     0.014 A 
HETATM   10  C11 UNK     1      18.914  10.688  34.368  1.00  0.00     0.040 A 
HETATM   11  C13 UNK     1      20.147  10.049  34.524  1.00  0.00     0.004 A 
ENDROOT
BRANCH   4  12
HETATM   12  C4  UNK     1      18.398   4.607  32.181  1.00  0.00    -0.017 A 
HETATM   13  C10 UNK     1      18.752   4.318  30.864  1.00  0.00     0.015 A 
HETATM   14  C15 UNK     1      18.854   2.991  30.444  1.00  0.00     0.040 A 
HETATM   15  C14 UNK     1      18.602   1.955  31.343  1.00  0.00     0.101 A 
HETATM   16  C12 UNK     1      18.248   2.245  32.660  1.00  0.00     0.102 A 
HETATM   17  C9  UNK     1      18.146   3.570  33.080  1.00  0.00     0.052 A 
BRANCH  15  18
HETATM   18  O4  UNK     1      18.705   0.664  30.921  1.00  0.00    -0.353 OA
HETATM   19  C19 UNK     1      19.989   0.226  30.480  1.00  0.00     0.210 C 
ENDBRANCH  15  18
BRANCH  16  20
HETATM   20  O3  UNK     1      18.000   1.240  33.547  1.00  0.00    -0.353 OA
HETATM   21  C18 UNK     1      18.117   1.556  34.933  1.00  0.00     0.210 C 
ENDBRANCH  16  20
ENDBRANCH   4  12
BRANCH   7  22
HETATM   22  O2  UNK     1      16.639  10.624  33.666  1.00  0.00    -0.349 OA
BRANCH  22  23
HETATM   23  C16 UNK     1      15.796  10.698  34.816  1.00  0.00     0.171 C 
HETATM   24  C17 UNK     1      14.416  10.192  34.449  1.00  0.00     0.034 C 
ENDBRANCH  22  23
ENDBRANCH   7  22
TORSDOF 5
ENDMDL
MODEL 5
REMARK VINA RESULT:      -7.9      1.635      2.826
REMARK  5 active torsions:
REMARK  status: ('A' for Active; 'I' for Inactive)
REMARK    1  A    between atoms: C16_21  and  O2_2 
REMARK    2  A    between atoms: C6_11  and  O2_2 
REMARK    3  A    between atoms: C12_17  and  O3_3 
REMARK    4  A    between atoms: C14_19  and  O4_4 
REMARK    5  A    between atoms: C2_7  and  C4_9 
ROOT
HETATM    1  O1  UNK     1      18.670   1.543  32.899  1.00  0.00    -0.271 OA
HETATM    2  O5  UNK     1      18.040   3.250  34.270  1.00  0.00    -0.259 OA
HETATM    3  C1  UNK     1      18.993   1.940  30.529  1.00  0.00     0.002 A 
HETATM    4  C2  UNK     1      18.365   3.806  31.973  1.00  0.00     0.051 A 
HETATM    5  C3  UNK     1      18.989   1.072  31.612  1.00  0.00     0.123 A 
HETATM    6  C5  UNK     1      18.671   3.339  30.751  1.00  0.00     0.032 A 
HETATM    7  C6  UNK     1      19.290  -0.281  31.471  1.00  0.00     0.103 A 
HETATM    8  C7  UNK     1      18.341   2.875  33.141  1.00  0.00     0.299 A 
HETATM    9  C8  UNK     1      19.312   1.438  29.264  1.00  0.00     0.014 A 
HETATM   10  C11 UNK     1      19.607  -0.775  30.208  1.00  0.00     0.040 A 
HETATM   11  C13 UNK     1      19.617   0.083  29.106  1.00  0.00     0.004 A 
ENDROOT
BRANCH   4  12
HETATM   12  C4  UNK     1      18.049   5.194  32.200  1.00  0.00    -0.017 A 
HETATM   13  C10 UNK     1      18.949   6.011  32.885  1.00  0.00     0.015 A 
HETATM   14  C15 UNK     1      18.644   7.354  33.104  1.00  0.00     0.040 A 
HETATM   15  C14 UNK     1      17.439   7.880  32.638  1.00  0.00     0.101 A 
HETATM   16  C12 UNK     1      16.540   7.064  31.954  1.00  0.00     0.102 A 
HETATM   17  C9  UNK     1      16.844   5.721  31.735  1.00  0.00     0.052 A 
BRANCH  15  18
HETATM   18  O4  UNK     1      17.152   9.194  32.859  1.00  0.00    -0.353 OA
HETATM   19  C19 UNK     1      16.703   9.548  34.165  1.00  0.00     0.210 C 
ENDBRANCH  15  18
BRANCH  16  20
HETATM   20  O3  UNK     1      15.360   7.566  31.493  1.00  0.00    -0.353 OA
HETATM   21  C18 UNK     1      14.177   7.194  32.199  1.00  0.00     0.210 C 
ENDBRANCH  16  20
ENDBRANCH   4  12
BRANCH   7  22
HETATM   22  O2  UNK     1      19.281  -1.120  32.543  1.00  0.00    -0.349 OA
BRANCH  22  23
HETATM   23  C16 UNK     1      20.293  -2.125  32.590  1.00  0.00     0.171 C 
HETATM   24  C17 UNK     1      20.421  -2.628  34.013  1.00  0.00     0.034 C 
ENDBRANCH  22  23
ENDBRANCH   7  22
TORSDOF 5
ENDMDL
MODEL 6
REMARK VINA RESULT:      -7.8     23.966     25.769
REMARK  5 active torsions:
REMARK  status: ('A' for Active; 'I' for Inactive)
REMARK    1  A    between atoms: C16_21  and  O2_2 
REMARK    2  A    between atoms: C6_11  and  O2_2 
REMARK    3  A    between atoms: C12_17  and  O3_3 
REMARK    4  A    between atoms: C14_19  and  O4_4 
REMARK    5  A    between atoms: C2_7  and  C4_9 
ROOT
HETATM    1  O1  UNK     1      10.905   7.651   9.604  1.00  0.00    -0.271 OA
HETATM    2  O5  UNK     1      12.423   8.646  10.980  1.00  0.00    -0.259 OA
HETATM    3  C1  UNK     1      11.483   7.165   7.300  1.00  0.00     0.002 A 
HETATM    4  C2  UNK     1      13.155   8.188   8.756  1.00  0.00     0.051 A 
HETATM    5  C3  UNK     1      10.560   7.148   8.336  1.00  0.00     0.123 A 
HETATM    6  C5  UNK     1      12.808   7.703   7.552  1.00  0.00     0.032 A 
HETATM    7  C6  UNK     1       9.272   6.643   8.165  1.00  0.00     0.103 A 
HETATM    8  C7  UNK     1      12.162   8.189   9.872  1.00  0.00     0.299 A 
HETATM    9  C8  UNK     1      11.106   6.659   6.053  1.00  0.00     0.014 A 
HETATM   10  C11 UNK     1       8.903   6.141   6.920  1.00  0.00     0.040 A 
HETATM   11  C13 UNK     1       9.819   6.149   5.865  1.00  0.00     0.004 A 
ENDROOT
BRANCH   4  12
HETATM   12  C4  UNK     1      14.470   8.719   9.013  1.00  0.00    -0.017 A 
HETATM   13  C10 UNK     1      14.726  10.075   8.811  1.00  0.00     0.015 A 
HETATM   14  C15 UNK     1      15.999  10.590   9.060  1.00  0.00     0.040 A 
HETATM   15  C14 UNK     1      17.014   9.748   9.511  1.00  0.00     0.101 A 
HETATM   16  C12 UNK     1      16.759   8.392   9.713  1.00  0.00     0.102 A 
HETATM   17  C9  UNK     1      15.487   7.877   9.464  1.00  0.00     0.052 A 
BRANCH  15  18
HETATM   18  O4  UNK     1      18.253  10.262   9.751  1.00  0.00    -0.353 OA
HETATM   19  C19 UNK     1      18.385  11.682   9.711  1.00  0.00     0.210 C 
ENDBRANCH  15  18
BRANCH  16  20
HETATM   20  O3  UNK     1      17.743   7.559  10.154  1.00  0.00    -0.353 OA
HETATM   21  C18 UNK     1      17.860   6.293   9.508  1.00  0.00     0.210 C 
ENDBRANCH  16  20
ENDBRANCH   4  12
BRANCH   7  22
HETATM   22  O2  UNK     1       8.378   6.634   9.190  1.00  0.00    -0.349 OA
BRANCH  22  23
HETATM   23  C16 UNK     1       7.697   5.406   9.448  1.00  0.00     0.171 C 
HETATM   24  C17 UNK     1       8.632   4.470  10.184  1.00  0.00     0.034 C 
ENDBRANCH  22  23
ENDBRANCH   7  22
TORSDOF 5
ENDMDL
MODEL 7
REMARK VINA RESULT:      -7.8      4.939     10.801
REMARK  5 active torsions:
REMARK  status: ('A' for Active; 'I' for Inactive)
REMARK    1  A    between atoms: C16_21  and  O2_2 
REMARK    2  A    between atoms: C6_11  and  O2_2 
REMARK    3  A    between atoms: C12_17  and  O3_3 
REMARK    4  A    between atoms: C14_19  and  O4_4 
REMARK    5  A    between atoms: C2_7  and  C4_9 
ROOT
HETATM    1  O1  UNK     1      19.747  -1.088  34.998  1.00  0.00    -0.271 OA
HETATM    2  O5  UNK     1      20.836  -2.947  34.257  1.00  0.00    -0.259 OA
HETATM    3  C1  UNK     1      18.515  -1.148  37.086  1.00  0.00     0.002 A 
HETATM    4  C2  UNK     1      19.709  -3.147  36.350  1.00  0.00     0.051 A 
HETATM    5  C3  UNK     1      18.936  -0.456  35.958  1.00  0.00     0.123 A 
HETATM    6  C5  UNK     1      18.934  -2.528  37.257  1.00  0.00     0.032 A 
HETATM    7  C6  UNK     1      18.574   0.871  35.732  1.00  0.00     0.103 A 
HETATM    8  C7  UNK     1      20.152  -2.415  35.126  1.00  0.00     0.299 A 
HETATM    9  C8  UNK     1      17.708  -0.491  38.018  1.00  0.00     0.014 A 
HETATM   10  C11 UNK     1      17.770   1.519  36.665  1.00  0.00     0.040 A 
HETATM   11  C13 UNK     1      17.337   0.840  37.807  1.00  0.00     0.004 A 
ENDROOT
BRANCH   4  12
HETATM   12  C4  UNK     1      20.131  -4.516  36.517  1.00  0.00    -0.017 A 
HETATM   13  C10 UNK     1      19.856  -5.456  35.525  1.00  0.00     0.015 A 
HETATM   14  C15 UNK     1      20.266  -6.780  35.686  1.00  0.00     0.040 A 
HETATM   15  C14 UNK     1      20.949  -7.163  36.840  1.00  0.00     0.101 A 
HETATM   16  C12 UNK     1      21.224  -6.222  37.832  1.00  0.00     0.102 A 
HETATM   17  C9  UNK     1      20.815  -4.899  37.672  1.00  0.00     0.052 A 
BRANCH  15  18
HETATM   18  O4  UNK     1      21.343  -8.459  36.986  1.00  0.00    -0.353 OA
HETATM   19  C19 UNK     1      21.340  -9.273  35.815  1.00  0.00     0.210 C 
ENDBRANCH  15  18
BRANCH  16  20
HETATM   20  O3  UNK     1      21.892  -6.584  38.963  1.00  0.00    -0.353 OA
HETATM   21  C18 UNK     1      23.262  -6.201  39.058  1.00  0.00     0.210 C 
ENDBRANCH  16  20
ENDBRANCH   4  12
BRANCH   7  22
HETATM   22  O2  UNK     1      18.993   1.535  34.622  1.00  0.00    -0.349 OA
BRANCH  22  23
HETATM   23  C16 UNK     1      17.985   2.021  33.736  1.00  0.00     0.171 C 
HETATM   24  C17 UNK     1      18.247   3.485  33.448  1.00  0.00     0.034 C 
ENDBRANCH  22  23
ENDBRANCH   7  22
TORSDOF 5
ENDMDL
MODEL 8
REMARK VINA RESULT:      -7.8      1.772      8.048
REMARK  5 active torsions:
REMARK  status: ('A' for Active; 'I' for Inactive)
REMARK    1  A    between atoms: C16_21  and  O2_2 
REMARK    2  A    between atoms: C6_11  and  O2_2 
REMARK    3  A    between atoms: C12_17  and  O3_3 
REMARK    4  A    between atoms: C14_19  and  O4_4 
REMARK    5  A    between atoms: C2_7  and  C4_9 
ROOT
HETATM    1  O1  UNK     1      18.623   7.923  32.947  1.00  0.00    -0.271 OA
HETATM    2  O5  UNK     1      20.150   6.362  32.298  1.00  0.00    -0.259 OA
HETATM    3  C1  UNK     1      16.254   7.408  32.887  1.00  0.00     0.002 A 
HETATM    4  C2  UNK     1      17.862   5.692  32.229  1.00  0.00     0.051 A 
HETATM    5  C3  UNK     1      17.283   8.304  33.144  1.00  0.00     0.123 A 
HETATM    6  C5  UNK     1      16.588   6.074  32.421  1.00  0.00     0.032 A 
HETATM    7  C6  UNK     1      17.035   9.599  33.595  1.00  0.00     0.103 A 
HETATM    8  C7  UNK     1      18.974   6.656  32.486  1.00  0.00     0.299 A 
HETATM    9  C8  UNK     1      14.935   7.821  33.091  1.00  0.00     0.014 A 
HETATM   10  C11 UNK     1      15.718  10.004  33.796  1.00  0.00     0.040 A 
HETATM   11  C13 UNK     1      14.669   9.117  33.543  1.00  0.00     0.004 A 
ENDROOT
BRANCH   4  12
HETATM   12  C4  UNK     1      18.199   4.367  31.771  1.00  0.00    -0.017 A 
HETATM   13  C10 UNK     1      18.524   4.154  30.432  1.00  0.00     0.015 A 
HETATM   14  C15 UNK     1      18.851   2.872  29.989  1.00  0.00     0.040 A 
HETATM   15  C14 UNK     1      18.852   1.805  30.885  1.00  0.00     0.101 A 
HETATM   16  C12 UNK     1      18.526   2.018  32.225  1.00  0.00     0.102 A 
HETATM   17  C9  UNK     1      18.200   3.299  32.668  1.00  0.00     0.052 A 
BRANCH  15  18
HETATM   18  O4  UNK     1      19.172   0.557  30.441  1.00  0.00    -0.353 OA
HETATM   19  C19 UNK     1      19.618   0.445  29.090  1.00  0.00     0.210 C 
ENDBRANCH  15  18
BRANCH  16  20
HETATM   20  O3  UNK     1      18.524   0.982  33.110  1.00  0.00    -0.353 OA
HETATM   21  C18 UNK     1      18.139   1.277  34.451  1.00  0.00     0.210 C 
ENDBRANCH  16  20
ENDBRANCH   4  12
BRANCH   7  22
HETATM   22  O2  UNK     1      18.055  10.466  33.841  1.00  0.00    -0.349 OA
BRANCH  22  23
HETATM   23  C16 UNK     1      17.700  11.792  34.233  1.00  0.00     0.171 C 
HETATM   24  C17 UNK     1      18.548  12.778  33.457  1.00  0.00     0.034 C 
ENDBRANCH  22  23
ENDBRANCH   7  22
TORSDOF 5
ENDMDL
MODEL 9
REMARK VINA RESULT:      -7.8      2.270      8.521
REMARK  5 active torsions:
REMARK  status: ('A' for Active; 'I' for Inactive)
REMARK    1  A    between atoms: C16_21  and  O2_2 
REMARK    2  A    between atoms: C6_11  and  O2_2 
REMARK    3  A    between atoms: C12_17  and  O3_3 
REMARK    4  A    between atoms: C14_19  and  O4_4 
REMARK    5  A    between atoms: C2_7  and  C4_9 
ROOT
HETATM    1  O1  UNK     1      17.910   9.404  33.951  1.00  0.00    -0.271 OA
HETATM    2  O5  UNK     1      19.552   7.887  33.512  1.00  0.00    -0.259 OA
HETATM    3  C1  UNK     1      15.707   9.131  32.977  1.00  0.00     0.002 A 
HETATM    4  C2  UNK     1      17.425   7.457  32.521  1.00  0.00     0.051 A 
HETATM    5  C3  UNK     1      16.590   9.854  33.766  1.00  0.00     0.123 A 
HETATM    6  C5  UNK     1      16.168   7.902  32.355  1.00  0.00     0.032 A 
HETATM    7  C6  UNK     1      16.213  11.040  34.395  1.00  0.00     0.103 A 
HETATM    8  C7  UNK     1      18.387   8.239  33.355  1.00  0.00     0.299 A 
HETATM    9  C8  UNK     1      14.403   9.608  32.813  1.00  0.00     0.014 A 
HETATM   10  C11 UNK     1      14.913  11.509  34.227  1.00  0.00     0.040 A 
HETATM   11  C13 UNK     1      14.009  10.796  33.436  1.00  0.00     0.004 A 
ENDROOT
BRANCH   4  12
HETATM   12  C4  UNK     1      17.887   6.236  31.910  1.00  0.00    -0.017 A 
HETATM   13  C10 UNK     1      18.596   6.282  30.710  1.00  0.00     0.015 A 
HETATM   14  C15 UNK     1      19.044   5.100  30.119  1.00  0.00     0.040 A 
HETATM   15  C14 UNK     1      18.782   3.874  30.728  1.00  0.00     0.101 A 
HETATM   16  C12 UNK     1      18.073   3.828  31.928  1.00  0.00     0.102 A 
HETATM   17  C9  UNK     1      17.625   5.008  32.519  1.00  0.00     0.052 A 
BRANCH  15  18
HETATM   18  O4  UNK     1      19.224   2.726  30.140  1.00  0.00    -0.353 OA
HETATM   19  C19 UNK     1      18.395   2.154  29.131  1.00  0.00     0.210 C 
ENDBRANCH  15  18
BRANCH  16  20
HETATM   20  O3  UNK     1      17.811   2.635  32.532  1.00  0.00    -0.353 OA
HETATM   21  C18 UNK     1      18.195   2.503  33.900  1.00  0.00     0.210 C 
ENDBRANCH  16  20
ENDBRANCH   4  12
BRANCH   7  22
HETATM   22  O2  UNK     1      17.091  11.738  35.165  1.00  0.00    -0.349 OA
BRANCH  22  23
HETATM   23  C16 UNK     1      17.325  13.101  34.811  1.00  0.00     0.171 C 
HETATM   24  C17 UNK     1      18.291  13.148  33.646  1.00  0.00     0.034 C 
ENDBRANCH  22  23
ENDBRANCH   7  22
TORSDOF 5
ENDMDL
MODEL 10
REMARK VINA RESULT:      -7.7      1.340      2.349
REMARK  5 active torsions:
REMARK  status: ('A' for Active; 'I' for Inactive)
REMARK    1  A    between atoms: C16_21  and  O2_2 
REMARK    2  A    between atoms: C6_11  and  O2_2 
REMARK    3  A    between atoms: C12_17  and  O3_3 
REMARK    4  A    between atoms: C14_19  and  O4_4 
REMARK    5  A    between atoms: C2_7  and  C4_9 
ROOT
HETATM    1  O1  UNK     1      18.894   2.690  31.020  1.00  0.00    -0.271 OA
HETATM    2  O5  UNK     1      18.914   4.856  30.312  1.00  0.00    -0.259 OA
HETATM    3  C1  UNK     1      18.288   2.161  33.308  1.00  0.00     0.002 A 
HETATM    4  C2  UNK     1      18.250   4.490  32.575  1.00  0.00     0.051 A 
HETATM    5  C3  UNK     1      18.695   1.749  32.046  1.00  0.00     0.123 A 
HETATM    6  C5  UNK     1      18.065   3.577  33.543  1.00  0.00     0.032 A 
HETATM    7  C6  UNK     1      18.924   0.406  31.750  1.00  0.00     0.103 A 
HETATM    8  C7  UNK     1      18.705   4.056  31.219  1.00  0.00     0.299 A 
HETATM    9  C8  UNK     1      18.103   1.199  34.304  1.00  0.00     0.014 A 
HETATM   10  C11 UNK     1      18.738  -0.547  32.748  1.00  0.00     0.040 A 
HETATM   11  C13 UNK     1      18.328  -0.151  34.024  1.00  0.00     0.004 A 
ENDROOT
BRANCH   4  12
HETATM   12  C4  UNK     1      18.026   5.896  32.802  1.00  0.00    -0.017 A 
HETATM   13  C10 UNK     1      17.020   6.563  32.103  1.00  0.00     0.015 A 
HETATM   14  C15 UNK     1      16.803   7.924  32.323  1.00  0.00     0.040 A 
HETATM   15  C14 UNK     1      17.592   8.616  33.241  1.00  0.00     0.101 A 
HETATM   16  C12 UNK     1      18.598   7.948  33.940  1.00  0.00     0.102 A 
HETATM   17  C9  UNK     1      18.815   6.589  33.720  1.00  0.00     0.052 A 
BRANCH  15  18
HETATM   18  O4  UNK     1      17.370   9.944  33.447  1.00  0.00    -0.353 OA
HETATM   19  C19 UNK     1      16.234  10.297  34.233  1.00  0.00     0.210 C 
ENDBRANCH  15  18
BRANCH  16  20
HETATM   20  O3  UNK     1      19.374   8.614  34.840  1.00  0.00    -0.353 OA
HETATM   21  C18 UNK     1      20.522   9.291  34.330  1.00  0.00     0.210 C 
ENDBRANCH  16  20
ENDBRANCH   4  12
BRANCH   7  22
HETATM   22  O2  UNK     1      19.324   0.017  30.509  1.00  0.00    -0.349 OA
BRANCH  22  23
HETATM   23  C16 UNK     1      20.596  -0.622  30.407  1.00  0.00     0.171 C 
HETATM   24  C17 UNK     1      20.415  -1.978  29.756  1.00  0.00     0.034 C 
ENDBRANCH  22  23
ENDBRANCH   7  22
TORSDOF 5
ENDMDL
