MODEL 1
REMARK VINA RESULT:      -9.0      0.000      0.000
REMARK  4 active torsions:
REMARK  status: ('A' for Active; 'I' for Inactive)
REMARK    1  A    between atoms: C10_17  and  O2_4 
REMARK    2  A    between atoms: C11_18  and  O2_4 
REMARK    3  A    between atoms: C13_20  and  O3_5 
REMARK    4  A    between atoms: C10_17  and  C4_11 
ROOT
HETATM    1 Br1  UNK     1      20.158  -3.319  37.213  1.00  0.00    -0.048 Br
HETATM    2 Br2  UNK     1      16.150   0.667  36.715  1.00  0.00    -0.051 Br
HETATM    3  O1  UNK     1      20.453  -2.792  34.199  1.00  0.00    -0.273 OA
HETATM    4  O4  UNK     1      21.652  -3.450  32.368  1.00  0.00    -0.259 OA
HETATM    5  C1  UNK     1      18.741  -1.082  33.963  1.00  0.00     0.002 A 
HETATM    6  C2  UNK     1      19.449  -1.977  34.758  1.00  0.00     0.107 A 
HETATM    7  C3  UNK     1      19.055  -1.000  32.544  1.00  0.00     0.038 A 
HETATM    8  C4  UNK     1      20.010  -1.777  32.019  1.00  0.00     0.116 A 
HETATM    9  C5  UNK     1      17.753  -0.291  34.554  1.00  0.00     0.033 A 
HETATM   10  C6  UNK     1      19.198  -2.103  36.123  1.00  0.00     0.047 A 
HETATM   11  C7  UNK     1      20.775  -2.737  32.846  1.00  0.00     0.304 A 
HETATM   12  C8  UNK     1      17.489  -0.406  35.921  1.00  0.00     0.013 A 
HETATM   13  C9  UNK     1      18.211  -1.311  36.704  1.00  0.00     0.041 A 
ENDROOT
BRANCH   8  14
HETATM   14  C10 UNK     1      20.252  -1.623  30.580  1.00  0.00     0.304 C 
HETATM   15  O5  UNK     1      20.023  -2.497  29.760  1.00  0.00    -0.259 OA
BRANCH  14  16
HETATM   16  O2  UNK     1      20.761  -0.356  30.366  1.00  0.00    -0.275 OA
BRANCH  16  17
HETATM   17  C11 UNK     1      19.791   0.538  29.906  1.00  0.00     0.082 A 
HETATM   18  C12 UNK     1      19.493   1.644  30.671  1.00  0.00     0.074 A 
HETATM   19  C13 UNK     1      18.526   2.536  30.208  1.00  0.00     0.070 A 
HETATM   20  C15 UNK     1      17.883   2.301  28.994  1.00  0.00     0.037 A 
HETATM   21  C16 UNK     1      18.206   1.172  28.241  1.00  0.00     0.005 A 
HETATM   22  C14 UNK     1      19.173   0.278  28.702  1.00  0.00     0.037 A 
BRANCH  19  23
HETATM   23  O3  UNK     1      18.210   3.638  30.942  1.00  0.00    -0.356 OA
HETATM   24  C17 UNK     1      18.962   4.824  30.688  1.00  0.00     0.210 C 
ENDBRANCH  19  23
ENDBRANCH  16  17
ENDBRANCH  14  16
ENDBRANCH   8  14
TORSDOF 4
ENDMDL
MODEL 2
REMARK VINA RESULT:      -8.5      3.921      6.530
REMARK  4 active torsions:
REMARK  status: ('A' for Active; 'I' for Inactive)
REMARK    1  A    between atoms: C10_17  and  O2_4 
REMARK    2  A    between atoms: C11_18  and  O2_4 
REMARK    3  A    between atoms: C13_20  and  O3_5 
REMARK    4  A    between atoms: C10_17  and  C4_11 
ROOT
HETATM    1 Br1  UNK     1      18.891  -1.333  32.096  1.00  0.00    -0.048 Br
HETATM    2 Br2  UNK     1      17.775   0.103  37.470  1.00  0.00    -0.051 Br
HETATM    3  O1  UNK     1      18.629   1.702  31.680  1.00  0.00    -0.273 OA
HETATM    4  O4  UNK     1      18.740   3.310  30.061  1.00  0.00    -0.259 OA
HETATM    5  C1  UNK     1      18.150   2.339  33.976  1.00  0.00     0.002 A 
HETATM    6  C2  UNK     1      18.427   1.358  33.031  1.00  0.00     0.107 A 
HETATM    7  C3  UNK     1      18.074   3.728  33.547  1.00  0.00     0.038 A 
HETATM    8  C4  UNK     1      18.267   4.049  32.263  1.00  0.00     0.116 A 
HETATM    9  C5  UNK     1      17.956   1.960  35.307  1.00  0.00     0.033 A 
HETATM   10  C6  UNK     1      18.514   0.010  33.377  1.00  0.00     0.047 A 
HETATM   11  C7  UNK     1      18.562   3.020  31.240  1.00  0.00     0.304 A 
HETATM   12  C8  UNK     1      18.040   0.612  35.668  1.00  0.00     0.013 A 
HETATM   13  C9  UNK     1      18.319  -0.360  34.705  1.00  0.00     0.041 A 
ENDROOT
BRANCH   8  14
HETATM   14  C10 UNK     1      18.169   5.474  31.929  1.00  0.00     0.304 C 
HETATM   15  O5  UNK     1      18.666   5.968  30.929  1.00  0.00    -0.259 OA
BRANCH  14  16
HETATM   16  O2  UNK     1      17.439   6.096  32.923  1.00  0.00    -0.275 OA
BRANCH  16  17
HETATM   17  C11 UNK     1      18.045   7.272  33.374  1.00  0.00     0.082 A 
HETATM   18  C12 UNK     1      17.336   8.450  33.309  1.00  0.00     0.074 A 
HETATM   19  C13 UNK     1      17.942   9.622  33.762  1.00  0.00     0.070 A 
HETATM   20  C15 UNK     1      19.241   9.585  34.268  1.00  0.00     0.037 A 
HETATM   21  C16 UNK     1      19.935   8.376  34.321  1.00  0.00     0.005 A 
HETATM   22  C14 UNK     1      19.330   7.204  33.868  1.00  0.00     0.037 A 
BRANCH  19  23
HETATM   23  O3  UNK     1      17.266  10.802  33.711  1.00  0.00    -0.356 OA
HETATM   24  C17 UNK     1      17.970  11.971  34.128  1.00  0.00     0.210 C 
ENDBRANCH  19  23
ENDBRANCH  16  17
ENDBRANCH  14  16
ENDBRANCH   8  14
TORSDOF 4
ENDMDL
MODEL 3
REMARK VINA RESULT:      -8.4     10.938     12.886
REMARK  4 active torsions:
REMARK  status: ('A' for Active; 'I' for Inactive)
REMARK    1  A    between atoms: C10_17  and  O2_4 
REMARK    2  A    between atoms: C11_18  and  O2_4 
REMARK    3  A    between atoms: C13_20  and  O3_5 
REMARK    4  A    between atoms: C10_17  and  C4_11 
ROOT
HETATM    1 Br1  UNK     1      29.257  -4.467  38.717  1.00  0.00    -0.048 Br
HETATM    2 Br2  UNK     1      30.820  -9.899  38.219  1.00  0.00    -0.051 Br
HETATM    3  O1  UNK     1      26.459  -5.731  38.874  1.00  0.00    -0.273 OA
HETATM    4  O4  UNK     1      24.252  -5.188  39.101  1.00  0.00    -0.259 OA
HETATM    5  C1  UNK     1      27.106  -8.065  38.662  1.00  0.00     0.002 A 
HETATM    6  C2  UNK     1      27.452  -6.719  38.722  1.00  0.00     0.107 A 
HETATM    7  C3  UNK     1      25.702  -8.436  38.759  1.00  0.00     0.038 A 
HETATM    8  C4  UNK     1      24.764  -7.493  38.903  1.00  0.00     0.116 A 
HETATM    9  C5  UNK     1      28.119  -9.015  38.512  1.00  0.00     0.033 A 
HETATM   10  C6  UNK     1      28.778  -6.297  38.636  1.00  0.00     0.047 A 
HETATM   11  C7  UNK     1      25.109  -6.055  38.968  1.00  0.00     0.304 A 
HETATM   12  C8  UNK     1      29.453  -8.608  38.424  1.00  0.00     0.013 A 
HETATM   13  C9  UNK     1      29.781  -7.252  38.486  1.00  0.00     0.041 A 
ENDROOT
BRANCH   8  14
HETATM   14  C10 UNK     1      23.378  -7.967  38.991  1.00  0.00     0.304 C 
HETATM   15  O5  UNK     1      22.901  -8.475  39.992  1.00  0.00    -0.259 OA
BRANCH  14  16
HETATM   16  O2  UNK     1      22.767  -7.727  37.775  1.00  0.00    -0.275 OA
BRANCH  16  17
HETATM   17  C11 UNK     1      22.297  -8.898  37.174  1.00  0.00     0.082 A 
HETATM   18  C12 UNK     1      23.174  -9.662  36.437  1.00  0.00     0.074 A 
HETATM   19  C13 UNK     1      22.703 -10.831  35.839  1.00  0.00     0.070 A 
HETATM   20  C15 UNK     1      21.369 -11.206  35.994  1.00  0.00     0.037 A 
HETATM   21  C16 UNK     1      20.504 -10.411  36.747  1.00  0.00     0.005 A 
HETATM   22  C14 UNK     1      20.973  -9.241  37.345  1.00  0.00     0.037 A 
BRANCH  19  23
HETATM   23  O3  UNK     1      23.545 -11.608  35.105  1.00  0.00    -0.356 OA
HETATM   24  C17 UNK     1      24.321 -12.573  35.814  1.00  0.00     0.210 C 
ENDBRANCH  19  23
ENDBRANCH  16  17
ENDBRANCH  14  16
ENDBRANCH   8  14
TORSDOF 4
ENDMDL
MODEL 4
REMARK VINA RESULT:      -8.4     15.230     18.336
REMARK  4 active torsions:
REMARK  status: ('A' for Active; 'I' for Inactive)
REMARK    1  A    between atoms: C10_17  and  O2_4 
REMARK    2  A    between atoms: C11_18  and  O2_4 
REMARK    3  A    between atoms: C13_20  and  O3_5 
REMARK    4  A    between atoms: C10_17  and  C4_11 
ROOT
HETATM    1 Br1  UNK     1      18.540  -6.654  11.528  1.00  0.00    -0.048 Br
HETATM    2 Br2  UNK     1      21.593  -2.314   9.519  1.00  0.00    -0.051 Br
HETATM    3  O1  UNK     1      18.161  -4.734  13.898  1.00  0.00    -0.273 OA
HETATM    4  O4  UNK     1      17.149  -4.577  15.940  1.00  0.00    -0.259 OA
HETATM    5  C1  UNK     1      19.464  -2.862  13.057  1.00  0.00     0.002 A 
HETATM    6  C2  UNK     1      18.960  -4.149  12.897  1.00  0.00     0.107 A 
HETATM    7  C3  UNK     1      19.151  -2.130  14.275  1.00  0.00     0.038 A 
HETATM    8  C4  UNK     1      18.392  -2.692  15.222  1.00  0.00     0.116 A 
HETATM    9  C5  UNK     1      20.253  -2.315  12.041  1.00  0.00     0.033 A 
HETATM   10  C6  UNK     1      19.222  -4.902  11.753  1.00  0.00     0.047 A 
HETATM   11  C7  UNK     1      17.846  -4.060  15.074  1.00  0.00     0.304 A 
HETATM   12  C8  UNK     1      20.524  -3.059  10.889  1.00  0.00     0.013 A 
HETATM   13  C9  UNK     1      20.009  -4.349  10.746  1.00  0.00     0.041 A 
ENDROOT
BRANCH   8  14
HETATM   14  C10 UNK     1      18.133  -1.875  16.414  1.00  0.00     0.304 C 
HETATM   15  O5  UNK     1      17.029  -1.750  16.919  1.00  0.00    -0.259 OA
BRANCH  14  16
HETATM   16  O2  UNK     1      19.331  -1.316  16.817  1.00  0.00    -0.275 OA
BRANCH  16  17
HETATM   17  C11 UNK     1      19.167  -0.041  17.363  1.00  0.00     0.082 A 
HETATM   18  C12 UNK     1      18.927   0.075  18.715  1.00  0.00     0.074 A 
HETATM   19  C13 UNK     1      18.766   1.349  19.260  1.00  0.00     0.070 A 
HETATM   20  C15 UNK     1      18.849   2.474  18.440  1.00  0.00     0.037 A 
HETATM   21  C16 UNK     1      19.093   2.325  17.074  1.00  0.00     0.005 A 
HETATM   22  C14 UNK     1      19.254   1.052  16.528  1.00  0.00     0.037 A 
BRANCH  19  23
HETATM   23  O3  UNK     1      18.528   1.495  20.591  1.00  0.00    -0.356 OA
HETATM   24  C17 UNK     1      19.629   1.894  21.406  1.00  0.00     0.210 C 
ENDBRANCH  19  23
ENDBRANCH  16  17
ENDBRANCH  14  16
ENDBRANCH   8  14
TORSDOF 4
ENDMDL
MODEL 5
REMARK VINA RESULT:      -8.3      4.065      7.756
REMARK  4 active torsions:
REMARK  status: ('A' for Active; 'I' for Inactive)
REMARK    1  A    between atoms: C10_17  and  O2_4 
REMARK    2  A    between atoms: C11_18  and  O2_4 
REMARK    3  A    between atoms: C13_20  and  O3_5 
REMARK    4  A    between atoms: C10_17  and  C4_11 
ROOT
HETATM    1 Br1  UNK     1      19.113   5.809  29.362  1.00  0.00    -0.048 Br
HETATM    2 Br2  UNK     1      18.238   8.663  34.187  1.00  0.00    -0.051 Br
HETATM    3  O1  UNK     1      18.635   3.395  31.203  1.00  0.00    -0.273 OA
HETATM    4  O4  UNK     1      18.544   1.112  31.187  1.00  0.00    -0.259 OA
HETATM    5  C1  UNK     1      18.257   4.597  33.282  1.00  0.00     0.002 A 
HETATM    6  C2  UNK     1      18.537   4.604  31.920  1.00  0.00     0.107 A 
HETATM    7  C3  UNK     1      18.065   3.321  33.955  1.00  0.00     0.038 A 
HETATM    8  C4  UNK     1      18.159   2.176  33.269  1.00  0.00     0.116 A 
HETATM    9  C5  UNK     1      18.167   5.816  33.958  1.00  0.00     0.033 A 
HETATM   10  C6  UNK     1      18.731   5.791  31.216  1.00  0.00     0.047 A 
HETATM   11  C7  UNK     1      18.458   2.160  31.819  1.00  0.00     0.304 A 
HETATM   12  C8  UNK     1      18.359   7.015  33.267  1.00  0.00     0.013 A 
HETATM   13  C9  UNK     1      18.640   7.002  31.899  1.00  0.00     0.041 A 
ENDROOT
BRANCH   8  14
HETATM   14  C10 UNK     1      17.951   0.942  34.036  1.00  0.00     0.304 C 
HETATM   15  O5  UNK     1      16.957   0.242  33.930  1.00  0.00    -0.259 OA
BRANCH  14  16
HETATM   16  O2  UNK     1      19.051   0.755  34.850  1.00  0.00    -0.275 OA
BRANCH  16  17
HETATM   17  C11 UNK     1      18.785  -0.109  35.916  1.00  0.00     0.082 A 
HETATM   18  C12 UNK     1      19.210  -1.416  35.830  1.00  0.00     0.074 A 
HETATM   19  C13 UNK     1      18.945  -2.277  36.896  1.00  0.00     0.070 A 
HETATM   20  C15 UNK     1      18.264  -1.808  38.019  1.00  0.00     0.037 A 
HETATM   21  C16 UNK     1      17.847  -0.478  38.076  1.00  0.00     0.005 A 
HETATM   22  C14 UNK     1      18.110   0.383  37.011  1.00  0.00     0.037 A 
BRANCH  19  23
HETATM   23  O3  UNK     1      19.353  -3.574  36.841  1.00  0.00    -0.356 OA
HETATM   24  C17 UNK     1      20.659  -3.865  37.335  1.00  0.00     0.210 C 
ENDBRANCH  19  23
ENDBRANCH  16  17
ENDBRANCH  14  16
ENDBRANCH   8  14
TORSDOF 4
ENDMDL
MODEL 6
REMARK VINA RESULT:      -8.3      9.071     12.210
REMARK  4 active torsions:
REMARK  status: ('A' for Active; 'I' for Inactive)
REMARK    1  A    between atoms: C10_17  and  O2_4 
REMARK    2  A    between atoms: C11_18  and  O2_4 
REMARK    3  A    between atoms: C13_20  and  O3_5 
REMARK    4  A    between atoms: C10_17  and  C4_11 
ROOT
HETATM    1 Br1  UNK     1      29.325  -4.418  38.783  1.00  0.00    -0.048 Br
HETATM    2 Br2  UNK     1      30.980  -9.803  38.103  1.00  0.00    -0.051 Br
HETATM    3  O1  UNK     1      26.547  -5.731  38.863  1.00  0.00    -0.273 OA
HETATM    4  O4  UNK     1      24.328  -5.232  39.086  1.00  0.00    -0.259 OA
HETATM    5  C1  UNK     1      27.233  -8.045  38.573  1.00  0.00     0.002 A 
HETATM    6  C2  UNK     1      27.557  -6.697  38.686  1.00  0.00     0.107 A 
HETATM    7  C3  UNK     1      25.835  -8.442  38.642  1.00  0.00     0.038 A 
HETATM    8  C4  UNK     1      24.880  -7.520  38.810  1.00  0.00     0.116 A 
HETATM    9  C5  UNK     1      28.263  -8.973  38.399  1.00  0.00     0.033 A 
HETATM   10  C6  UNK     1      28.876  -6.252  38.630  1.00  0.00     0.047 A 
HETATM   11  C7  UNK     1      25.201  -6.080  38.931  1.00  0.00     0.304 A 
HETATM   12  C8  UNK     1      29.591  -8.542  38.340  1.00  0.00     0.013 A 
HETATM   13  C9  UNK     1      29.896  -7.184  38.456  1.00  0.00     0.041 A 
ENDROOT
BRANCH   8  14
HETATM   14  C10 UNK     1      23.500  -8.018  38.865  1.00  0.00     0.304 C 
HETATM   15  O5  UNK     1      22.922  -8.286  39.906  1.00  0.00    -0.259 OA
BRANCH  14  16
HETATM   16  O2  UNK     1      23.028  -8.110  37.571  1.00  0.00    -0.275 OA
BRANCH  16  17
HETATM   17  C11 UNK     1      21.707  -8.563  37.516  1.00  0.00     0.082 A 
HETATM   18  C12 UNK     1      20.687  -7.653  37.677  1.00  0.00     0.074 A 
HETATM   19  C13 UNK     1      19.369  -8.107  37.621  1.00  0.00     0.070 A 
HETATM   20  C15 UNK     1      19.106  -9.459  37.403  1.00  0.00     0.037 A 
HETATM   21  C16 UNK     1      20.161 -10.358  37.243  1.00  0.00     0.005 A 
HETATM   22  C14 UNK     1      21.479  -9.905  37.300  1.00  0.00     0.037 A 
BRANCH  19  23
HETATM   23  O3  UNK     1      18.340  -7.231  37.776  1.00  0.00    -0.356 OA
HETATM   24  C17 UNK     1      18.038  -6.382  36.670  1.00  0.00     0.210 C 
ENDBRANCH  19  23
ENDBRANCH  16  17
ENDBRANCH  14  16
ENDBRANCH   8  14
TORSDOF 4
ENDMDL
MODEL 7
REMARK VINA RESULT:      -8.2     24.635     26.794
REMARK  4 active torsions:
REMARK  status: ('A' for Active; 'I' for Inactive)
REMARK    1  A    between atoms: C10_17  and  O2_4 
REMARK    2  A    between atoms: C11_18  and  O2_4 
REMARK    3  A    between atoms: C13_20  and  O3_5 
REMARK    4  A    between atoms: C10_17  and  C4_11 
ROOT
HETATM    1 Br1  UNK     1      19.963  11.873   8.065  1.00  0.00    -0.048 Br
HETATM    2 Br2  UNK     1      15.243  14.535   6.384  1.00  0.00    -0.051 Br
HETATM    3  O1  UNK     1      17.923   9.829   9.119  1.00  0.00    -0.273 OA
HETATM    4  O4  UNK     1      17.784   7.834  10.224  1.00  0.00    -0.259 OA
HETATM    5  C1  UNK     1      15.888  10.952   8.407  1.00  0.00     0.002 A 
HETATM    6  C2  UNK     1      17.276  10.910   8.489  1.00  0.00     0.107 A 
HETATM    7  C3  UNK     1      15.116   9.861   8.982  1.00  0.00     0.038 A 
HETATM    8  C4  UNK     1      15.736   8.837   9.579  1.00  0.00     0.116 A 
HETATM    9  C5  UNK     1      15.282  12.041   7.775  1.00  0.00     0.033 A 
HETATM   10  C6  UNK     1      18.073  11.923   7.958  1.00  0.00     0.047 A 
HETATM   11  C7  UNK     1      17.212   8.772   9.679  1.00  0.00     0.304 A 
HETATM   12  C8  UNK     1      16.068  13.064   7.238  1.00  0.00     0.013 A 
HETATM   13  C9  UNK     1      17.461  13.004   7.330  1.00  0.00     0.041 A 
ENDROOT
BRANCH   8  14
HETATM   14  C10 UNK     1      14.872   7.786  10.129  1.00  0.00     0.304 C 
HETATM   15  O5  UNK     1      14.245   7.905  11.169  1.00  0.00    -0.259 OA
BRANCH  14  16
HETATM   16  O2  UNK     1      14.915   6.705   9.270  1.00  0.00    -0.275 OA
BRANCH  16  17
HETATM   17  C11 UNK     1      13.646   6.327   8.823  1.00  0.00     0.082 A 
HETATM   18  C12 UNK     1      13.186   6.835   7.629  1.00  0.00     0.074 A 
HETATM   19  C13 UNK     1      11.920   6.455   7.183  1.00  0.00     0.070 A 
HETATM   20  C15 UNK     1      11.148   5.577   7.943  1.00  0.00     0.037 A 
HETATM   21  C16 UNK     1      11.641   5.079   9.149  1.00  0.00     0.005 A 
HETATM   22  C14 UNK     1      12.906   5.459   9.596  1.00  0.00     0.037 A 
BRANCH  19  23
HETATM   23  O3  UNK     1      11.439   6.939   6.007  1.00  0.00    -0.356 OA
HETATM   24  C17 UNK     1      10.131   6.519   5.619  1.00  0.00     0.210 C 
ENDBRANCH  19  23
ENDBRANCH  16  17
ENDBRANCH  14  16
ENDBRANCH   8  14
TORSDOF 4
ENDMDL
MODEL 8
REMARK VINA RESULT:      -8.2     13.752     16.741
REMARK  4 active torsions:
REMARK  status: ('A' for Active; 'I' for Inactive)
REMARK    1  A    between atoms: C10_17  and  O2_4 
REMARK    2  A    between atoms: C11_18  and  O2_4 
REMARK    3  A    between atoms: C13_20  and  O3_5 
REMARK    4  A    between atoms: C10_17  and  C4_11 
ROOT
HETATM    1 Br1  UNK     1      15.832  -6.808  15.291  1.00  0.00    -0.048 Br
HETATM    2 Br2  UNK     1      21.190  -7.227  13.472  1.00  0.00    -0.051 Br
HETATM    3  O1  UNK     1      16.759  -3.976  16.044  1.00  0.00    -0.273 OA
HETATM    4  O4  UNK     1      16.016  -2.033  16.989  1.00  0.00    -0.259 OA
HETATM    5  C1  UNK     1      19.059  -4.133  15.272  1.00  0.00     0.002 A 
HETATM    6  C2  UNK     1      17.805  -4.709  15.450  1.00  0.00     0.107 A 
HETATM    7  C3  UNK     1      19.272  -2.761  15.708  1.00  0.00     0.038 A 
HETATM    8  C4  UNK     1      18.275  -2.071  16.273  1.00  0.00     0.116 A 
HETATM    9  C5  UNK     1      20.071  -4.891  14.678  1.00  0.00     0.033 A 
HETATM   10  C6  UNK     1      17.536  -6.017  15.052  1.00  0.00     0.047 A 
HETATM   11  C7  UNK     1      16.933  -2.663  16.473  1.00  0.00     0.304 A 
HETATM   12  C8  UNK     1      19.816  -6.205  14.274  1.00  0.00     0.013 A 
HETATM   13  C9  UNK     1      18.551  -6.766  14.462  1.00  0.00     0.041 A 
ENDROOT
BRANCH   8  14
HETATM   14  C10 UNK     1      18.588  -0.696  16.681  1.00  0.00     0.304 C 
HETATM   15  O5  UNK     1      19.255   0.072  16.006  1.00  0.00    -0.259 OA
BRANCH  14  16
HETATM   16  O2  UNK     1      18.003  -0.473  17.912  1.00  0.00    -0.275 OA
BRANCH  16  17
HETATM   17  C11 UNK     1      18.716   0.449  18.682  1.00  0.00     0.082 A 
HETATM   18  C12 UNK     1      18.806   1.751  18.243  1.00  0.00     0.074 A 
HETATM   19  C13 UNK     1      19.517   2.671  19.014  1.00  0.00     0.070 A 
HETATM   20  C15 UNK     1      20.119   2.264  20.205  1.00  0.00     0.037 A 
HETATM   21  C16 UNK     1      20.011   0.938  20.624  1.00  0.00     0.005 A 
HETATM   22  C14 UNK     1      19.301   0.018  19.853  1.00  0.00     0.037 A 
BRANCH  19  23
HETATM   23  O3  UNK     1      19.622   3.964  18.607  1.00  0.00    -0.356 OA
HETATM   24  C17 UNK     1      20.939   4.493  18.462  1.00  0.00     0.210 C 
ENDBRANCH  19  23
ENDBRANCH  16  17
ENDBRANCH  14  16
ENDBRANCH   8  14
TORSDOF 4
ENDMDL
MODEL 9
REMARK VINA RESULT:      -8.1      4.433      8.634
REMARK  4 active torsions:
REMARK  status: ('A' for Active; 'I' for Inactive)
REMARK    1  A    between atoms: C10_17  and  O2_4 
REMARK    2  A    between atoms: C11_18  and  O2_4 
REMARK    3  A    between atoms: C13_20  and  O3_5 
REMARK    4  A    between atoms: C10_17  and  C4_11 
ROOT
HETATM    1 Br1  UNK     1      17.803   1.455  34.073  1.00  0.00    -0.048 Br
HETATM    2 Br2  UNK     1      20.370  -1.111  29.711  1.00  0.00    -0.051 Br
HETATM    3  O1  UNK     1      18.779  -1.049  35.566  1.00  0.00    -0.273 OA
HETATM    4  O4  UNK     1      18.768  -2.030  37.629  1.00  0.00    -0.259 OA
HETATM    5  C1  UNK     1      19.885  -2.165  33.711  1.00  0.00     0.002 A 
HETATM    6  C2  UNK     1      19.161  -1.088  34.211  1.00  0.00     0.107 A 
HETATM    7  C3  UNK     1      20.242  -3.252  34.612  1.00  0.00     0.038 A 
HETATM    8  C4  UNK     1      19.876  -3.209  35.898  1.00  0.00     0.116 A 
HETATM    9  C5  UNK     1      20.246  -2.168  32.362  1.00  0.00     0.033 A 
HETATM   10  C6  UNK     1      18.788  -0.016  33.401  1.00  0.00     0.047 A 
HETATM   11  C7  UNK     1      19.104  -2.073  36.451  1.00  0.00     0.304 A 
HETATM   12  C8  UNK     1      19.879  -1.101  31.538  1.00  0.00     0.013 A 
HETATM   13  C9  UNK     1      19.152  -0.028  32.057  1.00  0.00     0.041 A 
ENDROOT
BRANCH   8  14
HETATM   14  C10 UNK     1      20.282  -4.351  36.726  1.00  0.00     0.304 C 
HETATM   15  O5  UNK     1      21.307  -4.373  37.387  1.00  0.00    -0.259 OA
BRANCH  14  16
HETATM   16  O2  UNK     1      19.316  -5.331  36.604  1.00  0.00    -0.275 OA
BRANCH  16  17
HETATM   17  C11 UNK     1      19.864  -6.596  36.383  1.00  0.00     0.082 A 
HETATM   18  C12 UNK     1      19.899  -7.494  37.427  1.00  0.00     0.074 A 
HETATM   19  C13 UNK     1      20.446  -8.759  37.204  1.00  0.00     0.070 A 
HETATM   20  C15 UNK     1      20.943  -9.092  35.944  1.00  0.00     0.037 A 
HETATM   21  C16 UNK     1      20.893  -8.160  34.906  1.00  0.00     0.005 A 
HETATM   22  C14 UNK     1      20.347  -6.896  35.128  1.00  0.00     0.037 A 
BRANCH  19  23
HETATM   23  O3  UNK     1      20.494  -9.667  38.215  1.00  0.00    -0.356 OA
HETATM   24  C17 UNK     1      21.082  -9.241  39.443  1.00  0.00     0.210 C 
ENDBRANCH  19  23
ENDBRANCH  16  17
ENDBRANCH  14  16
ENDBRANCH   8  14
TORSDOF 4
ENDMDL
MODEL 10
REMARK VINA RESULT:      -8.0     10.478     12.798
REMARK  4 active torsions:
REMARK  status: ('A' for Active; 'I' for Inactive)
REMARK    1  A    between atoms: C10_17  and  O2_4 
REMARK    2  A    between atoms: C11_18  and  O2_4 
REMARK    3  A    between atoms: C13_20  and  O3_5 
REMARK    4  A    between atoms: C10_17  and  C4_11 
ROOT
HETATM    1 Br1  UNK     1      29.543  -4.111  39.295  1.00  0.00    -0.048 Br
HETATM    2 Br2  UNK     1      31.776  -9.106  37.792  1.00  0.00    -0.051 Br
HETATM    3  O1  UNK     1      26.913  -5.651  38.895  1.00  0.00    -0.273 OA
HETATM    4  O4  UNK     1      24.645  -5.397  39.013  1.00  0.00    -0.259 OA
HETATM    5  C1  UNK     1      27.848  -7.800  38.249  1.00  0.00     0.002 A 
HETATM    6  C2  UNK     1      28.025  -6.475  38.633  1.00  0.00     0.107 A 
HETATM    7  C3  UNK     1      26.495  -8.322  38.124  1.00  0.00     0.038 A 
HETATM    8  C4  UNK     1      25.443  -7.535  38.373  1.00  0.00     0.116 A 
HETATM    9  C5  UNK     1      28.975  -8.586  37.998  1.00  0.00     0.033 A 
HETATM   10  C6  UNK     1      29.293  -5.915  38.772  1.00  0.00     0.047 A 
HETATM   11  C7  UNK     1      25.607  -6.121  38.782  1.00  0.00     0.304 A 
HETATM   12  C8  UNK     1      30.254  -8.038  38.134  1.00  0.00     0.013 A 
HETATM   13  C9  UNK     1      30.412  -6.705  38.520  1.00  0.00     0.041 A 
ENDROOT
BRANCH   8  14
HETATM   14  C10 UNK     1      24.120  -8.152  38.218  1.00  0.00     0.304 C 
HETATM   15  O5  UNK     1      23.702  -8.593  37.160  1.00  0.00    -0.259 OA
BRANCH  14  16
HETATM   16  O2  UNK     1      23.491  -8.128  39.448  1.00  0.00    -0.275 OA
BRANCH  16  17
HETATM   17  C11 UNK     1      22.104  -8.000  39.336  1.00  0.00     0.082 A 
HETATM   18  C12 UNK     1      21.352  -9.130  39.104  1.00  0.00     0.074 A 
HETATM   19  C13 UNK     1      19.967  -9.002  38.994  1.00  0.00     0.070 A 
HETATM   20  C15 UNK     1      19.371  -7.747  39.119  1.00  0.00     0.037 A 
HETATM   21  C16 UNK     1      20.160  -6.620  39.354  1.00  0.00     0.005 A 
HETATM   22  C14 UNK     1      21.544  -6.748  39.464  1.00  0.00     0.037 A 
BRANCH  19  23
HETATM   23  O3  UNK     1      19.197 -10.099  38.766  1.00  0.00    -0.356 OA
HETATM   24  C17 UNK     1      19.710 -11.074  37.857  1.00  0.00     0.210 C 
ENDBRANCH  19  23
ENDBRANCH  16  17
ENDBRANCH  14  16
ENDBRANCH   8  14
TORSDOF 4
ENDMDL
