MODEL 1
REMARK VINA RESULT:      -9.2      0.000      0.000
REMARK  5 active torsions:
REMARK  status: ('A' for Active; 'I' for Inactive)
REMARK    1  A    between atoms: C18_23  and  O2_2 
REMARK    2  A    between atoms: C9_14  and  O2_2 
REMARK    3  A    between atoms: C21_26  and  O4_4 
REMARK    4  A    between atoms: C3_8  and  C5_10 
REMARK    5  A    between atoms: C17_22  and  C18_23 
ROOT
HETATM    1  O1  UNK     1      19.049   4.252  29.705  1.00  0.00    -0.274 OA
HETATM    2  O3  UNK     1      19.103   6.523  29.813  1.00  0.00    -0.259 OA
HETATM    3  C1  UNK     1      18.519   4.198  32.490  1.00  0.00    -0.032 A 
HETATM    4  C2  UNK     1      18.627   2.944  31.715  1.00  0.00     0.007 A 
HETATM    5  C3  UNK     1      18.676   5.379  31.853  1.00  0.00     0.057 A 
HETATM    6  C4  UNK     1      18.888   3.015  30.349  1.00  0.00     0.090 A 
HETATM    7  C6  UNK     1      18.481   1.664  32.273  1.00  0.00     0.052 A 
HETATM    8  C7  UNK     1      18.233   4.073  33.969  1.00  0.00     0.050 C 
HETATM    9  C8  UNK     1      18.957   5.450  30.392  1.00  0.00     0.300 A 
HETATM   10  C9  UNK     1      18.594   0.514  31.482  1.00  0.00     0.080 A 
HETATM   11  C10 UNK     1      19.005   1.878  29.545  1.00  0.00     0.041 A 
HETATM   12  C11 UNK     1      18.856   0.621  30.119  1.00  0.00     0.040 A 
ENDROOT
BRANCH  10  13
HETATM   13  O2  UNK     1      18.448  -0.716  32.050  1.00  0.00    -0.275 OA
BRANCH  13  14
HETATM   14  C18 UNK     1      19.613  -1.240  32.647  1.00  0.00     0.298 C 
HETATM   15  O5  UNK     1      20.665  -1.403  32.038  1.00  0.00    -0.259 OA
BRANCH  14  16
HETATM   16  C17 UNK     1      19.405  -1.557  34.062  1.00  0.00     0.042 A 
HETATM   17  C19 UNK     1      18.401  -0.909  34.772  1.00  0.00     0.054 A 
HETATM   18  C21 UNK     1      18.203  -1.211  36.119  1.00  0.00     0.069 A 
HETATM   19  C23 UNK     1      19.011  -2.160  36.747  1.00  0.00     0.037 A 
HETATM   20  C22 UNK     1      20.016  -2.806  36.027  1.00  0.00     0.004 A 
HETATM   21  C20 UNK     1      20.214  -2.504  34.680  1.00  0.00     0.018 A 
BRANCH  18  22
HETATM   22  O4  UNK     1      17.222  -0.581  36.822  1.00  0.00    -0.356 OA
HETATM   23  C24 UNK     1      17.633   0.393  37.780  1.00  0.00     0.210 C 
ENDBRANCH  18  22
ENDBRANCH  14  16
ENDBRANCH  13  14
ENDBRANCH  10  13
BRANCH   5  24
HETATM   24  C5  UNK     1      18.577   6.641  32.584  1.00  0.00    -0.019 A 
HETATM   25  C12 UNK     1      17.391   7.367  32.550  1.00  0.00     0.012 A 
HETATM   26  C14 UNK     1      17.295   8.570  33.249  1.00  0.00     0.001 A 
HETATM   27  C16 UNK     1      18.387   9.040  33.981  1.00  0.00     0.000 A 
HETATM   28  C15 UNK     1      19.573   8.308  34.011  1.00  0.00     0.001 A 
HETATM   29  C13 UNK     1      19.668   7.104  33.312  1.00  0.00     0.012 A 
ENDBRANCH   5  24
TORSDOF 5
ENDMDL
MODEL 2
REMARK VINA RESULT:      -9.2      3.084      9.054
REMARK  5 active torsions:
REMARK  status: ('A' for Active; 'I' for Inactive)
REMARK    1  A    between atoms: C18_23  and  O2_2 
REMARK    2  A    between atoms: C9_14  and  O2_2 
REMARK    3  A    between atoms: C21_26  and  O4_4 
REMARK    4  A    between atoms: C3_8  and  C5_10 
REMARK    5  A    between atoms: C17_22  and  C18_23 
ROOT
HETATM    1  O1  UNK     1      18.059   2.887  33.544  1.00  0.00    -0.274 OA
HETATM    2  O3  UNK     1      18.439   0.735  32.914  1.00  0.00    -0.259 OA
HETATM    3  C1  UNK     1      18.643   3.697  30.891  1.00  0.00    -0.032 A 
HETATM    4  C2  UNK     1      18.283   4.691  31.925  1.00  0.00     0.007 A 
HETATM    5  C3  UNK     1      18.691   2.389  31.227  1.00  0.00     0.057 A 
HETATM    6  C4  UNK     1      18.003   4.250  33.216  1.00  0.00     0.090 A 
HETATM    7  C6  UNK     1      18.203   6.072  31.688  1.00  0.00     0.052 A 
HETATM    8  C7  UNK     1      18.937   4.220  29.504  1.00  0.00     0.050 C 
HETATM    9  C8  UNK     1      18.392   1.923  32.609  1.00  0.00     0.300 A 
HETATM   10  C9  UNK     1      17.854   6.962  32.712  1.00  0.00     0.080 A 
HETATM   11  C10 UNK     1      17.655   5.123  34.250  1.00  0.00     0.041 A 
HETATM   12  C11 UNK     1      17.581   6.487  33.993  1.00  0.00     0.040 A 
ENDROOT
BRANCH  10  13
HETATM   13  O2  UNK     1      17.784   8.298  32.454  1.00  0.00    -0.275 OA
BRANCH  13  14
HETATM   14  C18 UNK     1      16.493   8.780  32.154  1.00  0.00     0.298 C 
HETATM   15  O5  UNK     1      15.923   8.560  31.091  1.00  0.00    -0.259 OA
BRANCH  14  16
HETATM   16  C17 UNK     1      15.933   9.561  33.260  1.00  0.00     0.042 A 
HETATM   17  C19 UNK     1      16.662  10.616  33.795  1.00  0.00     0.054 A 
HETATM   18  C21 UNK     1      16.130  11.360  34.847  1.00  0.00     0.069 A 
HETATM   19  C23 UNK     1      14.870  11.043  35.358  1.00  0.00     0.037 A 
HETATM   20  C22 UNK     1      14.145   9.982  34.815  1.00  0.00     0.004 A 
HETATM   21  C20 UNK     1      14.678   9.238  33.763  1.00  0.00     0.018 A 
BRANCH  18  22
HETATM   22  O4  UNK     1      16.837  12.396  35.377  1.00  0.00    -0.356 OA
HETATM   23  C24 UNK     1      18.006  12.811  34.671  1.00  0.00     0.210 C 
ENDBRANCH  18  22
ENDBRANCH  14  16
ENDBRANCH  13  14
ENDBRANCH  10  13
BRANCH   5  24
HETATM   24  C5  UNK     1      19.044   1.377  30.233  1.00  0.00    -0.019 A 
HETATM   25  C12 UNK     1      18.240   1.202  29.111  1.00  0.00     0.012 A 
HETATM   26  C14 UNK     1      18.576   0.236  28.161  1.00  0.00     0.001 A 
HETATM   27  C16 UNK     1      19.716  -0.548  28.339  1.00  0.00     0.000 A 
HETATM   28  C15 UNK     1      20.518  -0.367  29.465  1.00  0.00     0.001 A 
HETATM   29  C13 UNK     1      20.182   0.598  30.414  1.00  0.00     0.012 A 
ENDBRANCH   5  24
TORSDOF 5
ENDMDL
MODEL 3
REMARK VINA RESULT:      -9.1      4.176     11.361
REMARK  5 active torsions:
REMARK  status: ('A' for Active; 'I' for Inactive)
REMARK    1  A    between atoms: C18_23  and  O2_2 
REMARK    2  A    between atoms: C9_14  and  O2_2 
REMARK    3  A    between atoms: C21_26  and  O4_4 
REMARK    4  A    between atoms: C3_8  and  C5_10 
REMARK    5  A    between atoms: C17_22  and  C18_23 
ROOT
HETATM    1  O1  UNK     1      20.440  -4.754  38.304  1.00  0.00    -0.274 OA
HETATM    2  O3  UNK     1      20.623  -6.739  39.399  1.00  0.00    -0.259 OA
HETATM    3  C1  UNK     1      20.178  -6.192  35.875  1.00  0.00    -0.032 A 
HETATM    4  C2  UNK     1      20.145  -4.714  35.888  1.00  0.00     0.007 A 
HETATM    5  C3  UNK     1      20.335  -6.855  37.042  1.00  0.00     0.057 A 
HETATM    6  C4  UNK     1      20.277  -4.047  37.103  1.00  0.00     0.090 A 
HETATM    7  C6  UNK     1      19.986  -3.926  34.737  1.00  0.00     0.052 A 
HETATM    8  C7  UNK     1      20.029  -6.875  34.535  1.00  0.00     0.050 C 
HETATM    9  C8  UNK     1      20.477  -6.137  38.339  1.00  0.00     0.300 A 
HETATM   10  C9  UNK     1      19.962  -2.527  34.818  1.00  0.00     0.080 A 
HETATM   11  C10 UNK     1      20.256  -2.653  37.202  1.00  0.00     0.041 A 
HETATM   12  C11 UNK     1      20.098  -1.892  36.050  1.00  0.00     0.040 A 
ENDROOT
BRANCH  10  13
HETATM   13  O2  UNK     1      19.807  -1.786  33.685  1.00  0.00    -0.275 OA
BRANCH  13  14
HETATM   14  C18 UNK     1      20.556  -2.228  32.576  1.00  0.00     0.298 C 
HETATM   15  O5  UNK     1      21.335  -3.174  32.624  1.00  0.00    -0.259 OA
BRANCH  14  16
HETATM   16  C17 UNK     1      20.286  -1.425  31.381  1.00  0.00     0.042 A 
HETATM   17  C19 UNK     1      19.478  -0.298  31.478  1.00  0.00     0.054 A 
HETATM   18  C21 UNK     1      19.221   0.467  30.341  1.00  0.00     0.069 A 
HETATM   19  C23 UNK     1      19.774   0.099  29.113  1.00  0.00     0.037 A 
HETATM   20  C22 UNK     1      20.584  -1.033  29.025  1.00  0.00     0.004 A 
HETATM   21  C20 UNK     1      20.841  -1.798  30.162  1.00  0.00     0.018 A 
BRANCH  18  22
HETATM   22  O4  UNK     1      18.432   1.573  30.427  1.00  0.00    -0.356 OA
HETATM   23  C24 UNK     1      17.989   2.152  29.200  1.00  0.00     0.210 C 
ENDBRANCH  18  22
ENDBRANCH  14  16
ENDBRANCH  13  14
ENDBRANCH  10  13
BRANCH   5  24
HETATM   24  C5  UNK     1      20.373  -8.316  37.071  1.00  0.00    -0.019 A 
HETATM   25  C12 UNK     1      21.567  -8.981  36.811  1.00  0.00     0.012 A 
HETATM   26  C14 UNK     1      21.604 -10.375  36.840  1.00  0.00     0.001 A 
HETATM   27  C16 UNK     1      20.446 -11.097  37.129  1.00  0.00     0.000 A 
HETATM   28  C15 UNK     1      19.252 -10.426  37.388  1.00  0.00     0.001 A 
HETATM   29  C13 UNK     1      19.215  -9.031  37.360  1.00  0.00     0.012 A 
ENDBRANCH   5  24
TORSDOF 5
ENDMDL
MODEL 4
REMARK VINA RESULT:      -9.1      2.657      5.418
REMARK  5 active torsions:
REMARK  status: ('A' for Active; 'I' for Inactive)
REMARK    1  A    between atoms: C18_23  and  O2_2 
REMARK    2  A    between atoms: C9_14  and  O2_2 
REMARK    3  A    between atoms: C21_26  and  O4_4 
REMARK    4  A    between atoms: C3_8  and  C5_10 
REMARK    5  A    between atoms: C17_22  and  C18_23 
ROOT
HETATM    1  O1  UNK     1      18.712   8.829  33.460  1.00  0.00    -0.274 OA
HETATM    2  O3  UNK     1      17.912  10.853  34.122  1.00  0.00    -0.259 OA
HETATM    3  C1  UNK     1      16.035   7.920  33.234  1.00  0.00    -0.032 A 
HETATM    4  C2  UNK     1      17.169   7.023  32.924  1.00  0.00     0.007 A 
HETATM    5  C3  UNK     1      16.290   9.187  33.629  1.00  0.00     0.057 A 
HETATM    6  C4  UNK     1      18.468   7.510  33.048  1.00  0.00     0.090 A 
HETATM    7  C6  UNK     1      17.021   5.691  32.507  1.00  0.00     0.052 A 
HETATM    8  C7  UNK     1      14.644   7.351  33.084  1.00  0.00     0.050 C 
HETATM    9  C8  UNK     1      17.681   9.703  33.761  1.00  0.00     0.300 A 
HETATM   10  C9  UNK     1      18.138   4.893  32.228  1.00  0.00     0.080 A 
HETATM   11  C10 UNK     1      19.593   6.728  32.775  1.00  0.00     0.041 A 
HETATM   12  C11 UNK     1      19.423   5.412  32.362  1.00  0.00     0.040 A 
ENDROOT
BRANCH  10  13
HETATM   13  O2  UNK     1      17.965   3.604  31.823  1.00  0.00    -0.275 OA
BRANCH  13  14
HETATM   14  C18 UNK     1      18.512   3.296  30.561  1.00  0.00     0.298 C 
HETATM   15  O5  UNK     1      18.589   4.108  29.645  1.00  0.00    -0.259 OA
BRANCH  14  16
HETATM   16  C17 UNK     1      18.968   1.906  30.489  1.00  0.00     0.042 A 
HETATM   17  C19 UNK     1      18.988   1.128  31.641  1.00  0.00     0.054 A 
HETATM   18  C21 UNK     1      19.423  -0.196  31.573  1.00  0.00     0.069 A 
HETATM   19  C23 UNK     1      19.833  -0.733  30.352  1.00  0.00     0.037 A 
HETATM   20  C22 UNK     1      19.810   0.054  29.201  1.00  0.00     0.004 A 
HETATM   21  C20 UNK     1      19.375   1.378  29.269  1.00  0.00     0.018 A 
BRANCH  18  22
HETATM   22  O4  UNK     1      19.445  -0.964  32.696  1.00  0.00    -0.356 OA
HETATM   23  C24 UNK     1      18.472  -0.677  33.699  1.00  0.00     0.210 C 
ENDBRANCH  18  22
ENDBRANCH  14  16
ENDBRANCH  13  14
ENDBRANCH  10  13
BRANCH   5  24
HETATM   24  C5  UNK     1      15.196  10.104  33.944  1.00  0.00    -0.019 A 
HETATM   25  C12 UNK     1      14.835  10.317  35.270  1.00  0.00     0.012 A 
HETATM   26  C14 UNK     1      13.792  11.193  35.572  1.00  0.00     0.001 A 
HETATM   27  C16 UNK     1      13.117  11.853  34.544  1.00  0.00     0.000 A 
HETATM   28  C15 UNK     1      13.484  11.636  33.217  1.00  0.00     0.001 A 
HETATM   29  C13 UNK     1      14.527  10.760  32.915  1.00  0.00     0.012 A 
ENDBRANCH   5  24
TORSDOF 5
ENDMDL
MODEL 5
REMARK VINA RESULT:      -8.9     23.549     26.437
REMARK  5 active torsions:
REMARK  status: ('A' for Active; 'I' for Inactive)
REMARK    1  A    between atoms: C18_23  and  O2_2 
REMARK    2  A    between atoms: C9_14  and  O2_2 
REMARK    3  A    between atoms: C21_26  and  O4_4 
REMARK    4  A    between atoms: C3_8  and  C5_10 
REMARK    5  A    between atoms: C17_22  and  C18_23 
ROOT
HETATM    1  O1  UNK     1      14.109   4.954   8.978  1.00  0.00    -0.274 OA
HETATM    2  O3  UNK     1      12.324   3.920   8.020  1.00  0.00    -0.259 OA
HETATM    3  C1  UNK     1      12.673   7.396   8.862  1.00  0.00    -0.032 A 
HETATM    4  C2  UNK     1      14.039   7.346   9.424  1.00  0.00     0.007 A 
HETATM    5  C3  UNK     1      12.112   6.257   8.400  1.00  0.00     0.057 A 
HETATM    6  C4  UNK     1      14.709   6.126   9.463  1.00  0.00     0.090 A 
HETATM    7  C6  UNK     1      14.717   8.466   9.932  1.00  0.00     0.052 A 
HETATM    8  C7  UNK     1      11.983   8.740   8.842  1.00  0.00     0.050 C 
HETATM    9  C8  UNK     1      12.833   4.954   8.442  1.00  0.00     0.300 A 
HETATM   10  C9  UNK     1      16.013   8.351  10.453  1.00  0.00     0.080 A 
HETATM   11  C10 UNK     1      16.001   5.994   9.978  1.00  0.00     0.041 A 
HETATM   12  C11 UNK     1      16.654   7.115  10.475  1.00  0.00     0.040 A 
ENDROOT
BRANCH  10  13
HETATM   13  O2  UNK     1      16.647   9.454  10.939  1.00  0.00    -0.275 OA
BRANCH  13  14
HETATM   14  C18 UNK     1      16.131  10.687  10.488  1.00  0.00     0.298 C 
HETATM   15  O5  UNK     1      15.202  11.268  11.039  1.00  0.00    -0.259 OA
BRANCH  14  16
HETATM   16  C17 UNK     1      16.836  11.171   9.299  1.00  0.00     0.042 A 
HETATM   17  C19 UNK     1      18.214  11.014   9.205  1.00  0.00     0.054 A 
HETATM   18  C21 UNK     1      18.886  11.475   8.073  1.00  0.00     0.069 A 
HETATM   19  C23 UNK     1      18.174  12.090   7.043  1.00  0.00     0.037 A 
HETATM   20  C22 UNK     1      16.791  12.244   7.145  1.00  0.00     0.004 A 
HETATM   21  C20 UNK     1      16.120  11.783   8.277  1.00  0.00     0.018 A 
BRANCH  18  22
HETATM   22  O4  UNK     1      20.235  11.324   7.973  1.00  0.00    -0.356 OA
HETATM   23  C24 UNK     1      21.037  12.011   8.932  1.00  0.00     0.210 C 
ENDBRANCH  18  22
ENDBRANCH  14  16
ENDBRANCH  13  14
ENDBRANCH  10  13
BRANCH   5  24
HETATM   24  C5  UNK     1      10.763   6.265   7.836  1.00  0.00    -0.019 A 
HETATM   25  C12 UNK     1       9.663   6.135   8.677  1.00  0.00     0.012 A 
HETATM   26  C14 UNK     1       8.375   6.144   8.140  1.00  0.00     0.001 A 
HETATM   27  C16 UNK     1       8.196   6.284   6.763  1.00  0.00     0.000 A 
HETATM   28  C15 UNK     1       9.302   6.415   5.925  1.00  0.00     0.001 A 
HETATM   29  C13 UNK     1      10.590   6.406   6.463  1.00  0.00     0.012 A 
ENDBRANCH   5  24
TORSDOF 5
ENDMDL
MODEL 6
REMARK VINA RESULT:      -8.9     14.089     16.777
REMARK  5 active torsions:
REMARK  status: ('A' for Active; 'I' for Inactive)
REMARK    1  A    between atoms: C18_23  and  O2_2 
REMARK    2  A    between atoms: C9_14  and  O2_2 
REMARK    3  A    between atoms: C21_26  and  O4_4 
REMARK    4  A    between atoms: C3_8  and  C5_10 
REMARK    5  A    between atoms: C17_22  and  C18_23 
ROOT
HETATM    1  O1  UNK     1      32.556  -3.578  36.071  1.00  0.00    -0.274 OA
HETATM    2  O3  UNK     1      34.340  -3.625  34.661  1.00  0.00    -0.259 OA
HETATM    3  C1  UNK     1      32.750  -6.397  36.305  1.00  0.00    -0.032 A 
HETATM    4  C2  UNK     1      31.703  -5.646  37.030  1.00  0.00     0.007 A 
HETATM    5  C3  UNK     1      33.620  -5.720  35.524  1.00  0.00     0.057 A 
HETATM    6  C4  UNK     1      31.643  -4.262  36.887  1.00  0.00     0.090 A 
HETATM    7  C6  UNK     1      30.748  -6.246  37.867  1.00  0.00     0.052 A 
HETATM    8  C7  UNK     1      32.779  -7.896  36.490  1.00  0.00     0.050 C 
HETATM    9  C8  UNK     1      33.551  -4.240  35.373  1.00  0.00     0.300 A 
HETATM   10  C9  UNK     1      29.782  -5.477  38.528  1.00  0.00     0.080 A 
HETATM   11  C10 UNK     1      30.685  -3.480  37.538  1.00  0.00     0.041 A 
HETATM   12  C11 UNK     1      29.750  -4.094  38.362  1.00  0.00     0.040 A 
ENDROOT
BRANCH  10  13
HETATM   13  O2  UNK     1      28.868  -6.085  39.335  1.00  0.00    -0.275 OA
BRANCH  13  14
HETATM   14  C18 UNK     1      27.634  -6.383  38.720  1.00  0.00     0.298 C 
HETATM   15  O5  UNK     1      26.870  -5.524  38.294  1.00  0.00    -0.259 OA
BRANCH  14  16
HETATM   16  C17 UNK     1      27.391  -7.826  38.659  1.00  0.00     0.042 A 
HETATM   17  C19 UNK     1      26.931  -8.397  37.478  1.00  0.00     0.054 A 
HETATM   18  C21 UNK     1      26.699  -9.771  37.419  1.00  0.00     0.069 A 
HETATM   19  C23 UNK     1      26.929 -10.565  38.543  1.00  0.00     0.037 A 
HETATM   20  C22 UNK     1      27.391  -9.985  39.724  1.00  0.00     0.004 A 
HETATM   21  C20 UNK     1      27.623  -8.611  39.783  1.00  0.00     0.018 A 
BRANCH  18  22
HETATM   22  O4  UNK     1      26.248 -10.337  36.266  1.00  0.00    -0.356 OA
HETATM   23  C24 UNK     1      25.483 -11.535  36.388  1.00  0.00     0.210 C 
ENDBRANCH  18  22
ENDBRANCH  14  16
ENDBRANCH  13  14
ENDBRANCH  10  13
BRANCH   5  24
HETATM   24  C5  UNK     1      34.669  -6.426  34.790  1.00  0.00    -0.019 A 
HETATM   25  C12 UNK     1      34.407  -6.922  33.518  1.00  0.00     0.012 A 
HETATM   26  C14 UNK     1      35.409  -7.595  32.817  1.00  0.00     0.001 A 
HETATM   27  C16 UNK     1      36.668  -7.767  33.394  1.00  0.00     0.000 A 
HETATM   28  C15 UNK     1      36.924  -7.267  34.669  1.00  0.00     0.001 A 
HETATM   29  C13 UNK     1      35.923  -6.594  35.370  1.00  0.00     0.012 A 
ENDBRANCH   5  24
TORSDOF 5
ENDMDL
MODEL 7
REMARK VINA RESULT:      -8.9      1.535      7.689
REMARK  5 active torsions:
REMARK  status: ('A' for Active; 'I' for Inactive)
REMARK    1  A    between atoms: C18_23  and  O2_2 
REMARK    2  A    between atoms: C9_14  and  O2_2 
REMARK    3  A    between atoms: C21_26  and  O4_4 
REMARK    4  A    between atoms: C3_8  and  C5_10 
REMARK    5  A    between atoms: C17_22  and  C18_23 
ROOT
HETATM    1  O1  UNK     1      18.977  -0.076  31.116  1.00  0.00    -0.274 OA
HETATM    2  O3  UNK     1      19.063  -2.022  32.291  1.00  0.00    -0.259 OA
HETATM    3  C1  UNK     1      18.453   1.290  33.544  1.00  0.00    -0.032 A 
HETATM    4  C2  UNK     1      18.538   2.025  32.264  1.00  0.00     0.007 A 
HETATM    5  C3  UNK     1      18.629  -0.049  33.544  1.00  0.00     0.057 A 
HETATM    6  C4  UNK     1      18.798   1.315  31.095  1.00  0.00     0.090 A 
HETATM    7  C6  UNK     1      18.372   3.414  32.147  1.00  0.00     0.052 A 
HETATM    8  C7  UNK     1      18.172   2.101  34.788  1.00  0.00     0.050 C 
HETATM    9  C8  UNK     1      18.906  -0.804  32.291  1.00  0.00     0.300 A 
HETATM   10  C9  UNK     1      18.466   4.051  30.903  1.00  0.00     0.080 A 
HETATM   11  C10 UNK     1      18.894   1.934  29.845  1.00  0.00     0.041 A 
HETATM   12  C11 UNK     1      18.726   3.310  29.753  1.00  0.00     0.040 A 
ENDROOT
BRANCH  10  13
HETATM   13  O2  UNK     1      18.301   5.401  30.819  1.00  0.00    -0.275 OA
BRANCH  13  14
HETATM   14  C18 UNK     1      19.353   6.165  31.364  1.00  0.00     0.298 C 
HETATM   15  O5  UNK     1      20.501   6.133  30.934  1.00  0.00    -0.259 OA
BRANCH  14  16
HETATM   16  C17 UNK     1      18.902   6.988  32.489  1.00  0.00     0.042 A 
HETATM   17  C19 UNK     1      17.588   7.441  32.527  1.00  0.00     0.054 A 
HETATM   18  C21 UNK     1      17.159   8.224  33.599  1.00  0.00     0.069 A 
HETATM   19  C23 UNK     1      18.047   8.549  34.625  1.00  0.00     0.037 A 
HETATM   20  C22 UNK     1      19.364   8.090  34.579  1.00  0.00     0.004 A 
HETATM   21  C20 UNK     1      19.793   7.307  33.508  1.00  0.00     0.018 A 
BRANCH  18  22
HETATM   22  O4  UNK     1      15.875   8.672  33.644  1.00  0.00    -0.356 OA
HETATM   23  C24 UNK     1      14.858   7.703  33.897  1.00  0.00     0.210 C 
ENDBRANCH  18  22
ENDBRANCH  14  16
ENDBRANCH  13  14
ENDBRANCH  10  13
BRANCH   5  24
HETATM   24  C5  UNK     1      18.553  -0.811  34.789  1.00  0.00    -0.019 A 
HETATM   25  C12 UNK     1      17.328  -0.965  35.430  1.00  0.00     0.012 A 
HETATM   26  C14 UNK     1      17.253  -1.693  36.618  1.00  0.00     0.001 A 
HETATM   27  C16 UNK     1      18.406  -2.265  37.158  1.00  0.00     0.000 A 
HETATM   28  C15 UNK     1      19.631  -2.108  36.511  1.00  0.00     0.001 A 
HETATM   29  C13 UNK     1      19.705  -1.380  35.323  1.00  0.00     0.012 A 
ENDBRANCH   5  24
TORSDOF 5
ENDMDL
MODEL 8
REMARK VINA RESULT:      -8.8     23.857     26.707
REMARK  5 active torsions:
REMARK  status: ('A' for Active; 'I' for Inactive)
REMARK    1  A    between atoms: C18_23  and  O2_2 
REMARK    2  A    between atoms: C9_14  and  O2_2 
REMARK    3  A    between atoms: C21_26  and  O4_4 
REMARK    4  A    between atoms: C3_8  and  C5_10 
REMARK    5  A    between atoms: C17_22  and  C18_23 
ROOT
HETATM    1  O1  UNK     1      14.212   4.962   8.969  1.00  0.00    -0.274 OA
HETATM    2  O3  UNK     1      12.357   3.913   8.173  1.00  0.00    -0.259 OA
HETATM    3  C1  UNK     1      12.851   7.434   8.694  1.00  0.00    -0.032 A 
HETATM    4  C2  UNK     1      14.237   7.384   9.207  1.00  0.00     0.007 A 
HETATM    5  C3  UNK     1      12.236   6.280   8.355  1.00  0.00     0.057 A 
HETATM    6  C4  UNK     1      14.869   6.149   9.327  1.00  0.00     0.090 A 
HETATM    7  C6  UNK     1      14.971   8.519   9.588  1.00  0.00     0.052 A 
HETATM    8  C7  UNK     1      12.205   8.795   8.582  1.00  0.00     0.050 C 
HETATM    9  C8  UNK     1      12.916   4.961   8.484  1.00  0.00     0.300 A 
HETATM   10  C9  UNK     1      16.282   8.404  10.068  1.00  0.00     0.080 A 
HETATM   11  C10 UNK     1      16.176   6.016   9.802  1.00  0.00     0.041 A 
HETATM   12  C11 UNK     1      16.884   7.152  10.174  1.00  0.00     0.040 A 
ENDROOT
BRANCH  10  13
HETATM   13  O2  UNK     1      16.971   9.522  10.431  1.00  0.00    -0.275 OA
BRANCH  13  14
HETATM   14  C18 UNK     1      17.351  10.361   9.364  1.00  0.00     0.298 C 
HETATM   15  O5  UNK     1      18.318  10.137   8.644  1.00  0.00    -0.259 OA
BRANCH  14  16
HETATM   16  C17 UNK     1      16.456  11.513   9.231  1.00  0.00     0.042 A 
HETATM   17  C19 UNK     1      16.158  12.011   7.968  1.00  0.00     0.054 A 
HETATM   18  C21 UNK     1      15.306  13.108   7.842  1.00  0.00     0.069 A 
HETATM   19  C23 UNK     1      14.757  13.699   8.980  1.00  0.00     0.037 A 
HETATM   20  C22 UNK     1      15.061  13.193  10.244  1.00  0.00     0.004 A 
HETATM   21  C20 UNK     1      15.913  12.096  10.371  1.00  0.00     0.018 A 
BRANCH  18  22
HETATM   22  O4  UNK     1      15.010  13.601   6.609  1.00  0.00    -0.356 OA
HETATM   23  C24 UNK     1      14.596  14.965   6.538  1.00  0.00     0.210 C 
ENDBRANCH  18  22
ENDBRANCH  14  16
ENDBRANCH  13  14
ENDBRANCH  10  13
BRANCH   5  24
HETATM   24  C5  UNK     1      10.866   6.287   7.844  1.00  0.00    -0.019 A 
HETATM   25  C12 UNK     1       9.798   6.213   8.732  1.00  0.00     0.012 A 
HETATM   26  C14 UNK     1       8.490   6.221   8.245  1.00  0.00     0.001 A 
HETATM   27  C16 UNK     1       8.259   6.305   6.871  1.00  0.00     0.000 A 
HETATM   28  C15 UNK     1       9.334   6.380   5.986  1.00  0.00     0.001 A 
HETATM   29  C13 UNK     1      10.642   6.372   6.473  1.00  0.00     0.012 A 
ENDBRANCH   5  24
TORSDOF 5
ENDMDL
MODEL 9
REMARK VINA RESULT:      -8.8     12.270     15.270
REMARK  5 active torsions:
REMARK  status: ('A' for Active; 'I' for Inactive)
REMARK    1  A    between atoms: C18_23  and  O2_2 
REMARK    2  A    between atoms: C9_14  and  O2_2 
REMARK    3  A    between atoms: C21_26  and  O4_4 
REMARK    4  A    between atoms: C3_8  and  C5_10 
REMARK    5  A    between atoms: C17_22  and  C18_23 
ROOT
HETATM    1  O1  UNK     1      24.847 -10.429  36.188  1.00  0.00    -0.274 OA
HETATM    2  O3  UNK     1      22.813 -11.039  35.374  1.00  0.00    -0.259 OA
HETATM    3  C1  UNK     1      23.549  -8.479  37.785  1.00  0.00    -0.032 A 
HETATM    4  C2  UNK     1      25.018  -8.638  37.828  1.00  0.00     0.007 A 
HETATM    5  C3  UNK     1      22.826  -9.279  36.970  1.00  0.00     0.057 A 
HETATM    6  C4  UNK     1      25.615  -9.609  37.028  1.00  0.00     0.090 A 
HETATM    7  C6  UNK     1      25.865  -7.863  38.636  1.00  0.00     0.052 A 
HETATM    8  C7  UNK     1      22.943  -7.415  38.671  1.00  0.00     0.050 C 
HETATM    9  C8  UNK     1      23.469 -10.315  36.115  1.00  0.00     0.300 A 
HETATM   10  C9  UNK     1      27.252  -8.065  38.631  1.00  0.00     0.080 A 
HETATM   11  C10 UNK     1      26.996  -9.823  37.009  1.00  0.00     0.041 A 
HETATM   12  C11 UNK     1      27.816  -9.045  37.817  1.00  0.00     0.040 A 
ENDROOT
BRANCH  10  13
HETATM   13  O2  UNK     1      28.050  -7.299  39.425  1.00  0.00    -0.275 OA
BRANCH  13  14
HETATM   14  C18 UNK     1      28.205  -5.962  39.004  1.00  0.00     0.298 C 
HETATM   15  O5  UNK     1      27.309  -5.127  39.074  1.00  0.00    -0.259 OA
BRANCH  14  16
HETATM   16  C17 UNK     1      29.549  -5.708  38.481  1.00  0.00     0.042 A 
HETATM   17  C19 UNK     1      30.521  -6.697  38.573  1.00  0.00     0.054 A 
HETATM   18  C21 UNK     1      31.802  -6.455  38.075  1.00  0.00     0.069 A 
HETATM   19  C23 UNK     1      32.101  -5.224  37.490  1.00  0.00     0.037 A 
HETATM   20  C22 UNK     1      31.120  -4.236  37.402  1.00  0.00     0.004 A 
HETATM   21  C20 UNK     1      29.839  -4.479  37.899  1.00  0.00     0.018 A 
BRANCH  18  22
HETATM   22  O4  UNK     1      32.759  -7.418  38.160  1.00  0.00    -0.356 OA
HETATM   23  C24 UNK     1      33.951  -7.218  37.401  1.00  0.00     0.210 C 
ENDBRANCH  18  22
ENDBRANCH  14  16
ENDBRANCH  13  14
ENDBRANCH  10  13
BRANCH   5  24
HETATM   24  C5  UNK     1      21.371  -9.152  36.900  1.00  0.00    -0.019 A 
HETATM   25  C12 UNK     1      20.800  -8.242  36.017  1.00  0.00     0.012 A 
HETATM   26  C14 UNK     1      19.411  -8.121  35.948  1.00  0.00     0.001 A 
HETATM   27  C16 UNK     1      18.602  -8.914  36.763  1.00  0.00     0.000 A 
HETATM   28  C15 UNK     1      19.181  -9.825  37.646  1.00  0.00     0.001 A 
HETATM   29  C13 UNK     1      20.569  -9.945  37.714  1.00  0.00     0.012 A 
ENDBRANCH   5  24
TORSDOF 5
ENDMDL
MODEL 10
REMARK VINA RESULT:      -8.8     10.731     14.032
REMARK  5 active torsions:
REMARK  status: ('A' for Active; 'I' for Inactive)
REMARK    1  A    between atoms: C18_23  and  O2_2 
REMARK    2  A    between atoms: C9_14  and  O2_2 
REMARK    3  A    between atoms: C21_26  and  O4_4 
REMARK    4  A    between atoms: C3_8  and  C5_10 
REMARK    5  A    between atoms: C17_22  and  C18_23 
ROOT
HETATM    1  O1  UNK     1      25.382  -5.104  39.061  1.00  0.00    -0.274 OA
HETATM    2  O3  UNK     1      27.470  -4.358  38.557  1.00  0.00    -0.259 OA
HETATM    3  C1  UNK     1      26.244  -7.734  38.442  1.00  0.00    -0.032 A 
HETATM    4  C2  UNK     1      24.856  -7.475  38.881  1.00  0.00     0.007 A 
HETATM    5  C3  UNK     1      27.103  -6.696  38.339  1.00  0.00     0.057 A 
HETATM    6  C4  UNK     1      24.474  -6.168  39.175  1.00  0.00     0.090 A 
HETATM    7  C6  UNK     1      23.881  -8.475  39.023  1.00  0.00     0.052 A 
HETATM    8  C7  UNK     1      26.615  -9.166  38.135  1.00  0.00     0.050 C 
HETATM    9  C8  UNK     1      26.690  -5.301  38.654  1.00  0.00     0.300 A 
HETATM   10  C9  UNK     1      22.582  -8.163  39.444  1.00  0.00     0.080 A 
HETATM   11  C10 UNK     1      23.183  -5.839  39.596  1.00  0.00     0.041 A 
HETATM   12  C11 UNK     1      22.233  -6.845  39.730  1.00  0.00     0.040 A 
ENDROOT
BRANCH  10  13
HETATM   13  O2  UNK     1      21.656  -9.153  39.574  1.00  0.00    -0.275 OA
BRANCH  13  14
HETATM   14  C18 UNK     1      20.576  -9.082  38.671  1.00  0.00     0.298 C 
HETATM   15  O5  UNK     1      19.445  -8.739  39.000  1.00  0.00    -0.259 OA
BRANCH  14  16
HETATM   16  C17 UNK     1      20.974  -9.464  37.314  1.00  0.00     0.042 A 
HETATM   17  C19 UNK     1      20.909  -8.528  36.289  1.00  0.00     0.054 A 
HETATM   18  C21 UNK     1      21.287  -8.891  34.997  1.00  0.00     0.069 A 
HETATM   19  C23 UNK     1      21.729 -10.190  34.739  1.00  0.00     0.037 A 
HETATM   20  C22 UNK     1      21.792 -11.123  35.773  1.00  0.00     0.004 A 
HETATM   21  C20 UNK     1      21.413 -10.760  37.065  1.00  0.00     0.018 A 
BRANCH  18  22
HETATM   22  O4  UNK     1      21.227  -7.980  33.987  1.00  0.00    -0.356 OA
HETATM   23  C24 UNK     1      20.320  -6.891  34.150  1.00  0.00     0.210 C 
ENDBRANCH  18  22
ENDBRANCH  14  16
ENDBRANCH  13  14
ENDBRANCH  10  13
BRANCH   5  24
HETATM   24  C5  UNK     1      28.484  -6.912  37.908  1.00  0.00    -0.019 A 
HETATM   25  C12 UNK     1      28.788  -6.933  36.551  1.00  0.00     0.012 A 
HETATM   26  C14 UNK     1      30.105  -7.137  36.140  1.00  0.00     0.001 A 
HETATM   27  C16 UNK     1      31.112  -7.318  37.089  1.00  0.00     0.000 A 
HETATM   28  C15 UNK     1      30.801  -7.296  38.448  1.00  0.00     0.001 A 
HETATM   29  C13 UNK     1      29.483  -7.091  38.859  1.00  0.00     0.012 A 
ENDBRANCH   5  24
TORSDOF 5
ENDMDL
