MODEL 1
REMARK VINA RESULT:      -9.4      0.000      0.000
REMARK  5 active torsions:
REMARK  status: ('A' for Active; 'I' for Inactive)
REMARK    1  A    between atoms: C5_9  and  N1_3 
REMARK    2  A    between atoms: C6_10  and  N2_4 
REMARK    3  A    between atoms: C5_9  and  C7_11 
REMARK    4  A    between atoms: C6_10  and  C8_12 
REMARK    5  A    between atoms: C17_21  and  C23_27 
ROOT
HETATM    1  N1  UNK     1      18.836   3.572  31.329  1.00  0.00     0.096 N 
HETATM    2  N2  UNK     1      19.038   6.212  32.490  1.00  0.00     0.096 N 
HETATM    3  C1  UNK     1      19.157   4.743  30.506  1.00  0.00     0.303 C 
HETATM    4  C2  UNK     1      18.011   3.964  32.479  1.00  0.00     0.303 C 
HETATM    5  C3  UNK     1      19.861   5.820  31.339  1.00  0.00     0.303 C 
HETATM    6  C4  UNK     1      18.716   5.039  33.314  1.00  0.00     0.303 C 
ENDROOT
BRANCH   1   7
HETATM    7  C5  UNK     1      18.162   2.547  30.534  1.00  0.00     0.312 C 
BRANCH   7   8
HETATM    8  C7  UNK     1      18.925   1.268  30.505  1.00  0.00    -0.011 A 
HETATM    9  C12 UNK     1      19.602   0.890  29.412  1.00  0.00     0.092 A 
HETATM   10  C19 UNK     1      20.369  -0.365  29.336  1.00  0.00     0.288 A 
HETATM   11  O1  UNK     1      20.368  -1.166  30.467  1.00  0.00    -0.275 OA
HETATM   12  O2  UNK     1      20.976  -0.678  28.318  1.00  0.00    -0.260 OA
HETATM   13  C13 UNK     1      19.667  -0.795  31.632  1.00  0.00     0.090 A 
HETATM   14  C9  UNK     1      18.943   0.398  31.689  1.00  0.00     0.007 A 
HETATM   15  C21 UNK     1      19.735  -1.677  32.711  1.00  0.00     0.039 A 
HETATM   16  C14 UNK     1      18.272   0.694  32.883  1.00  0.00     0.022 A 
HETATM   17  C17 UNK     1      18.331  -0.181  33.973  1.00  0.00    -0.058 A 
HETATM   18  C22 UNK     1      19.062  -1.365  33.887  1.00  0.00     0.010 A 
BRANCH  17  19
HETATM   19  C23 UNK     1      17.609   0.155  35.235  1.00  0.00     0.034 C 
HETATM   20  C25 UNK     1      16.094   0.114  35.065  1.00  0.00     0.010 C 
ENDBRANCH  17  19
ENDBRANCH   7   8
ENDBRANCH   1   7
BRANCH   2  21
HETATM   21  C6  UNK     1      19.712   7.235  33.286  1.00  0.00     0.311 C 
BRANCH  21  22
HETATM   22  C8  UNK     1      18.771   8.371  33.525  1.00  0.00    -0.024 A 
HETATM   23  C10 UNK     1      19.207   9.547  34.138  1.00  0.00    -0.054 A 
HETATM   24  C16 UNK     1      18.312  10.595  34.352  1.00  0.00     0.008 A 
HETATM   25  C18 UNK     1      20.626   9.705  34.575  1.00  0.00     0.049 C 
HETATM   26  C20 UNK     1      16.981  10.469  33.952  1.00  0.00     0.007 A 
HETATM   27  C15 UNK     1      16.546   9.294  33.339  1.00  0.00    -0.061 A 
HETATM   28  C11 UNK     1      17.442   8.246  33.125  1.00  0.00     0.016 A 
HETATM   29  C24 UNK     1      15.124   9.158  32.910  1.00  0.00     0.048 C 
ENDBRANCH  21  22
ENDBRANCH   2  21
TORSDOF 5
ENDMDL
MODEL 2
REMARK VINA RESULT:      -9.2      3.088      9.228
REMARK  5 active torsions:
REMARK  status: ('A' for Active; 'I' for Inactive)
REMARK    1  A    between atoms: C5_9  and  N1_3 
REMARK    2  A    between atoms: C6_10  and  N2_4 
REMARK    3  A    between atoms: C5_9  and  C7_11 
REMARK    4  A    between atoms: C6_10  and  C8_12 
REMARK    5  A    between atoms: C17_21  and  C23_27 
ROOT
HETATM    1  N1  UNK     1      18.150   4.922  31.590  1.00  0.00     0.096 N 
HETATM    2  N2  UNK     1      18.959   2.286  30.719  1.00  0.00     0.096 N 
HETATM    3  C1  UNK     1      19.070   4.742  30.461  1.00  0.00     0.303 C 
HETATM    4  C2  UNK     1      18.283   3.812  32.542  1.00  0.00     0.303 C 
HETATM    5  C3  UNK     1      18.827   3.396  29.768  1.00  0.00     0.303 C 
HETATM    6  C4  UNK     1      18.038   2.467  31.849  1.00  0.00     0.303 C 
ENDROOT
BRANCH   1   7
HETATM    7  C5  UNK     1      18.384   6.203  32.252  1.00  0.00     0.312 C 
BRANCH   7   8
HETATM    8  C7  UNK     1      17.130   6.994  32.404  1.00  0.00    -0.011 A 
HETATM    9  C12 UNK     1      15.951   6.509  31.992  1.00  0.00     0.092 A 
HETATM   10  C19 UNK     1      14.687   7.253  32.120  1.00  0.00     0.288 A 
HETATM   11  O1  UNK     1      14.760   8.510  32.699  1.00  0.00    -0.275 OA
HETATM   12  O2  UNK     1      13.627   6.776  31.730  1.00  0.00    -0.260 OA
HETATM   13  C13 UNK     1      15.985   9.047  33.143  1.00  0.00     0.090 A 
HETATM   14  C9  UNK     1      17.176   8.329  33.014  1.00  0.00     0.007 A 
HETATM   15  C21 UNK     1      15.939  10.321  33.711  1.00  0.00     0.039 A 
HETATM   16  C14 UNK     1      18.351   8.933  33.480  1.00  0.00     0.022 A 
HETATM   17  C17 UNK     1      18.322  10.211  34.051  1.00  0.00    -0.058 A 
HETATM   18  C22 UNK     1      17.118  10.903  34.167  1.00  0.00     0.010 A 
BRANCH  17  19
HETATM   19  C23 UNK     1      19.586  10.834  34.540  1.00  0.00     0.034 C 
HETATM   20  C25 UNK     1      20.739   9.837  34.603  1.00  0.00     0.010 C 
ENDBRANCH  17  19
ENDBRANCH   7   8
ENDBRANCH   1   7
BRANCH   2  21
HETATM   21  C6  UNK     1      18.723   1.004  30.058  1.00  0.00     0.311 C 
BRANCH  21  22
HETATM   22  C8  UNK     1      19.313  -0.092  30.885  1.00  0.00    -0.024 A 
HETATM   23  C10 UNK     1      20.280  -0.947  30.358  1.00  0.00    -0.054 A 
HETATM   24  C16 UNK     1      20.817  -1.964  31.148  1.00  0.00     0.008 A 
HETATM   25  C18 UNK     1      20.756  -0.795  28.950  1.00  0.00     0.049 C 
HETATM   26  C20 UNK     1      20.387  -2.125  32.465  1.00  0.00     0.007 A 
HETATM   27  C15 UNK     1      19.420  -1.269  32.992  1.00  0.00    -0.061 A 
HETATM   28  C11 UNK     1      18.883  -0.252  32.202  1.00  0.00     0.016 A 
HETATM   29  C24 UNK     1      18.961  -1.440  34.401  1.00  0.00     0.048 C 
ENDBRANCH  21  22
ENDBRANCH   2  21
TORSDOF 5
ENDMDL
MODEL 3
REMARK VINA RESULT:      -8.9     15.011     17.681
REMARK  5 active torsions:
REMARK  status: ('A' for Active; 'I' for Inactive)
REMARK    1  A    between atoms: C5_9  and  N1_3 
REMARK    2  A    between atoms: C6_10  and  N2_4 
REMARK    3  A    between atoms: C5_9  and  C7_11 
REMARK    4  A    between atoms: C6_10  and  C8_12 
REMARK    5  A    between atoms: C17_21  and  C23_27 
ROOT
HETATM    1  N1  UNK     1      31.604  -8.612  33.444  1.00  0.00     0.096 N 
HETATM    2  N2  UNK     1      31.306  -8.241  36.297  1.00  0.00     0.096 N 
HETATM    3  C1  UNK     1      32.773  -8.510  34.326  1.00  0.00     0.303 C 
HETATM    4  C2  UNK     1      30.476  -7.854  34.001  1.00  0.00     0.303 C 
HETATM    5  C3  UNK     1      32.435  -8.996  35.739  1.00  0.00     0.303 C 
HETATM    6  C4  UNK     1      30.136  -8.342  35.414  1.00  0.00     0.303 C 
ENDROOT
BRANCH   1   7
HETATM    7  C5  UNK     1      31.927  -8.146  32.097  1.00  0.00     0.312 C 
BRANCH   7   8
HETATM    8  C7  UNK     1      31.714  -9.204  31.071  1.00  0.00    -0.011 A 
HETATM    9  C12 UNK     1      32.674 -10.093  30.783  1.00  0.00     0.092 A 
HETATM   10  C19 UNK     1      32.510 -11.156  29.777  1.00  0.00     0.288 A 
HETATM   11  O1  UNK     1      31.292 -11.208  29.118  1.00  0.00    -0.275 OA
HETATM   12  O2  UNK     1      33.412 -11.952  29.540  1.00  0.00    -0.260 OA
HETATM   13  C13 UNK     1      30.262 -10.287  29.400  1.00  0.00     0.090 A 
HETATM   14  C9  UNK     1      30.433  -9.284  30.356  1.00  0.00     0.007 A 
HETATM   15  C21 UNK     1      29.078 -10.434  28.676  1.00  0.00     0.039 A 
HETATM   16  C14 UNK     1      29.361  -8.409  30.577  1.00  0.00     0.022 A 
HETATM   17  C17 UNK     1      28.168  -8.542  29.859  1.00  0.00    -0.058 A 
HETATM   18  C22 UNK     1      28.026  -9.554  28.910  1.00  0.00     0.010 A 
BRANCH  17  19
HETATM   19  C23 UNK     1      27.040  -7.598  30.111  1.00  0.00     0.034 C 
HETATM   20  C25 UNK     1      27.265  -6.744  31.354  1.00  0.00     0.010 C 
ENDBRANCH  17  19
ENDBRANCH   7   8
ENDBRANCH   1   7
BRANCH   2  21
HETATM   21  C6  UNK     1      30.982  -8.708  37.643  1.00  0.00     0.311 C 
BRANCH  21  22
HETATM   22  C8  UNK     1      29.980  -7.785  38.255  1.00  0.00    -0.024 A 
HETATM   23  C10 UNK     1      28.745  -8.260  38.698  1.00  0.00    -0.054 A 
HETATM   24  C16 UNK     1      27.823  -7.381  39.268  1.00  0.00     0.008 A 
HETATM   25  C18 UNK     1      28.386  -9.705  38.573  1.00  0.00     0.049 C 
HETATM   26  C20 UNK     1      28.137  -6.027  39.395  1.00  0.00     0.007 A 
HETATM   27  C15 UNK     1      29.371  -5.553  38.952  1.00  0.00    -0.061 A 
HETATM   28  C11 UNK     1      30.293  -6.433  38.383  1.00  0.00     0.016 A 
HETATM   29  C24 UNK     1      29.707  -4.107  39.089  1.00  0.00     0.048 C 
ENDBRANCH  21  22
ENDBRANCH   2  21
TORSDOF 5
ENDMDL
MODEL 4
REMARK VINA RESULT:      -8.7     15.226     17.599
REMARK  5 active torsions:
REMARK  status: ('A' for Active; 'I' for Inactive)
REMARK    1  A    between atoms: C5_9  and  N1_3 
REMARK    2  A    between atoms: C6_10  and  N2_4 
REMARK    3  A    between atoms: C5_9  and  C7_11 
REMARK    4  A    between atoms: C6_10  and  C8_12 
REMARK    5  A    between atoms: C17_21  and  C23_27 
ROOT
HETATM    1  N1  UNK     1      32.944  -8.009  34.061  1.00  0.00     0.096 N 
HETATM    2  N2  UNK     1      31.839  -7.252  36.623  1.00  0.00     0.096 N 
HETATM    3  C1  UNK     1      31.582  -7.475  34.175  1.00  0.00     0.303 C 
HETATM    4  C2  UNK     1      33.324  -8.712  35.293  1.00  0.00     0.303 C 
HETATM    5  C3  UNK     1      31.458  -6.550  35.391  1.00  0.00     0.303 C 
HETATM    6  C4  UNK     1      33.202  -7.786  36.508  1.00  0.00     0.303 C 
ENDROOT
BRANCH   1   7
HETATM    7  C5  UNK     1      33.061  -8.893  32.903  1.00  0.00     0.312 C 
BRANCH   7   8
HETATM    8  C7  UNK     1      33.201  -8.133  31.629  1.00  0.00    -0.011 A 
HETATM    9  C12 UNK     1      34.360  -7.548  31.295  1.00  0.00     0.092 A 
HETATM   10  C19 UNK     1      34.546  -6.787  30.048  1.00  0.00     0.288 A 
HETATM   11  O1  UNK     1      33.450  -6.693  29.206  1.00  0.00    -0.275 OA
HETATM   12  O2  UNK     1      35.622  -6.265  29.777  1.00  0.00    -0.260 OA
HETATM   13  C13 UNK     1      32.218  -7.298  29.529  1.00  0.00     0.090 A 
HETATM   14  C9  UNK     1      32.057  -8.016  30.715  1.00  0.00     0.007 A 
HETATM   15  C21 UNK     1      31.183  -7.139  28.607  1.00  0.00     0.039 A 
HETATM   16  C14 UNK     1      30.801  -8.587  30.963  1.00  0.00     0.022 A 
HETATM   17  C17 UNK     1      29.753  -8.436  30.048  1.00  0.00    -0.058 A 
HETATM   18  C22 UNK     1      29.944  -7.713  28.872  1.00  0.00     0.010 A 
BRANCH  17  19
HETATM   19  C23 UNK     1      28.424  -9.052  30.333  1.00  0.00     0.034 C 
HETATM   20  C25 UNK     1      27.322  -8.009  30.490  1.00  0.00     0.010 C 
ENDBRANCH  17  19
ENDBRANCH   7   8
ENDBRANCH   1   7
BRANCH   2  21
HETATM   21  C6  UNK     1      31.724  -6.367  37.781  1.00  0.00     0.311 C 
BRANCH  21  22
HETATM   22  C8  UNK     1      30.295  -6.308  38.214  1.00  0.00    -0.024 A 
HETATM   23  C10 UNK     1      29.598  -5.100  38.225  1.00  0.00    -0.054 A 
HETATM   24  C16 UNK     1      28.265  -5.067  38.633  1.00  0.00     0.008 A 
HETATM   25  C18 UNK     1      30.259  -3.828  37.804  1.00  0.00     0.049 C 
HETATM   26  C20 UNK     1      27.628  -6.243  39.031  1.00  0.00     0.007 A 
HETATM   27  C15 UNK     1      28.325  -7.451  39.020  1.00  0.00    -0.061 A 
HETATM   28  C11 UNK     1      29.658  -7.483  38.611  1.00  0.00     0.016 A 
HETATM   29  C24 UNK     1      27.644  -8.708  39.444  1.00  0.00     0.048 C 
ENDBRANCH  21  22
ENDBRANCH   2  21
TORSDOF 5
ENDMDL
MODEL 5
REMARK VINA RESULT:      -8.7     10.738     15.458
REMARK  5 active torsions:
REMARK  status: ('A' for Active; 'I' for Inactive)
REMARK    1  A    between atoms: C5_9  and  N1_3 
REMARK    2  A    between atoms: C6_10  and  N2_4 
REMARK    3  A    between atoms: C5_9  and  C7_11 
REMARK    4  A    between atoms: C6_10  and  C8_12 
REMARK    5  A    between atoms: C17_21  and  C23_27 
ROOT
HETATM    1  N1  UNK     1      23.785  -9.283  37.234  1.00  0.00     0.096 N 
HETATM    2  N2  UNK     1      26.306  -8.468  38.395  1.00  0.00     0.096 N 
HETATM    3  C1  UNK     1      25.063  -9.612  36.590  1.00  0.00     0.303 C 
HETATM    4  C2  UNK     1      23.904  -8.036  38.001  1.00  0.00     0.303 C 
HETATM    5  C3  UNK     1      26.187  -9.714  37.627  1.00  0.00     0.303 C 
HETATM    6  C4  UNK     1      25.027  -8.139  39.039  1.00  0.00     0.303 C 
ENDROOT
BRANCH   1   7
HETATM    7  C5  UNK     1      22.715  -9.183  36.244  1.00  0.00     0.312 C 
BRANCH   7   8
HETATM    8  C7  UNK     1      21.367  -9.353  36.856  1.00  0.00    -0.011 A 
HETATM    9  C12 UNK     1      20.987 -10.527  37.378  1.00  0.00     0.092 A 
HETATM   10  C19 UNK     1      19.666 -10.744  37.992  1.00  0.00     0.288 A 
HETATM   11  O1  UNK     1      18.803  -9.659  38.013  1.00  0.00    -0.275 OA
HETATM   12  O2  UNK     1      19.352 -11.833  38.459  1.00  0.00    -0.260 OA
HETATM   13  C13 UNK     1      19.175  -8.411  37.473  1.00  0.00     0.090 A 
HETATM   14  C9  UNK     1      20.431  -8.221  36.893  1.00  0.00     0.007 A 
HETATM   15  C21 UNK     1      18.228  -7.390  37.550  1.00  0.00     0.039 A 
HETATM   16  C14 UNK     1      20.724  -6.951  36.379  1.00  0.00     0.022 A 
HETATM   17  C17 UNK     1      19.784  -5.917  36.448  1.00  0.00    -0.058 A 
HETATM   18  C22 UNK     1      18.538  -6.136  37.033  1.00  0.00     0.010 A 
BRANCH  17  19
HETATM   19  C23 UNK     1      20.118  -4.572  35.893  1.00  0.00     0.034 C 
HETATM   20  C25 UNK     1      20.165  -3.496  36.973  1.00  0.00     0.010 C 
ENDBRANCH  17  19
ENDBRANCH   7   8
ENDBRANCH   1   7
BRANCH   2  21
HETATM   21  C6  UNK     1      27.375  -8.569  39.386  1.00  0.00     0.311 C 
BRANCH  21  22
HETATM   22  C8  UNK     1      28.495  -7.660  38.995  1.00  0.00    -0.024 A 
HETATM   23  C10 UNK     1      29.643  -8.160  38.381  1.00  0.00    -0.054 A 
HETATM   24  C16 UNK     1      30.677  -7.294  38.024  1.00  0.00     0.008 A 
HETATM   25  C18 UNK     1      29.790  -9.619  38.097  1.00  0.00     0.049 C 
HETATM   26  C20 UNK     1      30.562  -5.927  38.280  1.00  0.00     0.007 A 
HETATM   27  C15 UNK     1      29.413  -5.427  38.893  1.00  0.00    -0.061 A 
HETATM   28  C11 UNK     1      28.379  -6.294  39.250  1.00  0.00     0.016 A 
HETATM   29  C24 UNK     1      29.289  -3.967  39.166  1.00  0.00     0.048 C 
ENDBRANCH  21  22
ENDBRANCH   2  21
TORSDOF 5
ENDMDL
MODEL 6
REMARK VINA RESULT:      -8.7     15.386     17.476
REMARK  5 active torsions:
REMARK  status: ('A' for Active; 'I' for Inactive)
REMARK    1  A    between atoms: C5_9  and  N1_3 
REMARK    2  A    between atoms: C6_10  and  N2_4 
REMARK    3  A    between atoms: C5_9  and  C7_11 
REMARK    4  A    between atoms: C6_10  and  C8_12 
REMARK    5  A    between atoms: C17_21  and  C23_27 
ROOT
HETATM    1  N1  UNK     1      31.722  -6.755  33.146  1.00  0.00     0.096 N 
HETATM    2  N2  UNK     1      31.075  -6.939  35.959  1.00  0.00     0.096 N 
HETATM    3  C1  UNK     1      31.720  -5.566  34.007  1.00  0.00     0.303 C 
HETATM    4  C2  UNK     1      30.764  -7.750  33.644  1.00  0.00     0.303 C 
HETATM    5  C3  UNK     1      32.031  -5.943  35.460  1.00  0.00     0.303 C 
HETATM    6  C4  UNK     1      31.078  -8.129  35.097  1.00  0.00     0.303 C 
ENDROOT
BRANCH   1   7
HETATM    7  C5  UNK     1      31.422  -6.394  31.762  1.00  0.00     0.312 C 
BRANCH   7   8
HETATM    8  C7  UNK     1      31.935  -7.405  30.795  1.00  0.00    -0.011 A 
HETATM    9  C12 UNK     1      33.250  -7.575  30.603  1.00  0.00     0.092 A 
HETATM   10  C19 UNK     1      33.804  -8.560  29.659  1.00  0.00     0.288 A 
HETATM   11  O1  UNK     1      32.891  -9.329  28.954  1.00  0.00    -0.275 OA
HETATM   12  O2  UNK     1      35.014  -8.687  29.510  1.00  0.00    -0.260 OA
HETATM   13  C13 UNK     1      31.502  -9.174  29.135  1.00  0.00     0.090 A 
HETATM   14  C9  UNK     1      30.992  -8.235  30.034  1.00  0.00     0.007 A 
HETATM   15  C21 UNK     1      30.676 -10.002  28.373  1.00  0.00     0.039 A 
HETATM   16  C14 UNK     1      29.598  -8.142  30.155  1.00  0.00     0.022 A 
HETATM   17  C17 UNK     1      28.758  -8.965  29.397  1.00  0.00    -0.058 A 
HETATM   18  C22 UNK     1      29.296  -9.893  28.508  1.00  0.00     0.010 A 
BRANCH  17  19
HETATM   19  C23 UNK     1      27.277  -8.848  29.543  1.00  0.00     0.034 C 
HETATM   20  C25 UNK     1      26.868  -7.607  30.330  1.00  0.00     0.010 C 
ENDBRANCH  17  19
ENDBRANCH   7   8
ENDBRANCH   1   7
BRANCH   2  21
HETATM   21  C6  UNK     1      31.376  -7.301  37.342  1.00  0.00     0.311 C 
BRANCH  21  22
HETATM   22  C8  UNK     1      30.101  -7.397  38.114  1.00  0.00    -0.024 A 
HETATM   23  C10 UNK     1      29.527  -6.267  38.696  1.00  0.00    -0.054 A 
HETATM   24  C16 UNK     1      28.335  -6.379  39.412  1.00  0.00     0.008 A 
HETATM   25  C18 UNK     1      30.171  -4.925  38.567  1.00  0.00     0.049 C 
HETATM   26  C20 UNK     1      27.716  -7.623  39.545  1.00  0.00     0.007 A 
HETATM   27  C15 UNK     1      28.290  -8.753  38.963  1.00  0.00    -0.061 A 
HETATM   28  C11 UNK     1      29.481  -8.640  38.247  1.00  0.00     0.016 A 
HETATM   29  C24 UNK     1      27.628 -10.082  39.105  1.00  0.00     0.048 C 
ENDBRANCH  21  22
ENDBRANCH   2  21
TORSDOF 5
ENDMDL
MODEL 7
REMARK VINA RESULT:      -8.6      3.193      9.282
REMARK  5 active torsions:
REMARK  status: ('A' for Active; 'I' for Inactive)
REMARK    1  A    between atoms: C5_9  and  N1_3 
REMARK    2  A    between atoms: C6_10  and  N2_4 
REMARK    3  A    between atoms: C5_9  and  C7_11 
REMARK    4  A    between atoms: C6_10  and  C8_12 
REMARK    5  A    between atoms: C17_21  and  C23_27 
ROOT
HETATM    1  N1  UNK     1      17.836   4.637  32.659  1.00  0.00     0.096 N 
HETATM    2  N2  UNK     1      18.566   1.869  33.072  1.00  0.00     0.096 N 
HETATM    3  C1  UNK     1      18.235   3.778  31.537  1.00  0.00     0.303 C 
HETATM    4  C2  UNK     1      18.491   4.198  33.898  1.00  0.00     0.303 C 
HETATM    5  C3  UNK     1      17.913   2.309  31.833  1.00  0.00     0.303 C 
HETATM    6  C4  UNK     1      18.167   2.729  34.194  1.00  0.00     0.303 C 
ENDROOT
BRANCH   1   7
HETATM    7  C5  UNK     1      18.146   6.037  32.377  1.00  0.00     0.312 C 
BRANCH   7   8
HETATM    8  C7  UNK     1      16.951   6.915  32.516  1.00  0.00    -0.011 A 
HETATM    9  C12 UNK     1      15.735   6.495  32.139  1.00  0.00     0.092 A 
HETATM   10  C19 UNK     1      14.525   7.327  32.256  1.00  0.00     0.288 A 
HETATM   11  O1  UNK     1      14.691   8.597  32.786  1.00  0.00    -0.275 OA
HETATM   12  O2  UNK     1      13.430   6.908  31.900  1.00  0.00    -0.260 OA
HETATM   13  C13 UNK     1      15.956   9.066  33.192  1.00  0.00     0.090 A 
HETATM   14  C9  UNK     1      17.095   8.266  33.074  1.00  0.00     0.007 A 
HETATM   15  C21 UNK     1      16.005  10.361  33.712  1.00  0.00     0.039 A 
HETATM   16  C14 UNK     1      18.315   8.807  33.501  1.00  0.00     0.022 A 
HETATM   17  C17 UNK     1      18.381  10.103  34.023  1.00  0.00    -0.058 A 
HETATM   18  C22 UNK     1      17.227  10.879  34.129  1.00  0.00     0.010 A 
BRANCH  17  19
HETATM   19  C23 UNK     1      19.692  10.658  34.470  1.00  0.00     0.034 C 
HETATM   20  C25 UNK     1      20.778   9.590  34.547  1.00  0.00     0.010 C 
ENDBRANCH  17  19
ENDBRANCH   7   8
ENDBRANCH   1   7
BRANCH   2  21
HETATM   21  C6  UNK     1      18.255   0.470  33.354  1.00  0.00     0.311 C 
BRANCH  21  22
HETATM   22  C8  UNK     1      19.139  -0.407  32.528  1.00  0.00    -0.024 A 
HETATM   23  C10 UNK     1      19.721  -1.553  33.070  1.00  0.00    -0.054 A 
HETATM   24  C16 UNK     1      20.543  -2.358  32.281  1.00  0.00     0.008 A 
HETATM   25  C18 UNK     1      19.478  -1.939  34.493  1.00  0.00     0.049 C 
HETATM   26  C20 UNK     1      20.783  -2.017  30.950  1.00  0.00     0.007 A 
HETATM   27  C15 UNK     1      20.201  -0.871  30.408  1.00  0.00    -0.061 A 
HETATM   28  C11 UNK     1      19.378  -0.066  31.198  1.00  0.00     0.016 A 
HETATM   29  C24 UNK     1      20.456  -0.506  28.985  1.00  0.00     0.048 C 
ENDBRANCH  21  22
ENDBRANCH   2  21
TORSDOF 5
ENDMDL
MODEL 8
REMARK VINA RESULT:      -8.6     15.179     17.715
REMARK  5 active torsions:
REMARK  status: ('A' for Active; 'I' for Inactive)
REMARK    1  A    between atoms: C5_9  and  N1_3 
REMARK    2  A    between atoms: C6_10  and  N2_4 
REMARK    3  A    between atoms: C5_9  and  C7_11 
REMARK    4  A    between atoms: C6_10  and  C8_12 
REMARK    5  A    between atoms: C17_21  and  C23_27 
ROOT
HETATM    1  N1  UNK     1      31.503  -9.768  33.887  1.00  0.00     0.096 N 
HETATM    2  N2  UNK     1      31.634  -7.859  36.054  1.00  0.00     0.096 N 
HETATM    3  C1  UNK     1      30.538  -8.667  33.991  1.00  0.00     0.303 C 
HETATM    4  C2  UNK     1      31.980 -10.159  35.219  1.00  0.00     0.303 C 
HETATM    5  C3  UNK     1      31.154  -7.469  34.723  1.00  0.00     0.303 C 
HETATM    6  C4  UNK     1      32.599  -8.961  35.949  1.00  0.00     0.303 C 
ENDROOT
BRANCH   1   7
HETATM    7  C5  UNK     1      30.913 -10.911  33.191  1.00  0.00     0.312 C 
BRANCH   7   8
HETATM    8  C7  UNK     1      31.329 -10.973  31.762  1.00  0.00    -0.011 A 
HETATM    9  C12 UNK     1      32.464 -11.584  31.397  1.00  0.00     0.092 A 
HETATM   10  C19 UNK     1      32.917 -11.671  29.999  1.00  0.00     0.288 A 
HETATM   11  O1  UNK     1      32.103 -11.082  29.043  1.00  0.00    -0.275 OA
HETATM   12  O2  UNK     1      33.963 -12.238  29.703  1.00  0.00    -0.260 OA
HETATM   13  C13 UNK     1      30.903 -10.434  29.396  1.00  0.00     0.090 A 
HETATM   14  C9  UNK     1      30.487 -10.359  30.727  1.00  0.00     0.007 A 
HETATM   15  C21 UNK     1      30.163  -9.877  28.351  1.00  0.00     0.039 A 
HETATM   16  C14 UNK     1      29.281  -9.697  30.994  1.00  0.00     0.022 A 
HETATM   17  C17 UNK     1      28.529  -9.133  29.958  1.00  0.00    -0.058 A 
HETATM   18  C22 UNK     1      28.969  -9.223  28.639  1.00  0.00     0.010 A 
BRANCH  17  19
HETATM   19  C23 UNK     1      27.248  -8.432  30.267  1.00  0.00     0.034 C 
HETATM   20  C25 UNK     1      27.448  -6.940  30.514  1.00  0.00     0.010 C 
ENDBRANCH  17  19
ENDBRANCH   7   8
ENDBRANCH   1   7
BRANCH   2  21
HETATM   21  C6  UNK     1      32.225  -6.717  36.748  1.00  0.00     0.311 C 
BRANCH  21  22
HETATM   22  C8  UNK     1      31.146  -5.956  37.450  1.00  0.00    -0.024 A 
HETATM   23  C10 UNK     1      31.108  -4.562  37.408  1.00  0.00    -0.054 A 
HETATM   24  C16 UNK     1      30.092  -3.872  38.070  1.00  0.00     0.008 A 
HETATM   25  C18 UNK     1      32.144  -3.787  36.661  1.00  0.00     0.049 C 
HETATM   26  C20 UNK     1      29.114  -4.576  38.773  1.00  0.00     0.007 A 
HETATM   27  C15 UNK     1      29.153  -5.969  38.815  1.00  0.00    -0.061 A 
HETATM   28  C11 UNK     1      30.168  -6.659  38.152  1.00  0.00     0.016 A 
HETATM   29  C24 UNK     1      28.107  -6.722  39.566  1.00  0.00     0.048 C 
ENDBRANCH  21  22
ENDBRANCH   2  21
TORSDOF 5
ENDMDL
MODEL 9
REMARK VINA RESULT:      -8.5     15.037     17.658
REMARK  5 active torsions:
REMARK  status: ('A' for Active; 'I' for Inactive)
REMARK    1  A    between atoms: C5_9  and  N1_3 
REMARK    2  A    between atoms: C6_10  and  N2_4 
REMARK    3  A    between atoms: C5_9  and  C7_11 
REMARK    4  A    between atoms: C6_10  and  C8_12 
REMARK    5  A    between atoms: C17_21  and  C23_27 
ROOT
HETATM    1  N1  UNK     1      31.782  -8.418  33.360  1.00  0.00     0.096 N 
HETATM    2  N2  UNK     1      31.579  -7.964  36.209  1.00  0.00     0.096 N 
HETATM    3  C1  UNK     1      32.955  -8.038  34.157  1.00  0.00     0.303 C 
HETATM    4  C2  UNK     1      30.557  -7.874  33.959  1.00  0.00     0.303 C 
HETATM    5  C3  UNK     1      32.803  -8.507  35.609  1.00  0.00     0.303 C 
HETATM    6  C4  UNK     1      30.405  -8.344  35.411  1.00  0.00     0.303 C 
ENDROOT
BRANCH   1   7
HETATM    7  C5  UNK     1      31.927  -7.969  31.977  1.00  0.00     0.312 C 
BRANCH   7   8
HETATM    8  C7  UNK     1      31.700  -9.073  31.002  1.00  0.00    -0.011 A 
HETATM    9  C12 UNK     1      32.661  -9.967  30.732  1.00  0.00     0.092 A 
HETATM   10  C19 UNK     1      32.484 -11.073  29.776  1.00  0.00     0.288 A 
HETATM   11  O1  UNK     1      31.252 -11.161  29.147  1.00  0.00    -0.275 OA
HETATM   12  O2  UNK     1      33.387 -11.872  29.555  1.00  0.00    -0.260 OA
HETATM   13  C13 UNK     1      30.222 -10.237  29.410  1.00  0.00     0.090 A 
HETATM   14  C9  UNK     1      30.405  -9.192  30.319  1.00  0.00     0.007 A 
HETATM   15  C21 UNK     1      29.024 -10.422  28.719  1.00  0.00     0.039 A 
HETATM   16  C14 UNK     1      29.332  -8.315  30.525  1.00  0.00     0.022 A 
HETATM   17  C17 UNK     1      28.124  -8.488  29.839  1.00  0.00    -0.058 A 
HETATM   18  C22 UNK     1      27.971  -9.540  28.938  1.00  0.00     0.010 A 
BRANCH  17  19
HETATM   19  C23 UNK     1      26.995  -7.542  30.074  1.00  0.00     0.034 C 
HETATM   20  C25 UNK     1      27.184  -6.717  31.343  1.00  0.00     0.010 C 
ENDBRANCH  17  19
ENDBRANCH   7   8
ENDBRANCH   1   7
BRANCH   2  21
HETATM   21  C6  UNK     1      31.433  -8.415  37.591  1.00  0.00     0.311 C 
BRANCH  21  22
HETATM   22  C8  UNK     1      30.238  -7.757  38.200  1.00  0.00    -0.024 A 
HETATM   23  C10 UNK     1      30.247  -6.397  38.508  1.00  0.00    -0.054 A 
HETATM   24  C16 UNK     1      29.120  -5.802  39.076  1.00  0.00     0.008 A 
HETATM   25  C18 UNK     1      31.453  -5.556  38.240  1.00  0.00     0.049 C 
HETATM   26  C20 UNK     1      27.983  -6.568  39.334  1.00  0.00     0.007 A 
HETATM   27  C15 UNK     1      27.974  -7.928  39.026  1.00  0.00    -0.061 A 
HETATM   28  C11 UNK     1      29.101  -8.522  38.458  1.00  0.00     0.016 A 
HETATM   29  C24 UNK     1      26.758  -8.747  39.301  1.00  0.00     0.048 C 
ENDBRANCH  21  22
ENDBRANCH   2  21
TORSDOF 5
ENDMDL
MODEL 10
REMARK VINA RESULT:      -8.5      2.383      4.240
REMARK  5 active torsions:
REMARK  status: ('A' for Active; 'I' for Inactive)
REMARK    1  A    between atoms: C5_9  and  N1_3 
REMARK    2  A    between atoms: C6_10  and  N2_4 
REMARK    3  A    between atoms: C5_9  and  C7_11 
REMARK    4  A    between atoms: C6_10  and  C8_12 
REMARK    5  A    between atoms: C17_21  and  C23_27 
ROOT
HETATM    1  N1  UNK     1      17.243   6.268  33.096  1.00  0.00     0.096 N 
HETATM    2  N2  UNK     1      15.692   8.706  33.193  1.00  0.00     0.096 N 
HETATM    3  C1  UNK     1      16.757   6.811  34.369  1.00  0.00     0.303 C 
HETATM    4  C2  UNK     1      17.462   7.350  32.127  1.00  0.00     0.303 C 
HETATM    5  C3  UNK     1      15.475   7.625  34.162  1.00  0.00     0.303 C 
HETATM    6  C4  UNK     1      16.179   8.162  31.919  1.00  0.00     0.303 C 
ENDROOT
BRANCH   1   7
HETATM    7  C5  UNK     1      18.467   5.495  33.294  1.00  0.00     0.312 C 
BRANCH   7   8
HETATM    8  C7  UNK     1      18.421   4.181  32.593  1.00  0.00    -0.011 A 
HETATM    9  C12 UNK     1      18.424   4.109  31.255  1.00  0.00     0.092 A 
HETATM   10  C19 UNK     1      18.378   2.834  30.519  1.00  0.00     0.288 A 
HETATM   11  O1  UNK     1      18.331   1.677  31.279  1.00  0.00    -0.275 OA
HETATM   12  O2  UNK     1      18.383   2.808  29.293  1.00  0.00    -0.260 OA
HETATM   13  C13 UNK     1      18.327   1.720  32.688  1.00  0.00     0.090 A 
HETATM   14  C9  UNK     1      18.370   2.936  33.372  1.00  0.00     0.007 A 
HETATM   15  C21 UNK     1      18.277   0.493  33.351  1.00  0.00     0.039 A 
HETATM   16  C14 UNK     1      18.362   2.894  34.773  1.00  0.00     0.022 A 
HETATM   17  C17 UNK     1      18.312   1.672  35.452  1.00  0.00    -0.058 A 
HETATM   18  C22 UNK     1      18.270   0.473  34.742  1.00  0.00     0.010 A 
BRANCH  17  19
HETATM   19  C23 UNK     1      18.305   1.651  36.944  1.00  0.00     0.034 C 
HETATM   20  C25 UNK     1      16.920   1.362  37.513  1.00  0.00     0.010 C 
ENDBRANCH  17  19
ENDBRANCH   7   8
ENDBRANCH   1   7
BRANCH   2  21
HETATM   21  C6  UNK     1      14.467   9.479  32.994  1.00  0.00     0.311 C 
BRANCH  21  22
HETATM   22  C8  UNK     1      14.699  10.889  33.430  1.00  0.00    -0.024 A 
HETATM   23  C10 UNK     1      13.697  11.851  33.307  1.00  0.00    -0.054 A 
HETATM   24  C16 UNK     1      13.934  13.162  33.721  1.00  0.00     0.008 A 
HETATM   25  C18 UNK     1      12.362  11.503  32.734  1.00  0.00     0.049 C 
HETATM   26  C20 UNK     1      15.173  13.511  34.259  1.00  0.00     0.007 A 
HETATM   27  C15 UNK     1      16.175  12.548  34.382  1.00  0.00    -0.061 A 
HETATM   28  C11 UNK     1      15.937  11.237  33.968  1.00  0.00     0.016 A 
HETATM   29  C24 UNK     1      17.500  12.920  34.958  1.00  0.00     0.048 C 
ENDBRANCH  21  22
ENDBRANCH   2  21
TORSDOF 5
ENDMDL
