MODEL 1
REMARK VINA RESULT:     -10.5      0.000      0.000
REMARK  3 active torsions:
REMARK  status: ('A' for Active; 'I' for Inactive)
REMARK    1  A    between atoms: C5_14  and  N1_7 
REMARK       I    between atoms: C6_15  and  N2_8 
REMARK    2  A    between atoms: C13_22  and  N3_9 
REMARK    3  A    between atoms: C6_15  and  C7_16 
ROOT
HETATM    1  O1  UNK     1      16.781  -0.351  35.094  1.00  0.00    -0.267 OA
HETATM    2  N1  UNK     1      19.746  -3.778  36.835  1.00  0.00    -0.376 N 
HETATM    3  N2  UNK     1      18.774  -1.411  35.646  1.00  0.00    -0.345 N 
HETATM    4  C1  UNK     1      20.254  -3.368  35.516  1.00  0.00     0.143 C 
HETATM    5  C2  UNK     1      18.410  -3.277  37.200  1.00  0.00     0.143 C 
HETATM    6  C3  UNK     1      20.141  -1.854  35.353  1.00  0.00     0.146 C 
HETATM    7  C4  UNK     1      18.330  -1.765  36.992  1.00  0.00     0.146 C 
HETATM    8  C6  UNK     1      17.925  -0.702  34.802  1.00  0.00     0.260 C 
ENDROOT
BRANCH   8   9
HETATM    9  C7  UNK     1      18.427  -0.349  33.460  1.00  0.00     0.108 A 
HETATM   10  C10 UNK     1      19.000  -1.338  32.763  1.00  0.00     0.037 A 
HETATM   11  C15 UNK     1      19.526  -1.087  31.431  1.00  0.00    -0.001 A 
HETATM   12  C16 UNK     1      19.423   0.194  30.896  1.00  0.00     0.089 A 
HETATM   13  C17 UNK     1      20.131  -2.089  30.668  1.00  0.00     0.014 A 
HETATM   14  O2  UNK     1      18.819   1.230  31.635  1.00  0.00    -0.274 OA
HETATM   15  C18 UNK     1      19.906   0.500  29.626  1.00  0.00     0.038 A 
HETATM   16  C14 UNK     1      18.306   1.020  32.912  1.00  0.00     0.304 A 
HETATM   17  O3  UNK     1      17.782   1.930  33.547  1.00  0.00    -0.259 OA
HETATM   18  C20 UNK     1      20.509  -0.505  28.873  1.00  0.00     0.003 A 
HETATM   19  C19 UNK     1      20.621  -1.796  29.392  1.00  0.00     0.001 A 
ENDBRANCH   8   9
BRANCH   2  20
HETATM   20  C5  UNK     1      20.155  -5.000  37.382  1.00  0.00     0.052 A 
HETATM   21  C9  UNK     1      21.412  -5.107  38.026  1.00  0.00     0.033 A 
HETATM   22  C12 UNK     1      21.847  -6.310  38.580  1.00  0.00     0.038 A 
HETATM   23  C13 UNK     1      21.040  -7.444  38.506  1.00  0.00     0.104 A 
HETATM   24  C11 UNK     1      19.795  -7.375  37.877  1.00  0.00     0.062 A 
HETATM   25  C8  UNK     1      19.359  -6.172  37.324  1.00  0.00     0.062 A 
HETATM   26 Cl1  UNK     1      17.814  -6.129  36.555  1.00  0.00    -0.082 Cl
BRANCH  23  27
HETATM   27  N3  UNK     1      21.483  -8.670  39.069  1.00  0.00    -0.116 N 
HETATM   28  O4  UNK     1      21.100  -9.749  38.554  1.00  0.00    -0.532 OA
HETATM   29  O5  UNK     1      22.244  -8.642  40.065  1.00  0.00    -0.532 OA
ENDBRANCH  23  27
ENDBRANCH   2  20
TORSDOF 3
ENDMDL
MODEL 2
REMARK VINA RESULT:      -9.8     28.471     31.608
REMARK  3 active torsions:
REMARK  status: ('A' for Active; 'I' for Inactive)
REMARK    1  A    between atoms: C5_14  and  N1_7 
REMARK       I    between atoms: C6_15  and  N2_8 
REMARK    2  A    between atoms: C13_22  and  N3_9 
REMARK    3  A    between atoms: C6_15  and  C7_16 
ROOT
HETATM    1  O1  UNK     1      15.869   7.072   9.952  1.00  0.00    -0.267 OA
HETATM    2  N1  UNK     1      16.873  11.473   8.168  1.00  0.00    -0.376 N 
HETATM    3  N2  UNK     1      15.595   9.332   9.489  1.00  0.00    -0.345 N 
HETATM    4  C1  UNK     1      15.464  11.175   7.869  1.00  0.00     0.143 C 
HETATM    5  C2  UNK     1      17.678  10.353   8.683  1.00  0.00     0.143 C 
HETATM    6  C3  UNK     1      14.803  10.490   9.063  1.00  0.00     0.146 C 
HETATM    7  C4  UNK     1      16.967   9.676   9.855  1.00  0.00     0.146 C 
HETATM    8  C6  UNK     1      15.163   8.014   9.588  1.00  0.00     0.260 C 
ENDROOT
BRANCH   8   9
HETATM    9  C7  UNK     1      13.763   7.719   9.228  1.00  0.00     0.108 A 
HETATM   10  C10 UNK     1      13.557   7.242   7.995  1.00  0.00     0.037 A 
HETATM   11  C15 UNK     1      12.210   6.922   7.548  1.00  0.00    -0.001 A 
HETATM   12  C16 UNK     1      11.145   7.122   8.421  1.00  0.00     0.089 A 
HETATM   13  C17 UNK     1      11.950   6.420   6.270  1.00  0.00     0.014 A 
HETATM   14  O2  UNK     1      11.369   7.626   9.717  1.00  0.00    -0.274 OA
HETATM   15  C18 UNK     1       9.832   6.836   8.054  1.00  0.00     0.038 A 
HETATM   16  C14 UNK     1      12.646   7.940  10.173  1.00  0.00     0.304 A 
HETATM   17  O3  UNK     1      12.830   8.379  11.304  1.00  0.00    -0.259 OA
HETATM   18  C20 UNK     1       9.581   6.337   6.778  1.00  0.00     0.003 A 
HETATM   19  C19 UNK     1      10.637   6.129   5.888  1.00  0.00     0.001 A 
ENDBRANCH   8   9
BRANCH   2  20
HETATM   20  C5  UNK     1      17.535  12.472   7.445  1.00  0.00     0.052 A 
HETATM   21  C9  UNK     1      18.349  12.130   6.338  1.00  0.00     0.033 A 
HETATM   22  C12 UNK     1      19.020  13.102   5.598  1.00  0.00     0.038 A 
HETATM   23  C13 UNK     1      18.901  14.448   5.944  1.00  0.00     0.104 A 
HETATM   24  C11 UNK     1      18.107  14.821   7.030  1.00  0.00     0.062 A 
HETATM   25  C8  UNK     1      17.434  13.849   7.769  1.00  0.00     0.062 A 
HETATM   26 Cl1  UNK     1      16.464  14.353   9.105  1.00  0.00    -0.082 Cl
BRANCH  23  27
HETATM   27  N3  UNK     1      19.585  15.439   5.192  1.00  0.00    -0.116 N 
HETATM   28  O4  UNK     1      18.967  16.476   4.849  1.00  0.00    -0.532 OA
HETATM   29  O5  UNK     1      20.788  15.251   4.890  1.00  0.00    -0.532 OA
ENDBRANCH  23  27
ENDBRANCH   2  20
TORSDOF 3
ENDMDL
MODEL 3
REMARK VINA RESULT:      -9.7      6.861     12.282
REMARK  3 active torsions:
REMARK  status: ('A' for Active; 'I' for Inactive)
REMARK    1  A    between atoms: C5_14  and  N1_7 
REMARK       I    between atoms: C6_15  and  N2_8 
REMARK    2  A    between atoms: C13_22  and  N3_9 
REMARK    3  A    between atoms: C6_15  and  C7_16 
ROOT
HETATM    1  O1  UNK     1      17.585   2.607  31.102  1.00  0.00    -0.267 OA
HETATM    2  N1  UNK     1      17.764   6.949  33.264  1.00  0.00    -0.376 N 
HETATM    3  N2  UNK     1      18.356   4.300  32.494  1.00  0.00    -0.345 N 
HETATM    4  C1  UNK     1      17.963   5.921  34.298  1.00  0.00     0.143 C 
HETATM    5  C2  UNK     1      17.336   6.465  31.941  1.00  0.00     0.143 C 
HETATM    6  C3  UNK     1      18.866   4.809  33.771  1.00  0.00     0.146 C 
HETATM    7  C4  UNK     1      18.246   5.332  31.465  1.00  0.00     0.146 C 
HETATM    8  C6  UNK     1      18.010   2.987  32.194  1.00  0.00     0.260 C 
ENDROOT
BRANCH   8   9
HETATM    9  C7  UNK     1      18.159   1.976  33.259  1.00  0.00     0.108 A 
HETATM   10  C10 UNK     1      17.725   2.329  34.475  1.00  0.00     0.037 A 
HETATM   11  C15 UNK     1      17.829   1.401  35.589  1.00  0.00    -0.001 A 
HETATM   12  C16 UNK     1      18.387   0.145  35.369  1.00  0.00     0.089 A 
HETATM   13  C17 UNK     1      17.388   1.727  36.874  1.00  0.00     0.014 A 
HETATM   14  O2  UNK     1      18.843  -0.221  34.088  1.00  0.00    -0.274 OA
HETATM   15  C18 UNK     1      18.516  -0.790  36.394  1.00  0.00     0.038 A 
HETATM   16  C14 UNK     1      18.756   0.646  33.002  1.00  0.00     0.304 A 
HETATM   17  O3  UNK     1      19.156   0.319  31.889  1.00  0.00    -0.259 OA
HETATM   18  C20 UNK     1      18.074  -0.456  37.672  1.00  0.00     0.003 A 
HETATM   19  C19 UNK     1      17.511   0.799  37.912  1.00  0.00     0.001 A 
ENDBRANCH   8   9
BRANCH   2  20
HETATM   20  C5  UNK     1      17.376   8.240  33.641  1.00  0.00     0.052 A 
HETATM   21  C9  UNK     1      18.331   9.284  33.692  1.00  0.00     0.033 A 
HETATM   22  C12 UNK     1      17.975  10.580  34.065  1.00  0.00     0.038 A 
HETATM   23  C13 UNK     1      16.653  10.871  34.399  1.00  0.00     0.104 A 
HETATM   24  C11 UNK     1      15.686   9.866  34.361  1.00  0.00     0.062 A 
HETATM   25  C8  UNK     1      16.041   8.570  33.988  1.00  0.00     0.062 A 
HETATM   26 Cl1  UNK     1      14.814   7.355  33.954  1.00  0.00    -0.082 Cl
BRANCH  23  27
HETATM   27  N3  UNK     1      16.290  12.190  34.779  1.00  0.00    -0.116 N 
HETATM   28  O4  UNK     1      16.147  12.454  35.998  1.00  0.00    -0.532 OA
HETATM   29  O5  UNK     1      16.123  13.056  33.888  1.00  0.00    -0.532 OA
ENDBRANCH  23  27
ENDBRANCH   2  20
TORSDOF 3
ENDMDL
MODEL 4
REMARK VINA RESULT:      -9.7      6.951     11.747
REMARK  3 active torsions:
REMARK  status: ('A' for Active; 'I' for Inactive)
REMARK    1  A    between atoms: C5_14  and  N1_7 
REMARK       I    between atoms: C6_15  and  N2_8 
REMARK    2  A    between atoms: C13_22  and  N3_9 
REMARK    3  A    between atoms: C6_15  and  C7_16 
ROOT
HETATM    1  O1  UNK     1      18.211   3.285  28.517  1.00  0.00    -0.267 OA
HETATM    2  N1  UNK     1      18.192   6.758  31.908  1.00  0.00    -0.376 N 
HETATM    3  N2  UNK     1      18.915   4.513  30.361  1.00  0.00    -0.345 N 
HETATM    4  C1  UNK     1      18.467   5.477  32.576  1.00  0.00     0.143 C 
HETATM    5  C2  UNK     1      17.766   6.679  30.501  1.00  0.00     0.143 C 
HETATM    6  C3  UNK     1      19.421   4.634  31.731  1.00  0.00     0.146 C 
HETATM    7  C4  UNK     1      18.728   5.802  29.699  1.00  0.00     0.146 C 
HETATM    8  C6  UNK     1      18.637   3.336  29.673  1.00  0.00     0.260 C 
ENDROOT
BRANCH   8   9
HETATM    9  C7  UNK     1      18.862   2.058  30.375  1.00  0.00     0.108 A 
HETATM   10  C10 UNK     1      19.610   1.154  29.733  1.00  0.00     0.037 A 
HETATM   11  C15 UNK     1      19.887  -0.136  30.345  1.00  0.00    -0.001 A 
HETATM   12  C16 UNK     1      19.361  -0.412  31.603  1.00  0.00     0.089 A 
HETATM   13  C17 UNK     1      20.664  -1.109  29.711  1.00  0.00     0.014 A 
HETATM   14  O2  UNK     1      18.574   0.545  32.274  1.00  0.00    -0.274 OA
HETATM   15  C18 UNK     1      19.589  -1.628  32.244  1.00  0.00     0.038 A 
HETATM   16  C14 UNK     1      18.292   1.788  31.715  1.00  0.00     0.304 A 
HETATM   17  O3  UNK     1      17.605   2.614  32.306  1.00  0.00    -0.259 OA
HETATM   18  C20 UNK     1      20.364  -2.593  31.605  1.00  0.00     0.003 A 
HETATM   19  C19 UNK     1      20.900  -2.335  30.341  1.00  0.00     0.001 A 
ENDBRANCH   8   9
BRANCH   2  20
HETATM   20  C5  UNK     1      17.740   7.847  32.665  1.00  0.00     0.052 A 
HETATM   21  C9  UNK     1      16.403   8.294  32.541  1.00  0.00     0.033 A 
HETATM   22  C12 UNK     1      15.925   9.375  33.281  1.00  0.00     0.038 A 
HETATM   23  C13 UNK     1      16.770  10.043  34.166  1.00  0.00     0.104 A 
HETATM   24  C11 UNK     1      18.095   9.629  34.312  1.00  0.00     0.062 A 
HETATM   25  C8  UNK     1      18.574   8.548  33.573  1.00  0.00     0.062 A 
HETATM   26 Cl1  UNK     1      20.219   8.068  33.783  1.00  0.00    -0.082 Cl
BRANCH  23  27
HETATM   27  N3  UNK     1      16.284  11.145  34.918  1.00  0.00    -0.116 N 
HETATM   28  O4  UNK     1      15.311  10.969  35.693  1.00  0.00    -0.532 OA
HETATM   29  O5  UNK     1      16.838  12.262  34.790  1.00  0.00    -0.532 OA
ENDBRANCH  23  27
ENDBRANCH   2  20
TORSDOF 3
ENDMDL
MODEL 5
REMARK VINA RESULT:      -9.6     28.271     29.682
REMARK  3 active torsions:
REMARK  status: ('A' for Active; 'I' for Inactive)
REMARK    1  A    between atoms: C5_14  and  N1_7 
REMARK       I    between atoms: C6_15  and  N2_8 
REMARK    2  A    between atoms: C13_22  and  N3_9 
REMARK    3  A    between atoms: C6_15  and  C7_16 
ROOT
HETATM    1  O1  UNK     1       9.830   5.783   6.765  1.00  0.00    -0.267 OA
HETATM    2  N1  UNK     1      13.811   7.671   8.802  1.00  0.00    -0.376 N 
HETATM    3  N2  UNK     1      11.512   6.103   8.336  1.00  0.00    -0.345 N 
HETATM    4  C1  UNK     1      12.771   7.584   9.839  1.00  0.00     0.143 C 
HETATM    5  C2  UNK     1      13.372   7.419   7.420  1.00  0.00     0.143 C 
HETATM    6  C3  UNK     1      12.001   6.272   9.708  1.00  0.00     0.146 C 
HETATM    7  C4  UNK     1      12.579   6.114   7.338  1.00  0.00     0.146 C 
HETATM    8  C6  UNK     1      10.193   5.921   7.934  1.00  0.00     0.260 C 
ENDROOT
BRANCH   8   9
HETATM    9  C7  UNK     1       9.152   5.895   8.981  1.00  0.00     0.108 A 
HETATM   10  C10 UNK     1       8.339   6.957   9.033  1.00  0.00     0.037 A 
HETATM   11  C15 UNK     1       7.283   7.024  10.030  1.00  0.00    -0.001 A 
HETATM   12  C16 UNK     1       7.135   5.969  10.925  1.00  0.00     0.089 A 
HETATM   13  C17 UNK     1       6.412   8.112  10.120  1.00  0.00     0.014 A 
HETATM   14  O2  UNK     1       7.994   4.854  10.866  1.00  0.00    -0.274 OA
HETATM   15  C18 UNK     1       6.143   5.971  11.904  1.00  0.00     0.038 A 
HETATM   16  C14 UNK     1       9.013   4.762   9.922  1.00  0.00     0.304 A 
HETATM   17  O3  UNK     1       9.757   3.787   9.878  1.00  0.00    -0.259 OA
HETATM   18  C20 UNK     1       5.279   7.060  11.988  1.00  0.00     0.003 A 
HETATM   19  C19 UNK     1       5.412   8.128  11.098  1.00  0.00     0.001 A 
ENDBRANCH   8   9
BRANCH   2  20
HETATM   20  C5  UNK     1      14.905   8.523   8.993  1.00  0.00     0.052 A 
HETATM   21  C9  UNK     1      14.909   9.816   8.417  1.00  0.00     0.033 A 
HETATM   22  C12 UNK     1      15.984  10.687   8.589  1.00  0.00     0.038 A 
HETATM   23  C13 UNK     1      17.089  10.292   9.341  1.00  0.00     0.104 A 
HETATM   24  C11 UNK     1      17.119   9.023   9.923  1.00  0.00     0.062 A 
HETATM   25  C8  UNK     1      16.044   8.152   9.752  1.00  0.00     0.062 A 
HETATM   26 Cl1  UNK     1      16.121   6.591  10.487  1.00  0.00    -0.082 Cl
BRANCH  23  27
HETATM   27  N3  UNK     1      18.184  11.178   9.516  1.00  0.00    -0.116 N 
HETATM   28  O4  UNK     1      18.141  12.021  10.445  1.00  0.00    -0.532 OA
HETATM   29  O5  UNK     1      19.165  11.095   8.739  1.00  0.00    -0.532 OA
ENDBRANCH  23  27
ENDBRANCH   2  20
TORSDOF 3
ENDMDL
MODEL 6
REMARK VINA RESULT:      -9.5     11.622     14.788
REMARK  3 active torsions:
REMARK  status: ('A' for Active; 'I' for Inactive)
REMARK    1  A    between atoms: C5_14  and  N1_7 
REMARK       I    between atoms: C6_15  and  N2_8 
REMARK    2  A    between atoms: C13_22  and  N3_9 
REMARK    3  A    between atoms: C6_15  and  C7_16 
ROOT
HETATM    1  O1  UNK     1      32.266  -4.939  38.866  1.00  0.00    -0.267 OA
HETATM    2  N1  UNK     1      33.101  -6.331  34.291  1.00  0.00    -0.376 N 
HETATM    3  N2  UNK     1      31.840  -5.358  36.621  1.00  0.00    -0.345 N 
HETATM    4  C1  UNK     1      31.810  -6.900  34.708  1.00  0.00     0.143 C 
HETATM    5  C2  UNK     1      33.914  -5.719  35.355  1.00  0.00     0.143 C 
HETATM    6  C3  UNK     1      31.020  -5.878  35.523  1.00  0.00     0.146 C 
HETATM    7  C4  UNK     1      33.078  -4.728  36.166  1.00  0.00     0.146 C 
HETATM    8  C6  UNK     1      31.542  -5.392  37.979  1.00  0.00     0.260 C 
ENDROOT
BRANCH   8   9
HETATM    9  C7  UNK     1      30.270  -6.019  38.387  1.00  0.00     0.108 A 
HETATM   10  C10 UNK     1      30.223  -7.356  38.326  1.00  0.00     0.037 A 
HETATM   11  C15 UNK     1      29.012  -8.065  38.708  1.00  0.00    -0.001 A 
HETATM   12  C16 UNK     1      27.909  -7.332  39.136  1.00  0.00     0.089 A 
HETATM   13  C17 UNK     1      28.919  -9.458  38.661  1.00  0.00     0.014 A 
HETATM   14  O2  UNK     1      27.965  -5.926  39.197  1.00  0.00    -0.274 OA
HETATM   15  C18 UNK     1      26.720  -7.951  39.515  1.00  0.00     0.038 A 
HETATM   16  C14 UNK     1      29.109  -5.220  38.839  1.00  0.00     0.304 A 
HETATM   17  O3  UNK     1      29.149  -3.995  38.895  1.00  0.00    -0.259 OA
HETATM   18  C20 UNK     1      26.635  -9.340  39.464  1.00  0.00     0.003 A 
HETATM   19  C19 UNK     1      27.731 -10.092  39.038  1.00  0.00     0.001 A 
ENDBRANCH   8   9
BRANCH   2  20
HETATM   20  C5  UNK     1      33.773  -6.878  33.192  1.00  0.00     0.052 A 
HETATM   21  C9  UNK     1      35.150  -7.194  33.283  1.00  0.00     0.033 A 
HETATM   22  C12 UNK     1      35.846  -7.739  32.205  1.00  0.00     0.038 A 
HETATM   23  C13 UNK     1      35.186  -7.985  31.001  1.00  0.00     0.104 A 
HETATM   24  C11 UNK     1      33.829  -7.685  30.876  1.00  0.00     0.062 A 
HETATM   25  C8  UNK     1      33.132  -7.140  31.954  1.00  0.00     0.062 A 
HETATM   26 Cl1  UNK     1      31.454  -6.783  31.757  1.00  0.00    -0.082 Cl
BRANCH  23  27
HETATM   27  N3  UNK     1      35.895  -8.540  29.903  1.00  0.00    -0.116 N 
HETATM   28  O4  UNK     1      36.583  -9.574  30.084  1.00  0.00    -0.532 OA
HETATM   29  O5  UNK     1      35.814  -7.982  28.783  1.00  0.00    -0.532 OA
ENDBRANCH  23  27
ENDBRANCH   2  20
TORSDOF 3
ENDMDL
MODEL 7
REMARK VINA RESULT:      -9.3      9.581     12.992
REMARK  3 active torsions:
REMARK  status: ('A' for Active; 'I' for Inactive)
REMARK    1  A    between atoms: C5_14  and  N1_7 
REMARK       I    between atoms: C6_15  and  N2_8 
REMARK    2  A    between atoms: C13_22  and  N3_9 
REMARK    3  A    between atoms: C6_15  and  C7_16 
ROOT
HETATM    1  O1  UNK     1      27.804  -8.473  39.992  1.00  0.00    -0.267 OA
HETATM    2  N1  UNK     1      30.818  -7.032  36.470  1.00  0.00    -0.376 N 
HETATM    3  N2  UNK     1      28.514  -7.399  38.058  1.00  0.00    -0.345 N 
HETATM    4  C1  UNK     1      29.567  -7.481  35.839  1.00  0.00     0.143 C 
HETATM    5  C2  UNK     1      30.965  -7.331  37.904  1.00  0.00     0.143 C 
HETATM    6  C3  UNK     1      28.365  -7.007  36.653  1.00  0.00     0.146 C 
HETATM    7  C4  UNK     1      29.728  -6.871  38.677  1.00  0.00     0.146 C 
HETATM    8  C6  UNK     1      27.634  -8.169  38.810  1.00  0.00     0.260 C 
ENDROOT
BRANCH   8   9
HETATM    9  C7  UNK     1      26.411  -8.662  38.147  1.00  0.00     0.108 A 
HETATM   10  C10 UNK     1      26.494  -9.868  37.573  1.00  0.00     0.037 A 
HETATM   11  C15 UNK     1      25.342 -10.438  36.894  1.00  0.00    -0.001 A 
HETATM   12  C16 UNK     1      24.157  -9.710  36.852  1.00  0.00     0.089 A 
HETATM   13  C17 UNK     1      25.384 -11.694  36.283  1.00  0.00     0.014 A 
HETATM   14  O2  UNK     1      24.076  -8.441  37.457  1.00  0.00    -0.274 OA
HETATM   15  C18 UNK     1      23.017 -10.200  36.218  1.00  0.00     0.038 A 
HETATM   16  C14 UNK     1      25.161  -7.870  38.115  1.00  0.00     0.304 A 
HETATM   17  O3  UNK     1      25.081  -6.763  38.639  1.00  0.00    -0.259 OA
HETATM   18  C20 UNK     1      23.067 -11.452  35.610  1.00  0.00     0.003 A 
HETATM   19  C19 UNK     1      24.248 -12.198  35.642  1.00  0.00     0.001 A 
ENDBRANCH   8   9
BRANCH   2  20
HETATM   20  C5  UNK     1      31.984  -6.942  35.701  1.00  0.00     0.052 A 
HETATM   21  C9  UNK     1      32.568  -8.110  35.154  1.00  0.00     0.033 A 
HETATM   22  C12 UNK     1      33.730  -8.053  34.384  1.00  0.00     0.038 A 
HETATM   23  C13 UNK     1      34.344  -6.825  34.140  1.00  0.00     0.104 A 
HETATM   24  C11 UNK     1      33.796  -5.654  34.665  1.00  0.00     0.062 A 
HETATM   25  C8  UNK     1      32.634  -5.711  35.434  1.00  0.00     0.062 A 
HETATM   26 Cl1  UNK     1      31.989  -4.239  36.065  1.00  0.00    -0.082 Cl
BRANCH  23  27
HETATM   27  N3  UNK     1      35.527  -6.766  33.357  1.00  0.00    -0.116 N 
HETATM   28  O4  UNK     1      36.639  -6.888  33.927  1.00  0.00    -0.532 OA
HETATM   29  O5  UNK     1      35.430  -6.594  32.119  1.00  0.00    -0.532 OA
ENDBRANCH  23  27
ENDBRANCH   2  20
TORSDOF 3
ENDMDL
MODEL 8
REMARK VINA RESULT:      -9.3      4.086      9.461
REMARK  3 active torsions:
REMARK  status: ('A' for Active; 'I' for Inactive)
REMARK    1  A    between atoms: C5_14  and  N1_7 
REMARK       I    between atoms: C6_15  and  N2_8 
REMARK    2  A    between atoms: C13_22  and  N3_9 
REMARK    3  A    between atoms: C6_15  and  C7_16 
ROOT
HETATM    1  O1  UNK     1      18.529  -0.983  38.108  1.00  0.00    -0.267 OA
HETATM    2  N1  UNK     1      18.087   1.666  34.064  1.00  0.00    -0.376 N 
HETATM    3  N2  UNK     1      17.921  -0.444  35.931  1.00  0.00    -0.345 N 
HETATM    4  C1  UNK     1      18.529   0.318  33.675  1.00  0.00     0.143 C 
HETATM    5  C2  UNK     1      18.114   1.967  35.505  1.00  0.00     0.143 C 
HETATM    6  C3  UNK     1      17.797  -0.738  34.500  1.00  0.00     0.146 C 
HETATM    7  C4  UNK     1      17.400   0.871  36.296  1.00  0.00     0.146 C 
HETATM    8  C6  UNK     1      18.445  -1.276  36.914  1.00  0.00     0.260 C 
ENDROOT
BRANCH   8   9
HETATM    9  C7  UNK     1      18.940  -2.604  36.500  1.00  0.00     0.108 A 
HETATM   10  C10 UNK     1      18.146  -3.645  36.779  1.00  0.00     0.037 A 
HETATM   11  C15 UNK     1      18.548  -4.993  36.411  1.00  0.00    -0.001 A 
HETATM   12  C16 UNK     1      19.768  -5.180  35.767  1.00  0.00     0.089 A 
HETATM   13  C17 UNK     1      17.751  -6.108  36.681  1.00  0.00     0.014 A 
HETATM   14  O2  UNK     1      20.599  -4.080  35.477  1.00  0.00    -0.274 OA
HETATM   15  C18 UNK     1      20.211  -6.445  35.387  1.00  0.00     0.038 A 
HETATM   16  C14 UNK     1      20.241  -2.779  35.816  1.00  0.00     0.304 A 
HETATM   17  O3  UNK     1      20.972  -1.827  35.560  1.00  0.00    -0.259 OA
HETATM   18  C20 UNK     1      19.410  -7.551  35.662  1.00  0.00     0.003 A 
HETATM   19  C19 UNK     1      18.183  -7.383  36.307  1.00  0.00     0.001 A 
ENDBRANCH   8   9
BRANCH   2  20
HETATM   20  C5  UNK     1      18.257   2.731  33.172  1.00  0.00     0.052 A 
HETATM   21  C9  UNK     1      18.110   4.066  33.621  1.00  0.00     0.033 A 
HETATM   22  C12 UNK     1      18.273   5.148  32.757  1.00  0.00     0.038 A 
HETATM   23  C13 UNK     1      18.587   4.928  31.416  1.00  0.00     0.104 A 
HETATM   24  C11 UNK     1      18.740   3.625  30.940  1.00  0.00     0.062 A 
HETATM   25  C8  UNK     1      18.577   2.543  31.804  1.00  0.00     0.062 A 
HETATM   26 Cl1  UNK     1      18.773   0.947  31.174  1.00  0.00    -0.082 Cl
BRANCH  23  27
HETATM   27  N3  UNK     1      18.753   6.030  30.535  1.00  0.00    -0.116 N 
HETATM   28  O4  UNK     1      17.836   6.883  30.451  1.00  0.00    -0.532 OA
HETATM   29  O5  UNK     1      19.809   6.120  29.866  1.00  0.00    -0.532 OA
ENDBRANCH  23  27
ENDBRANCH   2  20
TORSDOF 3
ENDMDL
MODEL 9
REMARK VINA RESULT:      -9.3     12.152     15.211
REMARK  3 active torsions:
REMARK  status: ('A' for Active; 'I' for Inactive)
REMARK    1  A    between atoms: C5_14  and  N1_7 
REMARK       I    between atoms: C6_15  and  N2_8 
REMARK    2  A    between atoms: C13_22  and  N3_9 
REMARK    3  A    between atoms: C6_15  and  C7_16 
ROOT
HETATM    1  O1  UNK     1      32.605  -5.087  38.674  1.00  0.00    -0.267 OA
HETATM    2  N1  UNK     1      33.887  -7.018  34.409  1.00  0.00    -0.376 N 
HETATM    3  N2  UNK     1      32.429  -5.716  36.444  1.00  0.00    -0.345 N 
HETATM    4  C1  UNK     1      32.513  -7.452  34.706  1.00  0.00     0.143 C 
HETATM    5  C2  UNK     1      34.609  -6.350  35.505  1.00  0.00     0.143 C 
HETATM    6  C3  UNK     1      31.712  -6.297  35.305  1.00  0.00     0.146 C 
HETATM    7  C4  UNK     1      33.760  -5.224  36.096  1.00  0.00     0.146 C 
HETATM    8  C6  UNK     1      31.963  -5.584  37.747  1.00  0.00     0.260 C 
ENDROOT
BRANCH   8   9
HETATM    9  C7  UNK     1      30.604  -6.077  38.045  1.00  0.00     0.108 A 
HETATM   10  C10 UNK     1      30.481  -7.397  38.231  1.00  0.00     0.037 A 
HETATM   11  C15 UNK     1      29.181  -7.977  38.528  1.00  0.00    -0.001 A 
HETATM   12  C16 UNK     1      28.073  -7.140  38.615  1.00  0.00     0.089 A 
HETATM   13  C17 UNK     1      29.006  -9.348  38.731  1.00  0.00     0.014 A 
HETATM   14  O2  UNK     1      28.209  -5.751  38.417  1.00  0.00    -0.274 OA
HETATM   15  C18 UNK     1      26.801  -7.632  38.896  1.00  0.00     0.038 A 
HETATM   16  C14 UNK     1      29.440  -5.167  38.132  1.00  0.00     0.304 A 
HETATM   17  O3  UNK     1      29.548  -3.957  37.961  1.00  0.00    -0.259 OA
HETATM   18  C20 UNK     1      26.635  -9.001  39.096  1.00  0.00     0.003 A 
HETATM   19  C19 UNK     1      27.736  -9.857  39.014  1.00  0.00     0.001 A 
ENDBRANCH   8   9
BRANCH   2  20
HETATM   20  C5  UNK     1      34.644  -7.725  33.467  1.00  0.00     0.052 A 
HETATM   21  C9  UNK     1      35.887  -8.295  33.835  1.00  0.00     0.033 A 
HETATM   22  C12 UNK     1      36.663  -9.004  32.919  1.00  0.00     0.038 A 
HETATM   23  C13 UNK     1      36.222  -9.163  31.606  1.00  0.00     0.104 A 
HETATM   24  C11 UNK     1      35.002  -8.614  31.209  1.00  0.00     0.062 A 
HETATM   25  C8  UNK     1      34.225  -7.905  32.125  1.00  0.00     0.062 A 
HETATM   26 Cl1  UNK     1      32.722  -7.241  31.592  1.00  0.00    -0.082 Cl
BRANCH  23  27
HETATM   27  N3  UNK     1      37.013  -9.884  30.672  1.00  0.00    -0.116 N 
HETATM   28  O4  UNK     1      37.673 -10.874  31.073  1.00  0.00    -0.532 OA
HETATM   29  O5  UNK     1      37.030  -9.513  29.475  1.00  0.00    -0.532 OA
ENDBRANCH  23  27
ENDBRANCH   2  20
TORSDOF 3
ENDMDL
MODEL 10
REMARK VINA RESULT:      -9.3      7.004     12.346
REMARK  3 active torsions:
REMARK  status: ('A' for Active; 'I' for Inactive)
REMARK    1  A    between atoms: C5_14  and  N1_7 
REMARK       I    between atoms: C6_15  and  N2_8 
REMARK    2  A    between atoms: C13_22  and  N3_9 
REMARK    3  A    between atoms: C6_15  and  C7_16 
ROOT
HETATM    1  O1  UNK     1      18.463   3.520  29.267  1.00  0.00    -0.267 OA
HETATM    2  N1  UNK     1      17.849   7.208  32.363  1.00  0.00    -0.376 N 
HETATM    3  N2  UNK     1      18.802   4.849  31.142  1.00  0.00    -0.345 N 
HETATM    4  C1  UNK     1      17.929   5.967  33.149  1.00  0.00     0.143 C 
HETATM    5  C2  UNK     1      17.730   7.046  30.904  1.00  0.00     0.143 C 
HETATM    6  C3  UNK     1      19.009   5.049  32.580  1.00  0.00     0.146 C 
HETATM    7  C4  UNK     1      18.808   6.096  30.381  1.00  0.00     0.146 C 
HETATM    8  C6  UNK     1      18.634   3.637  30.482  1.00  0.00     0.260 C 
ENDROOT
BRANCH   8   9
HETATM    9  C7  UNK     1      18.657   2.403  31.291  1.00  0.00     0.108 A 
HETATM   10  C10 UNK     1      18.228   2.516  32.554  1.00  0.00     0.037 A 
HETATM   11  C15 UNK     1      18.214   1.355  33.430  1.00  0.00    -0.001 A 
HETATM   12  C16 UNK     1      18.654   0.132  32.933  1.00  0.00     0.089 A 
HETATM   13  C17 UNK     1      17.774   1.427  34.753  1.00  0.00     0.014 A 
HETATM   14  O2  UNK     1      19.105   0.020  31.604  1.00  0.00    -0.274 OA
HETATM   15  C18 UNK     1      18.666  -1.018  33.721  1.00  0.00     0.038 A 
HETATM   16  C14 UNK     1      19.130   1.113  30.742  1.00  0.00     0.304 A 
HETATM   17  O3  UNK     1      19.525   1.006  29.585  1.00  0.00    -0.259 OA
HETATM   18  C20 UNK     1      18.226  -0.938  35.040  1.00  0.00     0.003 A 
HETATM   19  C19 UNK     1      17.780   0.281  35.555  1.00  0.00     0.001 A 
ENDBRANCH   8   9
BRANCH   2  20
HETATM   20  C5  UNK     1      17.288   8.354  32.938  1.00  0.00     0.052 A 
HETATM   21  C9  UNK     1      15.940   8.697  32.673  1.00  0.00     0.033 A 
HETATM   22  C12 UNK     1      15.353   9.831  33.232  1.00  0.00     0.038 A 
HETATM   23  C13 UNK     1      16.097  10.660  34.072  1.00  0.00     0.104 A 
HETATM   24  C11 UNK     1      17.428  10.352  34.354  1.00  0.00     0.062 A 
HETATM   25  C8  UNK     1      18.016   9.217  33.796  1.00  0.00     0.062 A 
HETATM   26 Cl1  UNK     1      19.666   8.873  34.171  1.00  0.00    -0.082 Cl
BRANCH  23  27
HETATM   27  N3  UNK     1      15.500  11.816  34.640  1.00  0.00    -0.116 N 
HETATM   28  O4  UNK     1      14.995  12.676  33.878  1.00  0.00    -0.532 OA
HETATM   29  O5  UNK     1      15.492  11.946  35.887  1.00  0.00    -0.532 OA
ENDBRANCH  23  27
ENDBRANCH   2  20
TORSDOF 3
ENDMDL
