MODEL 1
REMARK VINA RESULT:      -6.4      0.000      0.000
REMARK  1 active torsions:
REMARK  status: ('A' for Active; 'I' for Inactive)
REMARK    1  A    between atoms: C10_15  and  C6_11 
ROOT
HETATM    1 Cl1  UNK     1      20.504  -3.392  37.015  1.00  0.00    -0.081 Cl
HETATM    2 Cl2  UNK     1      16.641   0.354  37.052  1.00  0.00    -0.084 Cl
HETATM    3  O1  UNK     1      20.637  -2.830  34.136  1.00  0.00    -0.319 OA
HETATM    4  O2  UNK     1      18.407  -0.148  32.013  1.00  0.00    -0.286 OA
HETATM    5  C1  UNK     1      18.897  -1.131  34.104  1.00  0.00     0.052 A 
HETATM    6  C2  UNK     1      19.691  -2.064  34.774  1.00  0.00     0.111 A 
HETATM    7  C3  UNK     1      19.073  -0.951  32.650  1.00  0.00     0.200 A 
HETATM    8  C4  UNK     1      17.951  -0.379  34.805  1.00  0.00     0.042 A 
HETATM    9  C5  UNK     1      19.543  -2.249  36.148  1.00  0.00     0.070 A 
HETATM   10  C6  UNK     1      20.100  -1.804  32.013  1.00  0.00     0.075 A 
HETATM   11  C7  UNK     1      17.804  -0.567  36.180  1.00  0.00     0.036 A 
HETATM   12  C8  UNK     1      18.598  -1.500  36.850  1.00  0.00     0.050 A 
HETATM   13  C9  UNK     1      20.788  -2.657  32.780  1.00  0.00     0.161 A 
ENDROOT
BRANCH  10  14
HETATM   14  C10 UNK     1      20.410  -1.766  30.583  1.00  0.00     0.276 C 
HETATM   15  O3  UNK     1      20.814  -0.755  30.020  1.00  0.00    -0.301 OA
ENDBRANCH  10  14
TORSDOF 1
ENDMDL
MODEL 2
REMARK VINA RESULT:      -6.4      3.013      3.910
REMARK  1 active torsions:
REMARK  status: ('A' for Active; 'I' for Inactive)
REMARK    1  A    between atoms: C10_15  and  C6_11 
ROOT
HETATM    1 Cl1  UNK     1      20.949  -3.094  31.186  1.00  0.00    -0.081 Cl
HETATM    2 Cl2  UNK     1      18.713  -1.326  35.749  1.00  0.00    -0.084 Cl
HETATM    3  O1  UNK     1      19.947  -0.580  30.046  1.00  0.00    -0.319 OA
HETATM    4  O2  UNK     1      17.854   2.363  31.952  1.00  0.00    -0.286 OA
HETATM    5  C1  UNK     1      18.922   0.260  32.084  1.00  0.00     0.052 A 
HETATM    6  C2  UNK     1      19.636  -0.710  31.377  1.00  0.00     0.111 A 
HETATM    7  C3  UNK     1      18.480   1.480  31.382  1.00  0.00     0.200 A 
HETATM    8  C4  UNK     1      18.634   0.074  33.439  1.00  0.00     0.042 A 
HETATM    9  C5  UNK     1      20.064  -1.870  32.022  1.00  0.00     0.070 A 
HETATM   10  C6  UNK     1      18.837   1.566  29.949  1.00  0.00     0.075 A 
HETATM   11  C7  UNK     1      19.064  -1.088  34.081  1.00  0.00     0.036 A 
HETATM   12  C8  UNK     1      19.777  -2.058  33.374  1.00  0.00     0.050 A 
HETATM   13  C9  UNK     1      19.525   0.559  29.401  1.00  0.00     0.161 A 
ENDROOT
BRANCH  10  14
HETATM   14  C10 UNK     1      18.480   2.698  29.094  1.00  0.00     0.276 C 
HETATM   15  O3  UNK     1      17.867   2.565  28.041  1.00  0.00    -0.301 OA
ENDBRANCH  10  14
TORSDOF 1
ENDMDL
MODEL 3
REMARK VINA RESULT:      -6.4      2.707      4.762
REMARK  1 active torsions:
REMARK  status: ('A' for Active; 'I' for Inactive)
REMARK    1  A    between atoms: C10_15  and  C6_11 
ROOT
HETATM    1 Cl1  UNK     1      20.746  -3.370  36.271  1.00  0.00    -0.081 Cl
HETATM    2 Cl2  UNK     1      20.164  -1.930  31.119  1.00  0.00    -0.084 Cl
HETATM    3  O1  UNK     1      18.586  -1.443  36.765  1.00  0.00    -0.319 OA
HETATM    4  O2  UNK     1      16.622   0.860  34.024  1.00  0.00    -0.286 OA
HETATM    5  C1  UNK     1      18.287  -0.761  34.451  1.00  0.00     0.052 A 
HETATM    6  C2  UNK     1      18.920  -1.522  35.435  1.00  0.00     0.111 A 
HETATM    7  C3  UNK     1      17.213   0.170  34.844  1.00  0.00     0.200 A 
HETATM    8  C4  UNK     1      18.668  -0.883  33.112  1.00  0.00     0.042 A 
HETATM    9  C5  UNK     1      19.938  -2.410  35.085  1.00  0.00     0.070 A 
HETATM   10  C6  UNK     1      16.897   0.220  36.288  1.00  0.00     0.075 A 
HETATM   11  C7  UNK     1      19.687  -1.772  32.765  1.00  0.00     0.036 A 
HETATM   12  C8  UNK     1      20.320  -2.534  33.749  1.00  0.00     0.050 A 
HETATM   13  C9  UNK     1      17.587  -0.568  37.120  1.00  0.00     0.161 A 
ENDROOT
BRANCH  10  14
HETATM   14  C10 UNK     1      15.866   1.086  36.862  1.00  0.00     0.276 C 
HETATM   15  O3  UNK     1      14.671   0.931  36.636  1.00  0.00    -0.301 OA
ENDBRANCH  10  14
TORSDOF 1
ENDMDL
MODEL 4
REMARK VINA RESULT:      -6.3      6.642      8.214
REMARK  1 active torsions:
REMARK  status: ('A' for Active; 'I' for Inactive)
REMARK    1  A    between atoms: C10_15  and  C6_11 
ROOT
HETATM    1 Cl1  UNK     1      19.631 -11.065  38.414  1.00  0.00    -0.081 Cl
HETATM    2 Cl2  UNK     1      17.418  -7.441  35.110  1.00  0.00    -0.084 Cl
HETATM    3  O1  UNK     1      21.563  -8.934  39.008  1.00  0.00    -0.319 OA
HETATM    4  O2  UNK     1      21.665  -5.157  37.459  1.00  0.00    -0.286 OA
HETATM    5  C1  UNK     1      20.598  -7.264  37.528  1.00  0.00     0.052 A 
HETATM    6  C2  UNK     1      20.616  -8.540  38.094  1.00  0.00     0.111 A 
HETATM    7  C3  UNK     1      21.633  -6.290  37.921  1.00  0.00     0.200 A 
HETATM    8  C4  UNK     1      19.609  -6.918  36.603  1.00  0.00     0.042 A 
HETATM    9  C5  UNK     1      19.645  -9.476  37.738  1.00  0.00     0.070 A 
HETATM   10  C6  UNK     1      22.631  -6.767  38.903  1.00  0.00     0.075 A 
HETATM   11  C7  UNK     1      18.639  -7.857  36.249  1.00  0.00     0.036 A 
HETATM   12  C8  UNK     1      18.658  -9.133  36.815  1.00  0.00     0.050 A 
HETATM   13  C9  UNK     1      22.526  -8.019  39.362  1.00  0.00     0.161 A 
ENDROOT
BRANCH  10  14
HETATM   14  C10 UNK     1      23.731  -5.943  39.405  1.00  0.00     0.276 C 
HETATM   15  O3  UNK     1      24.670  -5.591  38.700  1.00  0.00    -0.301 OA
ENDBRANCH  10  14
TORSDOF 1
ENDMDL
MODEL 5
REMARK VINA RESULT:      -6.3      1.030      2.934
REMARK  1 active torsions:
REMARK  status: ('A' for Active; 'I' for Inactive)
REMARK    1  A    between atoms: C10_15  and  C6_11 
ROOT
HETATM    1 Cl1  UNK     1      17.107   0.594  34.981  1.00  0.00    -0.081 Cl
HETATM    2 Cl2  UNK     1      20.050  -3.081  37.588  1.00  0.00    -0.084 Cl
HETATM    3  O1  UNK     1      18.534  -0.359  32.598  1.00  0.00    -0.319 OA
HETATM    4  O2  UNK     1      21.370  -3.289  32.394  1.00  0.00    -0.286 OA
HETATM    5  C1  UNK     1      19.885  -2.032  33.732  1.00  0.00     0.052 A 
HETATM    6  C2  UNK     1      18.920  -1.023  33.737  1.00  0.00     0.111 A 
HETATM    7  C3  UNK     1      20.521  -2.411  32.457  1.00  0.00     0.200 A 
HETATM    8  C4  UNK     1      20.238  -2.673  34.923  1.00  0.00     0.042 A 
HETATM    9  C5  UNK     1      18.305  -0.649  34.932  1.00  0.00     0.070 A 
HETATM   10  C6  UNK     1      20.073  -1.662  31.263  1.00  0.00     0.075 A 
HETATM   11  C7  UNK     1      19.621  -2.297  36.117  1.00  0.00     0.036 A 
HETATM   12  C8  UNK     1      18.657  -1.288  36.121  1.00  0.00     0.050 A 
HETATM   13  C9  UNK     1      19.138  -0.718  31.416  1.00  0.00     0.161 A 
ENDROOT
BRANCH  10  14
HETATM   14  C10 UNK     1      20.595  -1.899  29.916  1.00  0.00     0.276 C 
HETATM   15  O3  UNK     1      20.819  -0.990  29.124  1.00  0.00    -0.301 OA
ENDBRANCH  10  14
TORSDOF 1
ENDMDL
MODEL 6
REMARK VINA RESULT:      -6.2     26.743     28.352
REMARK  1 active torsions:
REMARK  status: ('A' for Active; 'I' for Inactive)
REMARK    1  A    between atoms: C10_15  and  C6_11 
ROOT
HETATM    1 Cl1  UNK     1       9.501   6.639   5.022  1.00  0.00    -0.081 Cl
HETATM    2 Cl2  UNK     1       7.113   5.287   9.650  1.00  0.00    -0.084 Cl
HETATM    3  O1  UNK     1      11.988   6.462   6.575  1.00  0.00    -0.319 OA
HETATM    4  O2  UNK     1      12.400   5.511  10.524  1.00  0.00    -0.286 OA
HETATM    5  C1  UNK     1      10.953   5.850   8.687  1.00  0.00     0.052 A 
HETATM    6  C2  UNK     1      10.878   6.180   7.333  1.00  0.00     0.111 A 
HETATM    7  C3  UNK     1      12.274   5.797   9.341  1.00  0.00     0.200 A 
HETATM    8  C4  UNK     1       9.789   5.572   9.410  1.00  0.00     0.042 A 
HETATM    9  C5  UNK     1       9.638   6.235   6.695  1.00  0.00     0.070 A 
HETATM   10  C6  UNK     1      13.434   6.114   8.480  1.00  0.00     0.075 A 
HETATM   11  C7  UNK     1       8.551   5.628   8.769  1.00  0.00     0.036 A 
HETATM   12  C8  UNK     1       8.476   5.958   7.415  1.00  0.00     0.050 A 
HETATM   13  C9  UNK     1      13.213   6.415   7.196  1.00  0.00     0.161 A 
ENDROOT
BRANCH  10  14
HETATM   14  C10 UNK     1      14.818   6.115   8.956  1.00  0.00     0.276 C 
HETATM   15  O3  UNK     1      15.501   5.099   9.008  1.00  0.00    -0.301 OA
ENDBRANCH  10  14
TORSDOF 1
ENDMDL
MODEL 7
REMARK VINA RESULT:      -6.2      3.342      5.797
REMARK  1 active torsions:
REMARK  status: ('A' for Active; 'I' for Inactive)
REMARK    1  A    between atoms: C10_15  and  C6_11 
ROOT
HETATM    1 Cl1  UNK     1      19.019   2.066  29.724  1.00  0.00    -0.081 Cl
HETATM    2 Cl2  UNK     1      20.849  -2.972  30.197  1.00  0.00    -0.084 Cl
HETATM    3  O1  UNK     1      18.306   1.779  32.559  1.00  0.00    -0.319 OA
HETATM    4  O2  UNK     1      18.884  -1.475  34.958  1.00  0.00    -0.286 OA
HETATM    5  C1  UNK     1      19.120  -0.497  32.820  1.00  0.00     0.052 A 
HETATM    6  C2  UNK     1      18.896   0.647  32.052  1.00  0.00     0.111 A 
HETATM    7  C3  UNK     1      18.711  -0.501  34.237  1.00  0.00     0.200 A 
HETATM    8  C4  UNK     1      19.724  -1.621  32.251  1.00  0.00     0.042 A 
HETATM    9  C5  UNK     1      19.277   0.672  30.710  1.00  0.00     0.070 A 
HETATM   10  C6  UNK     1      18.076   0.740  34.730  1.00  0.00     0.075 A 
HETATM   11  C7  UNK     1      20.103  -1.592  30.908  1.00  0.00     0.036 A 
HETATM   12  C8  UNK     1      19.880  -0.449  30.139  1.00  0.00     0.050 A 
HETATM   13  C9  UNK     1      17.925   1.761  33.880  1.00  0.00     0.161 A 
ENDROOT
BRANCH  10  14
HETATM   14  C10 UNK     1      17.604   0.918  36.104  1.00  0.00     0.276 C 
HETATM   15  O3  UNK     1      18.329   1.323  37.006  1.00  0.00    -0.301 OA
ENDBRANCH  10  14
TORSDOF 1
ENDMDL
MODEL 8
REMARK VINA RESULT:      -6.1      6.146      7.609
REMARK  1 active torsions:
REMARK  status: ('A' for Active; 'I' for Inactive)
REMARK    1  A    between atoms: C10_15  and  C6_11 
ROOT
HETATM    1 Cl1  UNK     1      18.075   1.661  34.375  1.00  0.00    -0.081 Cl
HETATM    2 Cl2  UNK     1      19.150   1.263  29.118  1.00  0.00    -0.084 Cl
HETATM    3  O1  UNK     1      17.955   4.548  33.849  1.00  0.00    -0.319 OA
HETATM    4  O2  UNK     1      18.511   6.459  30.284  1.00  0.00    -0.286 OA
HETATM    5  C1  UNK     1      18.437   4.418  31.470  1.00  0.00     0.052 A 
HETATM    6  C2  UNK     1      18.236   3.823  32.717  1.00  0.00     0.111 A 
HETATM    7  C3  UNK     1      18.345   5.885  31.352  1.00  0.00     0.200 A 
HETATM    8  C4  UNK     1      18.721   3.629  30.352  1.00  0.00     0.042 A 
HETATM    9  C5  UNK     1      18.317   2.437  32.852  1.00  0.00     0.070 A 
HETATM   10  C6  UNK     1      18.046   6.617  32.601  1.00  0.00     0.075 A 
HETATM   11  C7  UNK     1      18.801   2.243  30.489  1.00  0.00     0.036 A 
HETATM   12  C8  UNK     1      18.600   1.648  31.736  1.00  0.00     0.050 A 
HETATM   13  C9  UNK     1      17.877   5.915  33.727  1.00  0.00     0.161 A 
ENDROOT
BRANCH  10  14
HETATM   14  C10 UNK     1      17.921   8.073  32.676  1.00  0.00     0.276 C 
HETATM   15  O3  UNK     1      16.883   8.664  32.399  1.00  0.00    -0.301 OA
ENDBRANCH  10  14
TORSDOF 1
ENDMDL
MODEL 9
REMARK VINA RESULT:      -6.1      7.123      8.351
REMARK  1 active torsions:
REMARK  status: ('A' for Active; 'I' for Inactive)
REMARK    1  A    between atoms: C10_15  and  C6_11 
ROOT
HETATM    1 Cl1  UNK     1      16.117   7.027  35.044  1.00  0.00    -0.081 Cl
HETATM    2 Cl2  UNK     1      20.816   9.631  34.734  1.00  0.00    -0.084 Cl
HETATM    3  O1  UNK     1      17.212   5.365  32.884  1.00  0.00    -0.319 OA
HETATM    4  O2  UNK     1      20.865   5.696  31.090  1.00  0.00    -0.286 OA
HETATM    5  C1  UNK     1      19.349   6.511  32.708  1.00  0.00     0.052 A 
HETATM    6  C2  UNK     1      18.087   6.346  33.283  1.00  0.00     0.111 A 
HETATM    7  C3  UNK     1      19.770   5.599  31.628  1.00  0.00     0.200 A 
HETATM    8  C4  UNK     1      20.198   7.527  33.154  1.00  0.00     0.042 A 
HETATM    9  C5  UNK     1      17.669   7.197  34.307  1.00  0.00     0.070 A 
HETATM   10  C6  UNK     1      18.788   4.566  31.235  1.00  0.00     0.075 A 
HETATM   11  C7  UNK     1      19.777   8.377  34.178  1.00  0.00     0.036 A 
HETATM   12  C8  UNK     1      18.515   8.212  34.753  1.00  0.00     0.050 A 
HETATM   13  C9  UNK     1      17.614   4.525  31.874  1.00  0.00     0.161 A 
ENDROOT
BRANCH  10  14
HETATM   14  C10 UNK     1      19.031   3.578  30.182  1.00  0.00     0.276 C 
HETATM   15  O3  UNK     1      18.707   2.401  30.292  1.00  0.00    -0.301 OA
ENDBRANCH  10  14
TORSDOF 1
ENDMDL
MODEL 10
REMARK VINA RESULT:      -6.1      9.315     10.930
REMARK  1 active torsions:
REMARK  status: ('A' for Active; 'I' for Inactive)
REMARK    1  A    between atoms: C10_15  and  C6_11 
ROOT
HETATM    1 Cl1  UNK     1      20.282   8.760  34.574  1.00  0.00    -0.081 Cl
HETATM    2 Cl2  UNK     1      19.483   4.957  30.853  1.00  0.00    -0.084 Cl
HETATM    3  O1  UNK     1      17.472   9.451  34.071  1.00  0.00    -0.319 OA
HETATM    4  O2  UNK     1      14.895   7.670  31.453  1.00  0.00    -0.286 OA
HETATM    5  C1  UNK     1      17.064   7.749  32.385  1.00  0.00     0.052 A 
HETATM    6  C2  UNK     1      17.896   8.398  33.298  1.00  0.00     0.111 A 
HETATM    7  C3  UNK     1      15.669   8.203  32.236  1.00  0.00     0.200 A 
HETATM    8  C4  UNK     1      17.551   6.681  31.625  1.00  0.00     0.042 A 
HETATM    9  C5  UNK     1      19.219   7.984  33.456  1.00  0.00     0.070 A 
HETATM   10  C6  UNK     1      15.266   9.343  33.088  1.00  0.00     0.075 A 
HETATM   11  C7  UNK     1      18.875   6.270  31.785  1.00  0.00     0.036 A 
HETATM   12  C8  UNK     1      19.707   6.919  32.698  1.00  0.00     0.050 A 
HETATM   13  C9  UNK     1      16.171   9.869  33.920  1.00  0.00     0.161 A 
ENDROOT
BRANCH  10  14
HETATM   14  C10 UNK     1      13.925   9.930  33.073  1.00  0.00     0.276 C 
HETATM   15  O3  UNK     1      13.715  11.094  32.753  1.00  0.00    -0.301 OA
ENDBRANCH  10  14
TORSDOF 1
ENDMDL
