MODEL 1
REMARK VINA RESULT:      -7.9      0.000      0.000
REMARK  5 active torsions:
REMARK  status: ('A' for Active; 'I' for Inactive)
REMARK    1  A    between atoms: C7_13  and  O2_2 
REMARK    2  A    between atoms: C5_11  and  O3_3 
REMARK    3  A    between atoms: C11_17  and  O4_4 
REMARK    4  A    between atoms: C14_20  and  O5_5 
REMARK    5  A    between atoms: C1_7  and  C2_8 
ROOT
HETATM    1  O1  UNK     1      18.984  -0.980  17.652  1.00  0.00    -0.306 OA
HETATM    2  O6  UNK     1      19.427   2.214  15.161  1.00  0.00    -0.284 OA
HETATM    3  C1  UNK     1      19.117  -1.144  16.281  1.00  0.00     0.126 A 
HETATM    4  C3  UNK     1      19.169   1.424  17.368  1.00  0.00     0.051 A 
HETATM    5  C4  UNK     1      19.017   0.291  18.164  1.00  0.00     0.093 A 
HETATM    6  C5  UNK     1      19.259  -0.135  15.403  1.00  0.00     0.152 A 
HETATM    7  C6  UNK     1      19.298   1.257  15.912  1.00  0.00     0.220 A 
HETATM    8  C8  UNK     1      18.890   0.422  19.547  1.00  0.00     0.075 A 
HETATM    9  C9  UNK     1      19.194   2.695  17.946  1.00  0.00     0.021 A 
HETATM   10  C11 UNK     1      18.915   1.690  20.129  1.00  0.00     0.070 A 
HETATM   11  C13 UNK     1      19.067   2.825  19.330  1.00  0.00     0.038 A 
ENDROOT
BRANCH   3  12
HETATM   12  C2  UNK     1      19.064  -2.557  15.864  1.00  0.00     0.034 A 
HETATM   13  C10 UNK     1      17.841  -3.100  15.465  1.00  0.00     0.020 A 
HETATM   14  C15 UNK     1      17.765  -4.434  15.065  1.00  0.00     0.038 A 
HETATM   15  C14 UNK     1      18.911  -5.229  15.065  1.00  0.00     0.070 A 
HETATM   16  C12 UNK     1      20.134  -4.688  15.464  1.00  0.00     0.074 A 
HETATM   17  C7  UNK     1      20.210  -3.354  15.864  1.00  0.00     0.084 A 
BRANCH  15  18
HETATM   18  O5  UNK     1      18.837  -6.530  14.676  1.00  0.00    -0.356 OA
HETATM   19  C18 UNK     1      17.766  -6.887  13.805  1.00  0.00     0.210 C 
ENDBRANCH  15  18
BRANCH  17  20
HETATM   20  O2  UNK     1      21.417  -2.851  16.249  1.00  0.00    -0.355 OA
HETATM   21  C16 UNK     1      22.073  -3.505  17.333  1.00  0.00     0.210 C 
ENDBRANCH  17  20
ENDBRANCH   3  12
BRANCH   6  22
HETATM   22  O3  UNK     1      19.356  -0.330  14.042  1.00  0.00    -0.355 OA
HETATM   23  H7  UNK     1      20.104   0.179  13.689  1.00  0.00     0.218 HD
ENDBRANCH   6  22
BRANCH  10  24
HETATM   24  O4  UNK     1      18.792   1.824  21.478  1.00  0.00    -0.356 OA
HETATM   25  C17 UNK     1      19.942   2.273  22.193  1.00  0.00     0.210 C 
ENDBRANCH  10  24
TORSDOF 5
ENDMDL
MODEL 2
REMARK VINA RESULT:      -7.9     12.885     17.708
REMARK  5 active torsions:
REMARK  status: ('A' for Active; 'I' for Inactive)
REMARK    1  A    between atoms: C7_13  and  O2_2 
REMARK    2  A    between atoms: C5_11  and  O3_3 
REMARK    3  A    between atoms: C11_17  and  O4_4 
REMARK    4  A    between atoms: C14_20  and  O5_5 
REMARK    5  A    between atoms: C1_7  and  C2_8 
ROOT
HETATM    1  O1  UNK     1      16.901   7.285  32.135  1.00  0.00    -0.306 OA
HETATM    2  O6  UNK     1      19.663   9.151  34.478  1.00  0.00    -0.284 OA
HETATM    3  C1  UNK     1      18.172   6.760  32.314  1.00  0.00     0.126 A 
HETATM    4  C3  UNK     1      17.477   9.137  33.595  1.00  0.00     0.051 A 
HETATM    5  C4  UNK     1      16.580   8.452  32.778  1.00  0.00     0.093 A 
HETATM    6  C5  UNK     1      19.132   7.326  33.066  1.00  0.00     0.152 A 
HETATM    7  C6  UNK     1      18.830   8.592  33.779  1.00  0.00     0.220 A 
HETATM    8  C8  UNK     1      15.291   8.951  32.585  1.00  0.00     0.075 A 
HETATM    9  C9  UNK     1      17.094  10.323  34.225  1.00  0.00     0.021 A 
HETATM   10  C11 UNK     1      14.904  10.135  33.213  1.00  0.00     0.070 A 
HETATM   11  C13 UNK     1      15.804  10.820  34.032  1.00  0.00     0.038 A 
ENDROOT
BRANCH   3  12
HETATM   12  C2  UNK     1      18.385   5.507  31.567  1.00  0.00     0.034 A 
HETATM   13  C10 UNK     1      18.788   5.573  30.232  1.00  0.00     0.020 A 
HETATM   14  C15 UNK     1      18.997   4.402  29.504  1.00  0.00     0.038 A 
HETATM   15  C14 UNK     1      18.803   3.161  30.111  1.00  0.00     0.070 A 
HETATM   16  C12 UNK     1      18.400   3.092  31.444  1.00  0.00     0.074 A 
HETATM   17  C7  UNK     1      18.191   4.264  32.172  1.00  0.00     0.084 A 
BRANCH  15  18
HETATM   18  O5  UNK     1      19.006   2.018  29.401  1.00  0.00    -0.356 OA
HETATM   19  C18 UNK     1      17.926   1.555  28.592  1.00  0.00     0.210 C 
ENDBRANCH  15  18
BRANCH  17  20
HETATM   20  O2  UNK     1      17.797   4.168  33.474  1.00  0.00    -0.355 OA
HETATM   21  C16 UNK     1      18.224   3.014  34.194  1.00  0.00     0.210 C 
ENDBRANCH  17  20
ENDBRANCH   3  12
BRANCH   6  22
HETATM   22  O3  UNK     1      20.397   6.795  33.197  1.00  0.00    -0.355 OA
HETATM   23  H7  UNK     1      20.722   6.937  34.102  1.00  0.00     0.218 HD
ENDBRANCH   6  22
BRANCH  10  24
HETATM   24  O4  UNK     1      13.648  10.625  33.028  1.00  0.00    -0.356 OA
HETATM   25  C17 UNK     1      13.539  11.958  32.530  1.00  0.00     0.210 C 
ENDBRANCH  10  24
TORSDOF 5
ENDMDL
MODEL 3
REMARK VINA RESULT:      -7.9     15.727     18.984
REMARK  5 active torsions:
REMARK  status: ('A' for Active; 'I' for Inactive)
REMARK    1  A    between atoms: C7_13  and  O2_2 
REMARK    2  A    between atoms: C5_11  and  O3_3 
REMARK    3  A    between atoms: C11_17  and  O4_4 
REMARK    4  A    between atoms: C14_20  and  O5_5 
REMARK    5  A    between atoms: C1_7  and  C2_8 
ROOT
HETATM    1  O1  UNK     1      18.292   4.075  34.386  1.00  0.00    -0.306 OA
HETATM    2  O6  UNK     1      18.371   2.003  30.878  1.00  0.00    -0.284 OA
HETATM    3  C1  UNK     1      18.305   4.725  33.162  1.00  0.00     0.126 A 
HETATM    4  C3  UNK     1      18.317   1.937  33.235  1.00  0.00     0.051 A 
HETATM    5  C4  UNK     1      18.293   2.703  34.398  1.00  0.00     0.093 A 
HETATM    6  C5  UNK     1      18.338   4.105  31.969  1.00  0.00     0.152 A 
HETATM    7  C6  UNK     1      18.344   2.622  31.933  1.00  0.00     0.220 A 
HETATM    8  C8  UNK     1      18.271   2.078  35.645  1.00  0.00     0.075 A 
HETATM    9  C9  UNK     1      18.318   0.542  33.308  1.00  0.00     0.021 A 
HETATM   10  C11 UNK     1      18.272   0.686  35.723  1.00  0.00     0.070 A 
HETATM   11  C13 UNK     1      18.295  -0.081  34.556  1.00  0.00     0.038 A 
ENDROOT
BRANCH   3  12
HETATM   12  C2  UNK     1      18.302   6.193  33.292  1.00  0.00     0.034 A 
HETATM   13  C10 UNK     1      19.415   6.827  33.851  1.00  0.00     0.020 A 
HETATM   14  C15 UNK     1      19.436   8.214  33.985  1.00  0.00     0.038 A 
HETATM   15  C14 UNK     1      18.345   8.973  33.560  1.00  0.00     0.070 A 
HETATM   16  C12 UNK     1      17.233   8.343  33.001  1.00  0.00     0.074 A 
HETATM   17  C7  UNK     1      17.211   6.954  32.868  1.00  0.00     0.084 A 
BRANCH  15  18
HETATM   18  O5  UNK     1      18.366  10.327  33.691  1.00  0.00    -0.356 OA
HETATM   19  C18 UNK     1      17.165  10.956  34.132  1.00  0.00     0.210 C 
ENDBRANCH  15  18
BRANCH  17  20
HETATM   20  O2  UNK     1      16.112   6.364  32.319  1.00  0.00    -0.355 OA
HETATM   21  C16 UNK     1      15.020   7.217  31.984  1.00  0.00     0.210 C 
ENDBRANCH  17  20
ENDBRANCH   3  12
BRANCH   6  22
HETATM   22  O3  UNK     1      18.384   4.782  30.769  1.00  0.00    -0.355 OA
HETATM   23  H7  UNK     1      17.540   5.237  30.617  1.00  0.00     0.218 HD
ENDBRANCH   6  22
BRANCH  10  24
HETATM   24  O4  UNK     1      18.249   0.071  36.938  1.00  0.00    -0.356 OA
HETATM   25  C17 UNK     1      17.583   0.754  37.998  1.00  0.00     0.210 C 
ENDBRANCH  10  24
TORSDOF 5
ENDMDL
MODEL 4
REMARK VINA RESULT:      -7.9     14.595     18.001
REMARK  5 active torsions:
REMARK  status: ('A' for Active; 'I' for Inactive)
REMARK    1  A    between atoms: C7_13  and  O2_2 
REMARK    2  A    between atoms: C5_11  and  O3_3 
REMARK    3  A    between atoms: C11_17  and  O4_4 
REMARK    4  A    between atoms: C14_20  and  O5_5 
REMARK    5  A    between atoms: C1_7  and  C2_8 
ROOT
HETATM    1  O1  UNK     1      18.043   3.425  33.332  1.00  0.00    -0.306 OA
HETATM    2  O6  UNK     1      19.212   1.911  29.734  1.00  0.00    -0.284 OA
HETATM    3  C1  UNK     1      18.234   4.245  32.230  1.00  0.00     0.126 A 
HETATM    4  C3  UNK     1      18.640   1.496  31.983  1.00  0.00     0.051 A 
HETATM    5  C4  UNK     1      18.244   2.077  33.186  1.00  0.00     0.093 A 
HETATM    6  C5  UNK     1      18.626   3.813  31.017  1.00  0.00     0.152 A 
HETATM    7  C6  UNK     1      18.857   2.362  30.814  1.00  0.00     0.220 A 
HETATM    8  C8  UNK     1      18.035   1.278  34.311  1.00  0.00     0.075 A 
HETATM    9  C9  UNK     1      18.830   0.115  31.895  1.00  0.00     0.021 A 
HETATM   10  C11 UNK     1      18.223  -0.101  34.227  1.00  0.00     0.070 A 
HETATM   11  C13 UNK     1      18.620  -0.682  33.021  1.00  0.00     0.038 A 
ENDROOT
BRANCH   3  12
HETATM   12  C2  UNK     1      17.987   5.667  32.522  1.00  0.00     0.034 A 
HETATM   13  C10 UNK     1      16.739   6.216  32.218  1.00  0.00     0.020 A 
HETATM   14  C15 UNK     1      16.480   7.559  32.486  1.00  0.00     0.038 A 
HETATM   15  C14 UNK     1      17.469   8.359  33.059  1.00  0.00     0.070 A 
HETATM   16  C12 UNK     1      18.716   7.814  33.364  1.00  0.00     0.074 A 
HETATM   17  C7  UNK     1      18.975   6.470  33.095  1.00  0.00     0.084 A 
BRANCH  15  18
HETATM   18  O5  UNK     1      17.216   9.670  33.319  1.00  0.00    -0.356 OA
HETATM   19  C18 UNK     1      18.273  10.432  33.901  1.00  0.00     0.210 C 
ENDBRANCH  15  18
BRANCH  17  20
HETATM   20  O2  UNK     1      20.202   5.963  33.403  1.00  0.00    -0.355 OA
HETATM   21  C16 UNK     1      21.296   6.379  32.589  1.00  0.00     0.210 C 
ENDBRANCH  17  20
ENDBRANCH   3  12
BRANCH   6  22
HETATM   22  O3  UNK     1      18.839   4.658  29.950  1.00  0.00    -0.355 OA
HETATM   23  H7  UNK     1      18.146   4.526  29.282  1.00  0.00     0.218 HD
ENDBRANCH   6  22
BRANCH  10  24
HETATM   24  O4  UNK     1      18.020  -0.886  35.321  1.00  0.00    -0.356 OA
HETATM   25  C17 UNK     1      17.772  -0.219  36.558  1.00  0.00     0.210 C 
ENDBRANCH  10  24
TORSDOF 5
ENDMDL
MODEL 5
REMARK VINA RESULT:      -7.7     12.209     14.961
REMARK  5 active torsions:
REMARK  status: ('A' for Active; 'I' for Inactive)
REMARK    1  A    between atoms: C7_13  and  O2_2 
REMARK    2  A    between atoms: C5_11  and  O3_3 
REMARK    3  A    between atoms: C11_17  and  O4_4 
REMARK    4  A    between atoms: C14_20  and  O5_5 
REMARK    5  A    between atoms: C1_7  and  C2_8 
ROOT
HETATM    1  O1  UNK     1      11.686   8.081   9.100  1.00  0.00    -0.306 OA
HETATM    2  O6  UNK     1      11.157   5.817   5.754  1.00  0.00    -0.284 OA
HETATM    3  C1  UNK     1      12.757   7.708   8.302  1.00  0.00     0.126 A 
HETATM    4  C3  UNK     1      10.179   6.910   7.600  1.00  0.00     0.051 A 
HETATM    5  C4  UNK     1      10.426   7.682   8.733  1.00  0.00     0.093 A 
HETATM    6  C5  UNK     1      12.654   6.957   7.191  1.00  0.00     0.152 A 
HETATM    7  C6  UNK     1      11.312   6.499   6.757  1.00  0.00     0.220 A 
HETATM    8  C8  UNK     1       9.369   8.081   9.550  1.00  0.00     0.075 A 
HETATM    9  C9  UNK     1       8.874   6.531   7.275  1.00  0.00     0.021 A 
HETATM   10  C11 UNK     1       8.065   7.706   9.230  1.00  0.00     0.070 A 
HETATM   11  C13 UNK     1       7.817   6.932   8.094  1.00  0.00     0.038 A 
ENDROOT
BRANCH   3  12
HETATM   12  C2  UNK     1      14.050   8.201   8.810  1.00  0.00     0.034 A 
HETATM   13  C10 UNK     1      14.544   9.419   8.337  1.00  0.00     0.020 A 
HETATM   14  C15 UNK     1      15.765   9.907   8.802  1.00  0.00     0.038 A 
HETATM   15  C14 UNK     1      16.495   9.178   9.741  1.00  0.00     0.070 A 
HETATM   16  C12 UNK     1      16.004   7.961  10.215  1.00  0.00     0.074 A 
HETATM   17  C7  UNK     1      14.782   7.473   9.749  1.00  0.00     0.084 A 
BRANCH  15  18
HETATM   18  O5  UNK     1      17.686   9.654  10.194  1.00  0.00    -0.356 OA
HETATM   19  C18 UNK     1      18.040  10.983   9.818  1.00  0.00     0.210 C 
ENDBRANCH  15  18
BRANCH  17  20
HETATM   20  O2  UNK     1      14.325   6.282  10.228  1.00  0.00    -0.355 OA
HETATM   21  C16 UNK     1      15.071   5.117   9.882  1.00  0.00     0.210 C 
ENDBRANCH  17  20
ENDBRANCH   3  12
BRANCH   6  22
HETATM   22  O3  UNK     1      13.744   6.575   6.438  1.00  0.00    -0.355 OA
HETATM   23  H7  UNK     1      13.829   5.607   6.449  1.00  0.00     0.218 HD
ENDBRANCH   6  22
BRANCH  10  24
HETATM   24  O4  UNK     1       7.029   8.093  10.024  1.00  0.00    -0.356 OA
HETATM   25  C17 UNK     1       6.705   7.246  11.125  1.00  0.00     0.210 C 
ENDBRANCH  10  24
TORSDOF 5
ENDMDL
MODEL 6
REMARK VINA RESULT:      -7.5     12.993     15.070
REMARK  5 active torsions:
REMARK  status: ('A' for Active; 'I' for Inactive)
REMARK    1  A    between atoms: C7_13  and  O2_2 
REMARK    2  A    between atoms: C5_11  and  O3_3 
REMARK    3  A    between atoms: C11_17  and  O4_4 
REMARK    4  A    between atoms: C14_20  and  O5_5 
REMARK    5  A    between atoms: C1_7  and  C2_8 
ROOT
HETATM    1  O1  UNK     1      10.275   5.415   9.690  1.00  0.00    -0.306 OA
HETATM    2  O6  UNK     1      10.376   6.961   5.922  1.00  0.00    -0.284 OA
HETATM    3  C1  UNK     1       9.110   5.719   9.001  1.00  0.00     0.126 A 
HETATM    4  C3  UNK     1      11.580   6.157   7.782  1.00  0.00     0.051 A 
HETATM    5  C4  UNK     1      11.478   5.634   9.069  1.00  0.00     0.093 A 
HETATM    6  C5  UNK     1       9.072   6.237   7.761  1.00  0.00     0.152 A 
HETATM    7  C6  UNK     1      10.349   6.494   7.051  1.00  0.00     0.220 A 
HETATM    8  C8  UNK     1      12.630   5.310   9.785  1.00  0.00     0.075 A 
HETATM    9  C9  UNK     1      12.834   6.359   7.201  1.00  0.00     0.021 A 
HETATM   10  C11 UNK     1      13.884   5.510   9.208  1.00  0.00     0.070 A 
HETATM   11  C13 UNK     1      13.986   6.034   7.918  1.00  0.00     0.038 A 
ENDROOT
BRANCH   3  12
HETATM   12  C2  UNK     1       7.892   5.437   9.781  1.00  0.00     0.034 A 
HETATM   13  C10 UNK     1       7.333   4.158   9.728  1.00  0.00     0.020 A 
HETATM   14  C15 UNK     1       6.181   3.867  10.457  1.00  0.00     0.038 A 
HETATM   15  C14 UNK     1       5.583   4.855  11.241  1.00  0.00     0.070 A 
HETATM   16  C12 UNK     1       6.139   6.133  11.295  1.00  0.00     0.074 A 
HETATM   17  C7  UNK     1       7.292   6.424  10.565  1.00  0.00     0.084 A 
BRANCH  15  18
HETATM   18  O5  UNK     1       4.459   4.570  11.952  1.00  0.00    -0.356 OA
HETATM   19  C18 UNK     1       4.239   3.206  12.302  1.00  0.00     0.210 C 
ENDBRANCH  15  18
BRANCH  17  20
HETATM   20  O2  UNK     1       7.815   7.681  10.636  1.00  0.00    -0.355 OA
HETATM   21  C16 UNK     1       6.953   8.713  11.111  1.00  0.00     0.210 C 
ENDBRANCH  17  20
ENDBRANCH   3  12
BRANCH   6  22
HETATM   22  O3  UNK     1       7.897   6.559   7.115  1.00  0.00    -0.355 OA
HETATM   23  H7  UNK     1       7.840   6.075   6.275  1.00  0.00     0.218 HD
ENDBRANCH   6  22
BRANCH  10  24
HETATM   24  O4  UNK     1      15.013   5.194   9.902  1.00  0.00    -0.356 OA
HETATM   25  C17 UNK     1      16.106   6.106   9.810  1.00  0.00     0.210 C 
ENDBRANCH  10  24
TORSDOF 5
ENDMDL
MODEL 7
REMARK VINA RESULT:      -7.4     19.731     22.385
REMARK  5 active torsions:
REMARK  status: ('A' for Active; 'I' for Inactive)
REMARK    1  A    between atoms: C7_13  and  O2_2 
REMARK    2  A    between atoms: C5_11  and  O3_3 
REMARK    3  A    between atoms: C11_17  and  O4_4 
REMARK    4  A    between atoms: C14_20  and  O5_5 
REMARK    5  A    between atoms: C1_7  and  C2_8 
ROOT
HETATM    1  O1  UNK     1      23.346  -8.557  37.283  1.00  0.00    -0.306 OA
HETATM    2  O6  UNK     1      24.607 -11.927  35.370  1.00  0.00    -0.284 OA
HETATM    3  C1  UNK     1      22.505  -9.269  36.441  1.00  0.00     0.126 A 
HETATM    4  C3  UNK     1      25.114 -10.165  36.853  1.00  0.00     0.051 A 
HETATM    5  C4  UNK     1      24.623  -9.019  37.475  1.00  0.00     0.093 A 
HETATM    6  C5  UNK     1      22.859 -10.382  35.774  1.00  0.00     0.152 A 
HETATM    7  C6  UNK     1      24.231 -10.917  35.949  1.00  0.00     0.220 A 
HETATM    8  C8  UNK     1      25.441  -8.287  38.335  1.00  0.00     0.075 A 
HETATM    9  C9  UNK     1      26.425 -10.588  37.086  1.00  0.00     0.021 A 
HETATM   10  C11 UNK     1      26.751  -8.705  38.570  1.00  0.00     0.070 A 
HETATM   11  C13 UNK     1      27.242  -9.854  37.947  1.00  0.00     0.038 A 
ENDROOT
BRANCH   3  12
HETATM   12  C2  UNK     1      21.166  -8.665  36.323  1.00  0.00     0.034 A 
HETATM   13  C10 UNK     1      20.901  -7.806  35.254  1.00  0.00     0.020 A 
HETATM   14  C15 UNK     1      19.641  -7.223  35.121  1.00  0.00     0.038 A 
HETATM   15  C14 UNK     1      18.643  -7.497  36.056  1.00  0.00     0.070 A 
HETATM   16  C12 UNK     1      18.905  -8.355  37.125  1.00  0.00     0.074 A 
HETATM   17  C7  UNK     1      20.166  -8.938  37.258  1.00  0.00     0.084 A 
BRANCH  15  18
HETATM   18  O5  UNK     1      17.414  -6.927  35.926  1.00  0.00    -0.356 OA
HETATM   19  C18 UNK     1      16.543  -7.481  34.942  1.00  0.00     0.210 C 
ENDBRANCH  15  18
BRANCH  17  20
HETATM   20  O2  UNK     1      20.396  -9.772  38.312  1.00  0.00    -0.355 OA
HETATM   21  C16 UNK     1      19.372 -10.714  38.625  1.00  0.00     0.210 C 
ENDBRANCH  17  20
ENDBRANCH   3  12
BRANCH   6  22
HETATM   22  O3  UNK     1      22.008 -11.049  34.918  1.00  0.00    -0.355 OA
HETATM   23  H7  UNK     1      22.500 -11.729  34.429  1.00  0.00     0.218 HD
ENDBRANCH   6  22
BRANCH  10  24
HETATM   24  O4  UNK     1      27.554  -7.994  39.409  1.00  0.00    -0.356 OA
HETATM   25  C17 UNK     1      28.128  -6.794  38.893  1.00  0.00     0.210 C 
ENDBRANCH  10  24
TORSDOF 5
ENDMDL
MODEL 8
REMARK VINA RESULT:      -7.4     12.229     14.631
REMARK  5 active torsions:
REMARK  status: ('A' for Active; 'I' for Inactive)
REMARK    1  A    between atoms: C7_13  and  O2_2 
REMARK    2  A    between atoms: C5_11  and  O3_3 
REMARK    3  A    between atoms: C11_17  and  O4_4 
REMARK    4  A    between atoms: C14_20  and  O5_5 
REMARK    5  A    between atoms: C1_7  and  C2_8 
ROOT
HETATM    1  O1  UNK     1      14.281   9.260   8.247  1.00  0.00    -0.306 OA
HETATM    2  O6  UNK     1      16.739   7.682  11.088  1.00  0.00    -0.284 OA
HETATM    3  C1  UNK     1      13.989   8.055   8.867  1.00  0.00     0.126 A 
HETATM    4  C3  UNK     1      16.299   9.445   9.585  1.00  0.00     0.051 A 
HETATM    5  C4  UNK     1      15.419   9.929   8.619  1.00  0.00     0.093 A 
HETATM    6  C5  UNK     1      14.759   7.475   9.805  1.00  0.00     0.152 A 
HETATM    7  C6  UNK     1      16.002   8.160  10.238  1.00  0.00     0.220 A 
HETATM    8  C8  UNK     1      15.680  11.142   7.983  1.00  0.00     0.075 A 
HETATM    9  C9  UNK     1      17.444  10.169   9.923  1.00  0.00     0.021 A 
HETATM   10  C11 UNK     1      16.823  11.869   8.318  1.00  0.00     0.070 A 
HETATM   11  C13 UNK     1      17.703  11.384   9.286  1.00  0.00     0.038 A 
ENDROOT
BRANCH   3  12
HETATM   12  C2  UNK     1      12.742   7.443   8.375  1.00  0.00     0.034 A 
HETATM   13  C10 UNK     1      12.791   6.613   7.253  1.00  0.00     0.020 A 
HETATM   14  C15 UNK     1      11.624   6.022   6.769  1.00  0.00     0.038 A 
HETATM   15  C14 UNK     1      10.406   6.260   7.405  1.00  0.00     0.070 A 
HETATM   16  C12 UNK     1      10.355   7.089   8.526  1.00  0.00     0.074 A 
HETATM   17  C7  UNK     1      11.522   7.681   9.010  1.00  0.00     0.084 A 
BRANCH  15  18
HETATM   18  O5  UNK     1       9.268   5.684   6.932  1.00  0.00    -0.356 OA
HETATM   19  C18 UNK     1       8.110   5.756   7.762  1.00  0.00     0.210 C 
ENDBRANCH  15  18
BRANCH  17  20
HETATM   20  O2  UNK     1      11.444   8.486  10.107  1.00  0.00    -0.355 OA
HETATM   21  C16 UNK     1      10.755   9.725   9.951  1.00  0.00     0.210 C 
ENDBRANCH  17  20
ENDBRANCH   3  12
BRANCH   6  22
HETATM   22  O3  UNK     1      14.458   6.259  10.380  1.00  0.00    -0.355 OA
HETATM   23  H7  UNK     1      15.111   5.594  10.106  1.00  0.00     0.218 HD
ENDBRANCH   6  22
BRANCH  10  24
HETATM   24  O4  UNK     1      17.082  13.055   7.700  1.00  0.00    -0.356 OA
HETATM   25  C17 UNK     1      17.921  13.015   6.547  1.00  0.00     0.210 C 
ENDBRANCH  10  24
TORSDOF 5
ENDMDL
MODEL 9
REMARK VINA RESULT:      -7.4     13.520     15.722
REMARK  5 active torsions:
REMARK  status: ('A' for Active; 'I' for Inactive)
REMARK    1  A    between atoms: C7_13  and  O2_2 
REMARK    2  A    between atoms: C5_11  and  O3_3 
REMARK    3  A    between atoms: C11_17  and  O4_4 
REMARK    4  A    between atoms: C14_20  and  O5_5 
REMARK    5  A    between atoms: C1_7  and  C2_8 
ROOT
HETATM    1  O1  UNK     1       9.728   6.063   9.720  1.00  0.00    -0.306 OA
HETATM    2  O6  UNK     1       9.698   6.742   5.703  1.00  0.00    -0.284 OA
HETATM    3  C1  UNK     1       8.575   6.462   9.063  1.00  0.00     0.126 A 
HETATM    4  C3  UNK     1      10.927   6.097   7.609  1.00  0.00     0.051 A 
HETATM    5  C4  UNK     1      10.872   5.885   8.985  1.00  0.00     0.093 A 
HETATM    6  C5  UNK     1       8.497   6.710   7.743  1.00  0.00     0.152 A 
HETATM    7  C6  UNK     1       9.710   6.533   6.908  1.00  0.00     0.220 A 
HETATM    8  C8  UNK     1      12.013   5.475   9.674  1.00  0.00     0.075 A 
HETATM    9  C9  UNK     1      12.121   5.901   6.912  1.00  0.00     0.021 A 
HETATM   10  C11 UNK     1      13.208   5.277   8.982  1.00  0.00     0.070 A 
HETATM   11  C13 UNK     1      13.262   5.490   7.603  1.00  0.00     0.038 A 
ENDROOT
BRANCH   3  12
HETATM   12  C2  UNK     1       7.422   6.617   9.968  1.00  0.00     0.034 A 
HETATM   13  C10 UNK     1       7.199   7.853  10.577  1.00  0.00     0.020 A 
HETATM   14  C15 UNK     1       6.115   8.024  11.437  1.00  0.00     0.038 A 
HETATM   15  C14 UNK     1       5.251   6.959  11.691  1.00  0.00     0.070 A 
HETATM   16  C12 UNK     1       5.472   5.722  11.084  1.00  0.00     0.074 A 
HETATM   17  C7  UNK     1       6.557   5.551  10.224  1.00  0.00     0.084 A 
BRANCH  15  18
HETATM   18  O5  UNK     1       4.194   7.126  12.531  1.00  0.00    -0.356 OA
HETATM   19  C18 UNK     1       3.981   6.116  13.516  1.00  0.00     0.210 C 
ENDBRANCH  15  18
BRANCH  17  20
HETATM   20  O2  UNK     1       6.750   4.333   9.644  1.00  0.00    -0.355 OA
HETATM   21  C16 UNK     1       6.272   3.195  10.357  1.00  0.00     0.210 C 
ENDBRANCH  17  20
ENDBRANCH   3  12
BRANCH   6  22
HETATM   22  O3  UNK     1       7.341   7.138   7.124  1.00  0.00    -0.355 OA
HETATM   23  H7  UNK     1       7.031   6.459   6.503  1.00  0.00     0.218 HD
ENDBRANCH   6  22
BRANCH  10  24
HETATM   24  O4  UNK     1      14.325   4.876   9.649  1.00  0.00    -0.356 OA
HETATM   25  C17 UNK     1      15.204   5.899  10.115  1.00  0.00     0.210 C 
ENDBRANCH  10  24
TORSDOF 5
ENDMDL
MODEL 10
REMARK VINA RESULT:      -7.4     15.302     20.270
REMARK  5 active torsions:
REMARK  status: ('A' for Active; 'I' for Inactive)
REMARK    1  A    between atoms: C7_13  and  O2_2 
REMARK    2  A    between atoms: C5_11  and  O3_3 
REMARK    3  A    between atoms: C11_17  and  O4_4 
REMARK    4  A    between atoms: C14_20  and  O5_5 
REMARK    5  A    between atoms: C1_7  and  C2_8 
ROOT
HETATM    1  O1  UNK     1      17.836  10.664  33.528  1.00  0.00    -0.306 OA
HETATM    2  O6  UNK     1      14.613  10.388  36.005  1.00  0.00    -0.284 OA
HETATM    3  C1  UNK     1      17.230   9.446  33.793  1.00  0.00     0.126 A 
HETATM    4  C3  UNK     1      16.218  11.766  34.964  1.00  0.00     0.051 A 
HETATM    5  C4  UNK     1      17.319  11.792  34.110  1.00  0.00     0.093 A 
HETATM    6  C5  UNK     1      16.170   9.282  34.605  1.00  0.00     0.152 A 
HETATM    7  C6  UNK     1      15.578  10.475  35.259  1.00  0.00     0.220 A 
HETATM    8  C8  UNK     1      17.946  13.003  33.817  1.00  0.00     0.075 A 
HETATM    9  C9  UNK     1      15.736  12.948  35.530  1.00  0.00     0.021 A 
HETATM   10  C11 UNK     1      17.467  14.186  34.380  1.00  0.00     0.070 A 
HETATM   11  C13 UNK     1      16.364  14.159  35.235  1.00  0.00     0.038 A 
ENDROOT
BRANCH   3  12
HETATM   12  C2  UNK     1      17.883   8.317  33.106  1.00  0.00     0.034 A 
HETATM   13  C10 UNK     1      19.073   7.803  33.627  1.00  0.00     0.020 A 
HETATM   14  C15 UNK     1      19.710   6.736  32.996  1.00  0.00     0.038 A 
HETATM   15  C14 UNK     1      19.160   6.180  31.840  1.00  0.00     0.070 A 
HETATM   16  C12 UNK     1      17.972   6.692  31.317  1.00  0.00     0.074 A 
HETATM   17  C7  UNK     1      17.335   7.760  31.949  1.00  0.00     0.084 A 
BRANCH  15  18
HETATM   18  O5  UNK     1      19.782   5.139  31.224  1.00  0.00    -0.356 OA
HETATM   19  C18 UNK     1      19.012   4.383  30.291  1.00  0.00     0.210 C 
ENDBRANCH  15  18
BRANCH  17  20
HETATM   20  O2  UNK     1      16.176   8.241  31.417  1.00  0.00    -0.355 OA
HETATM   21  C16 UNK     1      14.992   7.482  31.653  1.00  0.00     0.210 C 
ENDBRANCH  17  20
ENDBRANCH   3  12
BRANCH   6  22
HETATM   22  O3  UNK     1      15.610   8.052  34.873  1.00  0.00    -0.355 OA
HETATM   23  H7  UNK     1      15.273   8.035  35.784  1.00  0.00     0.218 HD
ENDBRANCH   6  22
BRANCH  10  24
HETATM   24  O4  UNK     1      18.075  15.371  34.097  1.00  0.00    -0.356 OA
HETATM   25  C17 UNK     1      19.344  15.310  33.448  1.00  0.00     0.210 C 
ENDBRANCH  10  24
TORSDOF 5
ENDMDL
