MODEL 1
REMARK VINA RESULT:      -8.9      0.000      0.000
REMARK  6 active torsions:
REMARK  status: ('A' for Active; 'I' for Inactive)
REMARK    1  A    between atoms: C2_7  and  O1_3 
REMARK    2  A    between atoms: C3_8  and  O1_3 
REMARK    3  A    between atoms: C5_10  and  O2_4 
REMARK    4  A    between atoms: C1_6  and  C2_7 
REMARK    5  A    between atoms: C12_17  and  C4_9 
REMARK    6  A    between atoms: C15_20  and  C16_21 
ROOT
HETATM    1  N1  UNK     1      17.911   2.699  33.948  1.00  0.00    -0.191 NA
HETATM    2  C12 UNK     1      18.265   4.647  31.125  1.00  0.00     0.036 C 
HETATM    3  C15 UNK     1      18.334   3.331  31.462  1.00  0.00     0.055 C 
HETATM    4  C24 UNK     1      18.098   2.991  32.841  1.00  0.00     0.100 C 
ENDROOT
BRANCH   3   5
HETATM    5  C16 UNK     1      18.620   2.266  30.513  1.00  0.00    -0.015 A 
HETATM    6  C18 UNK     1      19.512   1.249  30.854  1.00  0.00     0.016 A 
HETATM    7  C20 UNK     1      19.787   0.227  29.945  1.00  0.00     0.043 A 
HETATM    8  C22 UNK     1      19.170   0.223  28.695  1.00  0.00     0.116 A 
HETATM    9  C21 UNK     1      18.277   1.240  28.353  1.00  0.00     0.043 A 
HETATM   10  F1  UNK     1      19.435  -0.756  27.820  1.00  0.00    -0.206 F 
HETATM   11  C19 UNK     1      18.003   2.262  29.263  1.00  0.00     0.016 A 
ENDBRANCH   3   5
BRANCH   2  12
HETATM   12  C4  UNK     1      17.973   5.754  32.048  1.00  0.00    -0.015 A 
HETATM   13  C6  UNK     1      16.636   6.015  32.320  1.00  0.00     0.052 A 
HETATM   14  C5  UNK     1      16.300   7.054  33.189  1.00  0.00     0.102 A 
HETATM   15  C3  UNK     1      17.304   7.821  33.777  1.00  0.00     0.103 A 
HETATM   16  C7  UNK     1      18.644   7.551  33.498  1.00  0.00     0.059 A 
HETATM   17  C8  UNK     1      18.979   6.513  32.629  1.00  0.00     0.024 A 
HETATM   18 Br1  UNK     1      20.822   6.199  32.292  1.00  0.00    -0.050 Br
BRANCH  14  19
HETATM   19  O2  UNK     1      14.988   7.308  33.454  1.00  0.00    -0.353 OA
HETATM   20  C23 UNK     1      14.077   7.220  32.359  1.00  0.00     0.210 C 
ENDBRANCH  14  19
BRANCH  15  21
HETATM   21  O1  UNK     1      16.990   8.838  34.627  1.00  0.00    -0.344 OA
BRANCH  21  22
HETATM   22  C2  UNK     1      17.061  10.164  34.107  1.00  0.00     0.214 C 
BRANCH  22  23
HETATM   23  C1  UNK     1      15.698  10.789  34.168  1.00  0.00    -0.034 A 
HETATM   24  C9  UNK     1      14.857  10.717  33.063  1.00  0.00     0.010 A 
HETATM   25  C13 UNK     1      13.591  11.298  33.119  1.00  0.00     0.007 A 
HETATM   26  C11 UNK     1      13.173  11.950  34.280  1.00  0.00    -0.062 A 
HETATM   27  C14 UNK     1      14.023  12.019  35.385  1.00  0.00     0.007 A 
HETATM   28  C17 UNK     1      11.819  12.572  34.341  1.00  0.00     0.048 C 
HETATM   29  C10 UNK     1      15.289  11.437  35.328  1.00  0.00     0.010 A 
ENDBRANCH  22  23
ENDBRANCH  21  22
ENDBRANCH  15  21
ENDBRANCH   2  12
TORSDOF 6
ENDMDL
MODEL 2
REMARK VINA RESULT:      -8.6      6.226      8.186
REMARK  6 active torsions:
REMARK  status: ('A' for Active; 'I' for Inactive)
REMARK    1  A    between atoms: C2_7  and  O1_3 
REMARK    2  A    between atoms: C3_8  and  O1_3 
REMARK    3  A    between atoms: C5_10  and  O2_4 
REMARK    4  A    between atoms: C1_6  and  C2_7 
REMARK    5  A    between atoms: C12_17  and  C4_9 
REMARK    6  A    between atoms: C15_20  and  C16_21 
ROOT
HETATM    1  N1  UNK     1      21.902  -1.716  35.372  1.00  0.00    -0.191 NA
HETATM    2  C12 UNK     1      18.543  -2.252  35.938  1.00  0.00     0.036 C 
HETATM    3  C15 UNK     1      19.721  -2.896  36.154  1.00  0.00     0.055 C 
HETATM    4  C24 UNK     1      20.923  -2.235  35.717  1.00  0.00     0.100 C 
ENDROOT
BRANCH   3   5
HETATM    5  C16 UNK     1      19.828  -4.195  36.800  1.00  0.00    -0.015 A 
HETATM    6  C18 UNK     1      18.863  -5.174  36.562  1.00  0.00     0.016 A 
HETATM    7  C20 UNK     1      18.964  -6.419  37.182  1.00  0.00     0.043 A 
HETATM    8  C22 UNK     1      20.031  -6.686  38.039  1.00  0.00     0.116 A 
HETATM    9  C21 UNK     1      20.997  -5.707  38.277  1.00  0.00     0.043 A 
HETATM   10  F1  UNK     1      20.128  -7.881  38.636  1.00  0.00    -0.206 F 
HETATM   11  C19 UNK     1      20.895  -4.461  37.657  1.00  0.00     0.016 A 
ENDBRANCH   3   5
BRANCH   2  12
HETATM   12  C4  UNK     1      18.390  -0.938  35.295  1.00  0.00    -0.015 A 
HETATM   13  C6  UNK     1      18.585  -0.878  33.922  1.00  0.00     0.052 A 
HETATM   14  C5  UNK     1      18.452   0.343  33.260  1.00  0.00     0.102 A 
HETATM   15  C3  UNK     1      18.125   1.493  33.978  1.00  0.00     0.103 A 
HETATM   16  C7  UNK     1      17.932   1.422  35.358  1.00  0.00     0.059 A 
HETATM   17  C8  UNK     1      18.065   0.202  36.019  1.00  0.00     0.024 A 
HETATM   18 Br1  UNK     1      17.788   0.176  37.899  1.00  0.00    -0.050 Br
BRANCH  14  19
HETATM   19  O2  UNK     1      18.643   0.400  31.912  1.00  0.00    -0.353 OA
HETATM   20  C23 UNK     1      19.655  -0.444  31.366  1.00  0.00     0.210 C 
ENDBRANCH  14  19
BRANCH  15  21
HETATM   21  O1  UNK     1      17.993   2.691  33.344  1.00  0.00    -0.344 OA
BRANCH  21  22
HETATM   22  C2  UNK     1      18.536   3.835  33.999  1.00  0.00     0.214 C 
BRANCH  22  23
HETATM   23  C1  UNK     1      17.896   5.072  33.439  1.00  0.00    -0.034 A 
HETATM   24  C9  UNK     1      17.380   6.032  34.301  1.00  0.00     0.010 A 
HETATM   25  C13 UNK     1      16.786   7.181  33.780  1.00  0.00     0.007 A 
HETATM   26  C11 UNK     1      16.709   7.361  32.399  1.00  0.00    -0.062 A 
HETATM   27  C14 UNK     1      17.229   6.393  31.540  1.00  0.00     0.007 A 
HETATM   28  C17 UNK     1      16.074   8.590  31.841  1.00  0.00     0.048 C 
HETATM   29  C10 UNK     1      17.825   5.244  32.061  1.00  0.00     0.010 A 
ENDBRANCH  22  23
ENDBRANCH  21  22
ENDBRANCH  15  21
ENDBRANCH   2  12
TORSDOF 6
ENDMDL
MODEL 3
REMARK VINA RESULT:      -8.4     18.651     20.675
REMARK  6 active torsions:
REMARK  status: ('A' for Active; 'I' for Inactive)
REMARK    1  A    between atoms: C2_7  and  O1_3 
REMARK    2  A    between atoms: C3_8  and  O1_3 
REMARK    3  A    between atoms: C5_10  and  O2_4 
REMARK    4  A    between atoms: C1_6  and  C2_7 
REMARK    5  A    between atoms: C12_17  and  C4_9 
REMARK    6  A    between atoms: C15_20  and  C16_21 
ROOT
HETATM    1  N1  UNK     1      27.329 -10.311  39.768  1.00  0.00    -0.191 NA
HETATM    2  C12 UNK     1      27.438  -8.732  36.705  1.00  0.00     0.036 C 
HETATM    3  C15 UNK     1      26.626  -9.599  37.369  1.00  0.00     0.055 C 
HETATM    4  C24 UNK     1      27.024  -9.987  38.696  1.00  0.00     0.100 C 
ENDROOT
BRANCH   3   5
HETATM    5  C16 UNK     1      25.393 -10.138  36.817  1.00  0.00    -0.015 A 
HETATM    6  C18 UNK     1      24.235  -9.359  36.805  1.00  0.00     0.016 A 
HETATM    7  C20 UNK     1      23.052  -9.876  36.276  1.00  0.00     0.043 A 
HETATM    8  C22 UNK     1      23.027 -11.171  35.759  1.00  0.00     0.116 A 
HETATM    9  C21 UNK     1      24.185 -11.950  35.770  1.00  0.00     0.043 A 
HETATM   10  F1  UNK     1      21.891 -11.668  35.253  1.00  0.00    -0.206 F 
HETATM   11  C19 UNK     1      25.368 -11.433  36.300  1.00  0.00     0.016 A 
ENDBRANCH   3   5
BRANCH   2  12
HETATM   12  C4  UNK     1      28.687  -8.159  37.225  1.00  0.00    -0.015 A 
HETATM   13  C6  UNK     1      29.870  -8.800  36.881  1.00  0.00     0.052 A 
HETATM   14  C5  UNK     1      31.086  -8.299  37.347  1.00  0.00     0.102 A 
HETATM   15  C3  UNK     1      31.108  -7.161  38.153  1.00  0.00     0.103 A 
HETATM   16  C7  UNK     1      29.914  -6.524  38.493  1.00  0.00     0.059 A 
HETATM   17  C8  UNK     1      28.699  -7.025  38.028  1.00  0.00     0.024 A 
HETATM   18 Br1  UNK     1      27.111  -6.110  38.528  1.00  0.00    -0.050 Br
BRANCH  14  19
HETATM   19  O2  UNK     1      32.245  -8.929  37.008  1.00  0.00    -0.353 OA
HETATM   20  C23 UNK     1      32.542  -9.036  35.617  1.00  0.00     0.210 C 
ENDBRANCH  14  19
BRANCH  15  21
HETATM   21  O1  UNK     1      32.288  -6.661  38.614  1.00  0.00    -0.344 OA
BRANCH  21  22
HETATM   22  C2  UNK     1      32.693  -5.389  38.116  1.00  0.00     0.214 C 
BRANCH  22  23
HETATM   23  C1  UNK     1      33.441  -5.581  36.828  1.00  0.00    -0.034 A 
HETATM   24  C9  UNK     1      32.873  -5.157  35.633  1.00  0.00     0.010 A 
HETATM   25  C13 UNK     1      33.567  -5.336  34.436  1.00  0.00     0.007 A 
HETATM   26  C11 UNK     1      34.824  -5.940  34.443  1.00  0.00    -0.062 A 
HETATM   27  C14 UNK     1      35.388  -6.363  35.647  1.00  0.00     0.007 A 
HETATM   28  C17 UNK     1      35.567  -6.131  33.165  1.00  0.00     0.048 C 
HETATM   29  C10 UNK     1      34.693  -6.183  36.844  1.00  0.00     0.010 A 
ENDBRANCH  22  23
ENDBRANCH  21  22
ENDBRANCH  15  21
ENDBRANCH   2  12
TORSDOF 6
ENDMDL
MODEL 4
REMARK VINA RESULT:      -8.4      7.759     10.453
REMARK  6 active torsions:
REMARK  status: ('A' for Active; 'I' for Inactive)
REMARK    1  A    between atoms: C2_7  and  O1_3 
REMARK    2  A    between atoms: C3_8  and  O1_3 
REMARK    3  A    between atoms: C5_10  and  O2_4 
REMARK    4  A    between atoms: C1_6  and  C2_7 
REMARK    5  A    between atoms: C12_17  and  C4_9 
REMARK    6  A    between atoms: C15_20  and  C16_21 
ROOT
HETATM    1  N1  UNK     1      17.618  -5.318  36.368  1.00  0.00    -0.191 NA
HETATM    2  C12 UNK     1      20.536  -3.537  36.816  1.00  0.00     0.036 C 
HETATM    3  C15 UNK     1      20.006  -4.727  37.208  1.00  0.00     0.055 C 
HETATM    4  C24 UNK     1      18.683  -5.045  36.738  1.00  0.00     0.100 C 
ENDROOT
BRANCH   3   5
HETATM    5  C16 UNK     1      20.700  -5.682  38.057  1.00  0.00    -0.015 A 
HETATM    6  C18 UNK     1      19.993  -6.724  38.658  1.00  0.00     0.016 A 
HETATM    7  C20 UNK     1      20.659  -7.640  39.472  1.00  0.00     0.043 A 
HETATM    8  C22 UNK     1      22.031  -7.514  39.686  1.00  0.00     0.116 A 
HETATM    9  C21 UNK     1      22.739  -6.471  39.086  1.00  0.00     0.043 A 
HETATM   10  F1  UNK     1      22.670  -8.392  40.471  1.00  0.00    -0.206 F 
HETATM   11  C19 UNK     1      22.072  -5.555  38.271  1.00  0.00     0.016 A 
ENDBRANCH   3   5
BRANCH   2  12
HETATM   12  C4  UNK     1      19.874  -2.546  35.955  1.00  0.00    -0.015 A 
HETATM   13  C6  UNK     1      20.233  -2.533  34.613  1.00  0.00     0.052 A 
HETATM   14  C5  UNK     1      19.636  -1.614  33.749  1.00  0.00     0.102 A 
HETATM   15  C3  UNK     1      18.686  -0.716  34.235  1.00  0.00     0.103 A 
HETATM   16  C7  UNK     1      18.332  -0.738  35.585  1.00  0.00     0.059 A 
HETATM   17  C8  UNK     1      18.929  -1.656  36.447  1.00  0.00     0.024 A 
HETATM   18 Br1  UNK     1      18.401  -1.631  38.273  1.00  0.00    -0.050 Br
BRANCH  14  19
HETATM   19  O2  UNK     1      19.990  -1.603  32.433  1.00  0.00    -0.353 OA
HETATM   20  C23 UNK     1      20.848  -2.650  31.985  1.00  0.00     0.210 C 
ENDBRANCH  14  19
BRANCH  15  21
HETATM   21  O1  UNK     1      18.096   0.186  33.403  1.00  0.00    -0.344 OA
BRANCH  21  22
HETATM   22  C2  UNK     1      17.823   1.479  33.936  1.00  0.00     0.214 C 
BRANCH  22  23
HETATM   23  C1  UNK     1      18.170   2.518  32.910  1.00  0.00    -0.034 A 
HETATM   24  C9  UNK     1      18.431   2.131  31.601  1.00  0.00     0.010 A 
HETATM   25  C13 UNK     1      18.754   3.096  30.647  1.00  0.00     0.007 A 
HETATM   26  C11 UNK     1      18.816   4.442  31.010  1.00  0.00    -0.062 A 
HETATM   27  C14 UNK     1      18.553   4.822  32.326  1.00  0.00     0.007 A 
HETATM   28  C17 UNK     1      19.161   5.474  29.990  1.00  0.00     0.048 C 
HETATM   29  C10 UNK     1      18.229   3.857  33.280  1.00  0.00     0.010 A 
ENDBRANCH  22  23
ENDBRANCH  21  22
ENDBRANCH  15  21
ENDBRANCH   2  12
TORSDOF 6
ENDMDL
MODEL 5
REMARK VINA RESULT:      -8.3      1.519      2.278
REMARK  6 active torsions:
REMARK  status: ('A' for Active; 'I' for Inactive)
REMARK    1  A    between atoms: C2_7  and  O1_3 
REMARK    2  A    between atoms: C3_8  and  O1_3 
REMARK    3  A    between atoms: C5_10  and  O2_4 
REMARK    4  A    between atoms: C1_6  and  C2_7 
REMARK    5  A    between atoms: C12_17  and  C4_9 
REMARK    6  A    between atoms: C15_20  and  C16_21 
ROOT
HETATM    1  N1  UNK     1      18.253   2.977  34.272  1.00  0.00    -0.191 NA
HETATM    2  C12 UNK     1      18.002   4.925  31.437  1.00  0.00     0.036 C 
HETATM    3  C15 UNK     1      18.254   3.626  31.754  1.00  0.00     0.055 C 
HETATM    4  C24 UNK     1      18.251   3.277  33.150  1.00  0.00     0.100 C 
ENDROOT
BRANCH   3   5
HETATM    5  C16 UNK     1      18.513   2.588  30.769  1.00  0.00    -0.015 A 
HETATM    6  C18 UNK     1      19.317   1.497  31.100  1.00  0.00     0.016 A 
HETATM    7  C20 UNK     1      19.565   0.501  30.155  1.00  0.00     0.043 A 
HETATM    8  C22 UNK     1      19.009   0.596  28.880  1.00  0.00     0.116 A 
HETATM    9  C21 UNK     1      18.205   1.688  28.548  1.00  0.00     0.043 A 
HETATM   10  F1  UNK     1      19.250  -0.358  27.971  1.00  0.00    -0.206 F 
HETATM   11  C19 UNK     1      17.957   2.683  29.494  1.00  0.00     0.016 A 
ENDBRANCH   3   5
BRANCH   2  12
HETATM   12  C4  UNK     1      17.729   6.004  32.398  1.00  0.00    -0.015 A 
HETATM   13  C6  UNK     1      16.397   6.283  32.675  1.00  0.00     0.052 A 
HETATM   14  C5  UNK     1      16.079   7.297  33.580  1.00  0.00     0.102 A 
HETATM   15  C3  UNK     1      17.097   8.022  34.199  1.00  0.00     0.103 A 
HETATM   16  C7  UNK     1      18.432   7.734  33.914  1.00  0.00     0.059 A 
HETATM   17  C8  UNK     1      18.749   6.721  33.010  1.00  0.00     0.024 A 
HETATM   18 Br1  UNK     1      20.586   6.380  32.667  1.00  0.00    -0.050 Br
BRANCH  14  19
HETATM   19  O2  UNK     1      14.772   7.569  33.849  1.00  0.00    -0.353 OA
HETATM   20  C23 UNK     1      13.833   7.345  32.799  1.00  0.00     0.210 C 
ENDBRANCH  14  19
BRANCH  15  21
HETATM   21  O1  UNK     1      16.800   9.014  35.083  1.00  0.00    -0.344 OA
BRANCH  21  22
HETATM   22  C2  UNK     1      15.909  10.035  34.639  1.00  0.00     0.214 C 
BRANCH  22  23
HETATM   23  C1  UNK     1      16.667  11.324  34.504  1.00  0.00    -0.034 A 
HETATM   24  C9  UNK     1      16.112  12.502  34.988  1.00  0.00     0.010 A 
HETATM   25  C13 UNK     1      16.815  13.700  34.861  1.00  0.00     0.007 A 
HETATM   26  C11 UNK     1      18.069  13.711  34.250  1.00  0.00    -0.062 A 
HETATM   27  C14 UNK     1      18.619  12.524  33.766  1.00  0.00     0.007 A 
HETATM   28  C17 UNK     1      18.822  14.991  34.115  1.00  0.00     0.048 C 
HETATM   29  C10 UNK     1      17.916  11.326  33.894  1.00  0.00     0.010 A 
ENDBRANCH  22  23
ENDBRANCH  21  22
ENDBRANCH  15  21
ENDBRANCH   2  12
TORSDOF 6
ENDMDL
MODEL 6
REMARK VINA RESULT:      -8.0     18.020     20.455
REMARK  6 active torsions:
REMARK  status: ('A' for Active; 'I' for Inactive)
REMARK    1  A    between atoms: C2_7  and  O1_3 
REMARK    2  A    between atoms: C3_8  and  O1_3 
REMARK    3  A    between atoms: C5_10  and  O2_4 
REMARK    4  A    between atoms: C1_6  and  C2_7 
REMARK    5  A    between atoms: C12_17  and  C4_9 
REMARK    6  A    between atoms: C15_20  and  C16_21 
ROOT
HETATM    1  N1  UNK     1      27.584 -10.535  39.423  1.00  0.00    -0.191 NA
HETATM    2  C12 UNK     1      27.321  -8.652  36.546  1.00  0.00     0.036 C 
HETATM    3  C15 UNK     1      26.613  -9.617  37.192  1.00  0.00     0.055 C 
HETATM    4  C24 UNK     1      27.159 -10.119  38.426  1.00  0.00     0.100 C 
ENDROOT
BRANCH   3   5
HETATM    5  C16 UNK     1      25.349 -10.153  36.713  1.00  0.00    -0.015 A 
HETATM    6  C18 UNK     1      24.197  -9.366  36.751  1.00  0.00     0.016 A 
HETATM    7  C20 UNK     1      22.985  -9.880  36.291  1.00  0.00     0.043 A 
HETATM    8  C22 UNK     1      22.924 -11.180  35.792  1.00  0.00     0.116 A 
HETATM    9  C21 UNK     1      24.076 -11.968  35.753  1.00  0.00     0.043 A 
HETATM   10  F1  UNK     1      21.760 -11.675  35.352  1.00  0.00    -0.206 F 
HETATM   11  C19 UNK     1      25.288 -11.454  36.214  1.00  0.00     0.016 A 
ENDBRANCH   3   5
BRANCH   2  12
HETATM   12  C4  UNK     1      28.597  -8.078  36.997  1.00  0.00    -0.015 A 
HETATM   13  C6  UNK     1      28.534  -7.041  37.920  1.00  0.00     0.052 A 
HETATM   14  C5  UNK     1      29.714  -6.458  38.383  1.00  0.00     0.102 A 
HETATM   15  C3  UNK     1      30.946  -6.917  37.919  1.00  0.00     0.103 A 
HETATM   16  C7  UNK     1      30.999  -7.959  36.992  1.00  0.00     0.059 A 
HETATM   17  C8  UNK     1      29.819  -8.541  36.529  1.00  0.00     0.024 A 
HETATM   18 Br1  UNK     1      29.963  -9.955  35.268  1.00  0.00    -0.050 Br
BRANCH  14  19
HETATM   19  O2  UNK     1      29.649  -5.442  39.288  1.00  0.00    -0.353 OA
HETATM   20  C23 UNK     1      29.131  -4.196  38.826  1.00  0.00     0.210 C 
ENDBRANCH  14  19
BRANCH  15  21
HETATM   21  O1  UNK     1      32.105  -6.357  38.363  1.00  0.00    -0.344 OA
BRANCH  21  22
HETATM   22  C2  UNK     1      32.536  -5.160  37.719  1.00  0.00     0.214 C 
BRANCH  22  23
HETATM   23  C1  UNK     1      33.432  -5.515  36.569  1.00  0.00    -0.034 A 
HETATM   24  C9  UNK     1      34.713  -5.995  36.817  1.00  0.00     0.010 A 
HETATM   25  C13 UNK     1      35.546  -6.325  35.749  1.00  0.00     0.007 A 
HETATM   26  C11 UNK     1      35.093  -6.171  34.438  1.00  0.00    -0.062 A 
HETATM   27  C14 UNK     1      33.807  -5.689  34.197  1.00  0.00     0.007 A 
HETATM   28  C17 UNK     1      35.984  -6.524  33.295  1.00  0.00     0.048 C 
HETATM   29  C10 UNK     1      32.973  -5.360  35.266  1.00  0.00     0.010 A 
ENDBRANCH  22  23
ENDBRANCH  21  22
ENDBRANCH  15  21
ENDBRANCH   2  12
TORSDOF 6
ENDMDL
MODEL 7
REMARK VINA RESULT:      -8.0     17.315     19.354
REMARK  6 active torsions:
REMARK  status: ('A' for Active; 'I' for Inactive)
REMARK    1  A    between atoms: C2_7  and  O1_3 
REMARK    2  A    between atoms: C3_8  and  O1_3 
REMARK    3  A    between atoms: C5_10  and  O2_4 
REMARK    4  A    between atoms: C1_6  and  C2_7 
REMARK    5  A    between atoms: C12_17  and  C4_9 
REMARK    6  A    between atoms: C15_20  and  C16_21 
ROOT
HETATM    1  N1  UNK     1      29.433  -6.226  34.844  1.00  0.00    -0.191 NA
HETATM    2  C12 UNK     1      30.698  -7.491  37.792  1.00  0.00     0.036 C 
HETATM    3  C15 UNK     1      31.172  -6.987  36.621  1.00  0.00     0.055 C 
HETATM    4  C24 UNK     1      30.202  -6.568  35.643  1.00  0.00     0.100 C 
ENDROOT
BRANCH   3   5
HETATM    5  C16 UNK     1      32.587  -6.842  36.315  1.00  0.00    -0.015 A 
HETATM    6  C18 UNK     1      33.144  -7.544  35.245  1.00  0.00     0.016 A 
HETATM    7  C20 UNK     1      34.501  -7.406  34.951  1.00  0.00     0.043 A 
HETATM    8  C22 UNK     1      35.300  -6.566  35.726  1.00  0.00     0.116 A 
HETATM    9  C21 UNK     1      34.742  -5.864  36.796  1.00  0.00     0.043 A 
HETATM   10  F1  UNK     1      36.603  -6.435  35.446  1.00  0.00    -0.206 F 
HETATM   11  C19 UNK     1      33.385  -6.003  37.090  1.00  0.00     0.016 A 
ENDBRANCH   3   5
BRANCH   2  12
HETATM   12  C4  UNK     1      29.280  -7.649  38.145  1.00  0.00    -0.015 A 
HETATM   13  C6  UNK     1      28.699  -8.886  37.900  1.00  0.00     0.052 A 
HETATM   14  C5  UNK     1      27.356  -9.092  38.216  1.00  0.00     0.102 A 
HETATM   15  C3  UNK     1      26.606  -8.058  38.775  1.00  0.00     0.103 A 
HETATM   16  C7  UNK     1      27.199  -6.818  39.019  1.00  0.00     0.059 A 
HETATM   17  C8  UNK     1      28.541  -6.613  38.702  1.00  0.00     0.024 A 
HETATM   18 Br1  UNK     1      29.285  -4.902  39.059  1.00  0.00    -0.050 Br
BRANCH  14  19
HETATM   19  O2  UNK     1      26.789 -10.307  37.974  1.00  0.00    -0.353 OA
HETATM   20  C23 UNK     1      26.169 -10.490  36.703  1.00  0.00     0.210 C 
ENDBRANCH  14  19
BRANCH  15  21
HETATM   21  O1  UNK     1      25.294  -8.245  39.089  1.00  0.00    -0.344 OA
BRANCH  21  22
HETATM   22  C2  UNK     1      24.404  -7.161  38.834  1.00  0.00     0.214 C 
BRANCH  22  23
HETATM   23  C1  UNK     1      23.011  -7.695  38.678  1.00  0.00    -0.034 A 
HETATM   24  C9  UNK     1      22.047  -7.394  39.633  1.00  0.00     0.010 A 
HETATM   25  C13 UNK     1      20.752  -7.891  39.488  1.00  0.00     0.007 A 
HETATM   26  C11 UNK     1      20.429  -8.688  38.389  1.00  0.00    -0.062 A 
HETATM   27  C14 UNK     1      21.402  -8.986  37.435  1.00  0.00     0.007 A 
HETATM   28  C17 UNK     1      19.045  -9.219  38.234  1.00  0.00     0.048 C 
HETATM   29  C10 UNK     1      22.697  -8.488  37.579  1.00  0.00     0.010 A 
ENDBRANCH  22  23
ENDBRANCH  21  22
ENDBRANCH  15  21
ENDBRANCH   2  12
TORSDOF 6
ENDMDL
MODEL 8
REMARK VINA RESULT:      -7.9      1.519      1.865
REMARK  6 active torsions:
REMARK  status: ('A' for Active; 'I' for Inactive)
REMARK    1  A    between atoms: C2_7  and  O1_3 
REMARK    2  A    between atoms: C3_8  and  O1_3 
REMARK    3  A    between atoms: C5_10  and  O2_4 
REMARK    4  A    between atoms: C1_6  and  C2_7 
REMARK    5  A    between atoms: C12_17  and  C4_9 
REMARK    6  A    between atoms: C15_20  and  C16_21 
ROOT
HETATM    1  N1  UNK     1      19.409   5.742  29.422  1.00  0.00    -0.191 NA
HETATM    2  C12 UNK     1      17.841   4.410  32.189  1.00  0.00     0.036 C 
HETATM    3  C15 UNK     1      18.543   3.967  31.112  1.00  0.00     0.055 C 
HETATM    4  C24 UNK     1      19.018   4.957  30.182  1.00  0.00     0.100 C 
ENDROOT
BRANCH   3   5
HETATM    5  C16 UNK     1      18.841   2.565  30.861  1.00  0.00    -0.015 A 
HETATM    6  C18 UNK     1      19.045   2.118  29.555  1.00  0.00     0.016 A 
HETATM    7  C20 UNK     1      19.331   0.774  29.314  1.00  0.00     0.043 A 
HETATM    8  C22 UNK     1      19.413  -0.122  30.379  1.00  0.00     0.116 A 
HETATM    9  C21 UNK     1      19.209   0.324  31.685  1.00  0.00     0.043 A 
HETATM   10  F1  UNK     1      19.684  -1.413  30.148  1.00  0.00    -0.206 F 
HETATM   11  C19 UNK     1      18.923   1.669  31.926  1.00  0.00     0.016 A 
ENDBRANCH   3   5
BRANCH   2  12
HETATM   12  C4  UNK     1      17.523   5.815  32.485  1.00  0.00    -0.015 A 
HETATM   13  C6  UNK     1      16.278   6.281  32.083  1.00  0.00     0.052 A 
HETATM   14  C5  UNK     1      15.923   7.606  32.339  1.00  0.00     0.102 A 
HETATM   15  C3  UNK     1      16.817   8.453  32.994  1.00  0.00     0.103 A 
HETATM   16  C7  UNK     1      18.065   7.975  33.394  1.00  0.00     0.059 A 
HETATM   17  C8  UNK     1      18.419   6.651  33.138  1.00  0.00     0.024 A 
HETATM   18 Br1  UNK     1      20.135   6.065  33.709  1.00  0.00    -0.050 Br
BRANCH  14  19
HETATM   19  O2  UNK     1      14.701   8.061  31.944  1.00  0.00    -0.353 OA
HETATM   20  C23 UNK     1      13.558   7.404  32.488  1.00  0.00     0.210 C 
ENDBRANCH  14  19
BRANCH  15  21
HETATM   21  O1  UNK     1      16.483   9.748  33.250  1.00  0.00    -0.344 OA
BRANCH  21  22
HETATM   22  C2  UNK     1      15.957  10.040  34.542  1.00  0.00     0.214 C 
BRANCH  22  23
HETATM   23  C1  UNK     1      14.691  10.831  34.391  1.00  0.00    -0.034 A 
HETATM   24  C9  UNK     1      14.169  11.058  33.123  1.00  0.00     0.010 A 
HETATM   25  C13 UNK     1      12.992  11.794  32.982  1.00  0.00     0.007 A 
HETATM   26  C11 UNK     1      12.347  12.300  34.111  1.00  0.00    -0.062 A 
HETATM   27  C14 UNK     1      12.877  12.068  35.380  1.00  0.00     0.007 A 
HETATM   28  C17 UNK     1      11.089  13.086  33.961  1.00  0.00     0.048 C 
HETATM   29  C10 UNK     1      14.054  11.331  35.521  1.00  0.00     0.010 A 
ENDBRANCH  22  23
ENDBRANCH  21  22
ENDBRANCH  15  21
ENDBRANCH   2  12
TORSDOF 6
ENDMDL
MODEL 9
REMARK VINA RESULT:      -7.8     17.321     19.716
REMARK  6 active torsions:
REMARK  status: ('A' for Active; 'I' for Inactive)
REMARK    1  A    between atoms: C2_7  and  O1_3 
REMARK    2  A    between atoms: C3_8  and  O1_3 
REMARK    3  A    between atoms: C5_10  and  O2_4 
REMARK    4  A    between atoms: C1_6  and  C2_7 
REMARK    5  A    between atoms: C12_17  and  C4_9 
REMARK    6  A    between atoms: C15_20  and  C16_21 
ROOT
HETATM    1  N1  UNK     1      26.499  -5.876  38.851  1.00  0.00    -0.191 NA
HETATM    2  C12 UNK     1      25.924  -9.085  37.729  1.00  0.00     0.036 C 
HETATM    3  C15 UNK     1      25.203  -8.036  38.207  1.00  0.00     0.055 C 
HETATM    4  C24 UNK     1      25.930  -6.845  38.561  1.00  0.00     0.100 C 
ENDROOT
BRANCH   3   5
HETATM    5  C16 UNK     1      23.758  -8.053  38.368  1.00  0.00    -0.015 A 
HETATM    6  C18 UNK     1      23.172  -7.449  39.481  1.00  0.00     0.016 A 
HETATM    7  C20 UNK     1      21.786  -7.465  39.635  1.00  0.00     0.043 A 
HETATM    8  C22 UNK     1      20.986  -8.085  38.677  1.00  0.00     0.116 A 
HETATM    9  C21 UNK     1      21.571  -8.690  37.563  1.00  0.00     0.043 A 
HETATM   10  F1  UNK     1      19.655  -8.103  38.826  1.00  0.00    -0.206 F 
HETATM   11  C19 UNK     1      22.957  -8.674  37.409  1.00  0.00     0.016 A 
ENDBRANCH   3   5
BRANCH   2  12
HETATM   12  C4  UNK     1      27.383  -9.109  37.543  1.00  0.00    -0.015 A 
HETATM   13  C6  UNK     1      27.871  -8.716  36.304  1.00  0.00     0.052 A 
HETATM   14  C5  UNK     1      29.247  -8.719  36.072  1.00  0.00     0.102 A 
HETATM   15  C3  UNK     1      30.122  -9.116  37.082  1.00  0.00     0.103 A 
HETATM   16  C7  UNK     1      29.622  -9.509  38.324  1.00  0.00     0.059 A 
HETATM   17  C8  UNK     1      28.247  -9.506  38.555  1.00  0.00     0.024 A 
HETATM   18 Br1  UNK     1      27.634 -10.053  40.268  1.00  0.00    -0.050 Br
BRANCH  14  19
HETATM   19  O2  UNK     1      29.722  -8.333  34.855  1.00  0.00    -0.353 OA
HETATM   20  C23 UNK     1      29.618  -6.949  34.528  1.00  0.00     0.210 C 
ENDBRANCH  14  19
BRANCH  15  21
HETATM   21  O1  UNK     1      31.467  -9.124  36.869  1.00  0.00    -0.344 OA
BRANCH  21  22
HETATM   22  C2  UNK     1      32.276  -8.406  37.799  1.00  0.00     0.214 C 
BRANCH  22  23
HETATM   23  C1  UNK     1      32.215  -6.942  37.474  1.00  0.00    -0.034 A 
HETATM   24  C9  UNK     1      32.849  -6.463  36.334  1.00  0.00     0.010 A 
HETATM   25  C13 UNK     1      32.793  -5.103  36.032  1.00  0.00     0.007 A 
HETATM   26  C11 UNK     1      32.105  -4.229  36.874  1.00  0.00    -0.062 A 
HETATM   27  C14 UNK     1      31.472  -4.717  38.018  1.00  0.00     0.007 A 
HETATM   28  C17 UNK     1      32.046  -2.774  36.552  1.00  0.00     0.048 C 
HETATM   29  C10 UNK     1      31.527  -6.078  38.318  1.00  0.00     0.010 A 
ENDBRANCH  22  23
ENDBRANCH  21  22
ENDBRANCH  15  21
ENDBRANCH   2  12
TORSDOF 6
ENDMDL
MODEL 10
REMARK VINA RESULT:      -7.8      1.938      2.250
REMARK  6 active torsions:
REMARK  status: ('A' for Active; 'I' for Inactive)
REMARK    1  A    between atoms: C2_7  and  O1_3 
REMARK    2  A    between atoms: C3_8  and  O1_3 
REMARK    3  A    between atoms: C5_10  and  O2_4 
REMARK    4  A    between atoms: C1_6  and  C2_7 
REMARK    5  A    between atoms: C12_17  and  C4_9 
REMARK    6  A    between atoms: C15_20  and  C16_21 
ROOT
HETATM    1  N1  UNK     1      19.533   6.145  29.655  1.00  0.00    -0.191 NA
HETATM    2  C12 UNK     1      17.836   4.367  32.073  1.00  0.00     0.036 C 
HETATM    3  C15 UNK     1      18.541   4.113  30.938  1.00  0.00     0.055 C 
HETATM    4  C24 UNK     1      19.086   5.244  30.235  1.00  0.00     0.100 C 
ENDROOT
BRANCH   3   5
HETATM    5  C16 UNK     1      18.775   2.777  30.413  1.00  0.00    -0.015 A 
HETATM    6  C18 UNK     1      19.398   1.814  31.207  1.00  0.00     0.016 A 
HETATM    7  C20 UNK     1      19.622   0.533  30.703  1.00  0.00     0.043 A 
HETATM    8  C22 UNK     1      19.225   0.215  29.405  1.00  0.00     0.116 A 
HETATM    9  C21 UNK     1      18.601   1.179  28.610  1.00  0.00     0.043 A 
HETATM   10  F1  UNK     1      19.442  -1.014  28.919  1.00  0.00    -0.206 F 
HETATM   11  C19 UNK     1      18.377   2.460  29.114  1.00  0.00     0.016 A 
ENDBRANCH   3   5
BRANCH   2  12
HETATM   12  C4  UNK     1      17.580   5.698  32.644  1.00  0.00    -0.015 A 
HETATM   13  C6  UNK     1      16.396   6.326  32.281  1.00  0.00     0.052 A 
HETATM   14  C5  UNK     1      16.101   7.591  32.792  1.00  0.00     0.102 A 
HETATM   15  C3  UNK     1      16.995   8.215  33.662  1.00  0.00     0.103 A 
HETATM   16  C7  UNK     1      18.182   7.576  34.021  1.00  0.00     0.059 A 
HETATM   17  C8  UNK     1      18.476   6.313  33.509  1.00  0.00     0.024 A 
HETATM   18 Br1  UNK     1      20.109   5.499  34.038  1.00  0.00    -0.050 Br
BRANCH  14  19
HETATM   19  O2  UNK     1      14.939   8.205  32.435  1.00  0.00    -0.353 OA
HETATM   20  C23 UNK     1      13.774   7.386  32.350  1.00  0.00     0.210 C 
ENDBRANCH  14  19
BRANCH  15  21
HETATM   21  O1  UNK     1      16.720   9.449  34.168  1.00  0.00    -0.344 OA
BRANCH  21  22
HETATM   22  C2  UNK     1      17.759  10.423  34.105  1.00  0.00     0.214 C 
BRANCH  22  23
HETATM   23  C1  UNK     1      17.148  11.793  34.065  1.00  0.00    -0.034 A 
HETATM   24  C9  UNK     1      17.969  12.912  33.999  1.00  0.00     0.010 A 
HETATM   25  C13 UNK     1      17.401  14.185  33.962  1.00  0.00     0.007 A 
HETATM   26  C11 UNK     1      16.014  14.330  33.992  1.00  0.00    -0.062 A 
HETATM   27  C14 UNK     1      15.196  13.202  34.058  1.00  0.00     0.007 A 
HETATM   28  C17 UNK     1      15.405  15.691  33.952  1.00  0.00     0.048 C 
HETATM   29  C10 UNK     1      15.765  11.929  34.094  1.00  0.00     0.010 A 
ENDBRANCH  22  23
ENDBRANCH  21  22
ENDBRANCH  15  21
ENDBRANCH   2  12
TORSDOF 6
ENDMDL
