MODEL 1
REMARK VINA RESULT:      -8.3      0.000      0.000
REMARK  9 active torsions:
REMARK  status: ('A' for Active; 'I' for Inactive)
REMARK    1  A    between atoms: C25_34  and  S1_1 
REMARK    2  A    between atoms: C27_36  and  S1_1 
REMARK    3  A    between atoms: C12_21  and  O2_3 
REMARK    4  A    between atoms: C14_23  and  O5_6 
REMARK    5  A    between atoms: C22_31  and  O5_6 
REMARK    6  A    between atoms: C12_21  and  C2_11 
REMARK    7  A    between atoms: C11_20  and  C6_15 
REMARK    8  A    between atoms: C14_23  and  C8_17 
REMARK    9  A    between atoms: C22_31  and  C25_34 
ROOT
HETATM    1  O1  UNK     1      28.541  -9.434  36.590  1.00  0.00    -0.292 OA
HETATM    2  N1  UNK     1      31.258  -5.642  37.406  1.00  0.00    -0.362 N 
HETATM    3  C1  UNK     1      28.082  -6.832  39.074  1.00  0.00     0.008 C 
HETATM    4  C2  UNK     1      28.199  -8.313  38.688  1.00  0.00     0.164 C 
HETATM    5  C3  UNK     1      29.475  -6.187  39.005  1.00  0.00     0.063 C 
HETATM    6  C4  UNK     1      29.888  -7.508  36.901  1.00  0.00     0.025 C 
HETATM    7  C5  UNK     1      30.207  -6.483  37.719  1.00  0.00     0.020 C 
HETATM    8  C6  UNK     1      30.622  -7.720  35.578  1.00  0.00     0.104 C 
HETATM    9  C7  UNK     1      28.832  -8.485  37.317  1.00  0.00     0.172 C 
HETATM   10  C8  UNK     1      31.873  -6.843  35.462  1.00  0.00     0.052 C 
HETATM   11  C9  UNK     1      27.070  -6.056  38.215  1.00  0.00     0.011 C 
HETATM   12  C10 UNK     1      32.118  -5.842  36.338  1.00  0.00     0.018 C 
HETATM   13  C13 UNK     1      33.283  -4.892  36.274  1.00  0.00     0.069 C 
HETATM   14  H9  UNK     1      31.470  -4.889  38.049  1.00  0.00     0.165 HD
ENDROOT
BRANCH   8  15
HETATM   15  C11 UNK     1      29.698  -7.465  34.413  1.00  0.00     0.029 A 
HETATM   16  C15 UNK     1      29.670  -8.448  33.300  1.00  0.00     0.194 A 
HETATM   17  O7  UNK     1      30.371  -9.451  33.301  1.00  0.00    -0.287 OA
HETATM   18  C17 UNK     1      28.750  -8.148  32.187  1.00  0.00     0.049 A 
HETATM   19  C18 UNK     1      27.976  -6.989  32.240  1.00  0.00     0.089 A 
HETATM   20  C19 UNK     1      28.651  -9.012  31.093  1.00  0.00     0.025 A 
HETATM   21  O3  UNK     1      28.033  -6.106  33.289  1.00  0.00    -0.321 OA
HETATM   22  C21 UNK     1      27.099  -6.686  31.198  1.00  0.00     0.039 A 
HETATM   23  C16 UNK     1      28.895  -6.398  34.318  1.00  0.00     0.154 A 
HETATM   24  C24 UNK     1      26.998  -7.546  30.105  1.00  0.00     0.009 A 
HETATM   25  C23 UNK     1      27.773  -8.706  30.052  1.00  0.00    -0.061 A 
HETATM   26  C26 UNK     1      27.660  -9.623  28.881  1.00  0.00     0.048 C 
ENDBRANCH   8  15
BRANCH  10  27
HETATM   27  C14 UNK     1      32.820  -7.180  34.385  1.00  0.00     0.292 C 
HETATM   28  O6  UNK     1      32.849  -6.600  33.316  1.00  0.00    -0.259 OA
BRANCH  27  29
HETATM   29  O5  UNK     1      33.601  -8.203  34.808  1.00  0.00    -0.317 OA
BRANCH  29  30
HETATM   30  C22 UNK     1      33.810  -9.242  33.847  1.00  0.00     0.189 C 
BRANCH  30  31
HETATM   31  C25 UNK     1      35.297  -9.404  33.569  1.00  0.00     0.100 C 
BRANCH  31  32
HETATM   32  S1  UNK     1      35.824  -8.392  32.153  1.00  0.00    -0.167 SA
BRANCH  32  33
HETATM   33  C27 UNK     1      36.439  -6.963  33.071  1.00  0.00     0.069 C 
HETATM   34  C28 UNK     1      37.141  -7.407  34.340  1.00  0.00     0.016 C 
ENDBRANCH  32  33
ENDBRANCH  31  32
ENDBRANCH  30  31
ENDBRANCH  29  30
ENDBRANCH  27  29
ENDBRANCH  10  27
BRANCH   4  35
HETATM   35  C12 UNK     1      26.879  -9.006  38.837  1.00  0.00     0.270 C 
HETATM   36  O4  UNK     1      25.974  -8.940  38.016  1.00  0.00    -0.264 OA
BRANCH  35  37
HETATM   37  O2  UNK     1      26.859  -9.704  40.009  1.00  0.00    -0.326 OA
HETATM   38  C20 UNK     1      28.089 -10.340  40.367  1.00  0.00     0.213 C 
ENDBRANCH  35  37
ENDBRANCH   4  35
TORSDOF 9
ENDMDL
MODEL 2
REMARK VINA RESULT:      -8.3      2.044      2.930
REMARK  9 active torsions:
REMARK  status: ('A' for Active; 'I' for Inactive)
REMARK    1  A    between atoms: C25_34  and  S1_1 
REMARK    2  A    between atoms: C27_36  and  S1_1 
REMARK    3  A    between atoms: C12_21  and  O2_3 
REMARK    4  A    between atoms: C14_23  and  O5_6 
REMARK    5  A    between atoms: C22_31  and  O5_6 
REMARK    6  A    between atoms: C12_21  and  C2_11 
REMARK    7  A    between atoms: C11_20  and  C6_15 
REMARK    8  A    between atoms: C14_23  and  C8_17 
REMARK    9  A    between atoms: C22_31  and  C25_34 
ROOT
HETATM    1  O1  UNK     1      29.498  -7.903  36.729  1.00  0.00    -0.292 OA
HETATM    2  N1  UNK     1      33.744  -5.807  36.780  1.00  0.00    -0.362 N 
HETATM    3  C1  UNK     1      30.576  -5.055  38.699  1.00  0.00     0.008 C 
HETATM    4  C2  UNK     1      29.944  -6.450  38.591  1.00  0.00     0.164 C 
HETATM    5  C3  UNK     1      32.092  -5.178  38.485  1.00  0.00     0.063 C 
HETATM    6  C4  UNK     1      31.615  -6.838  36.653  1.00  0.00     0.025 C 
HETATM    7  C5  UNK     1      32.461  -5.981  37.262  1.00  0.00     0.020 C 
HETATM    8  C6  UNK     1      32.020  -7.575  35.378  1.00  0.00     0.104 C 
HETATM    9  C7  UNK     1      30.274  -7.112  37.263  1.00  0.00     0.172 C 
HETATM   10  C8  UNK     1      33.516  -7.435  35.078  1.00  0.00     0.052 C 
HETATM   11  C9  UNK     1      29.962  -4.031  37.732  1.00  0.00     0.011 C 
HETATM   12  C10 UNK     1      34.293  -6.555  35.750  1.00  0.00     0.018 C 
HETATM   13  C13 UNK     1      35.753  -6.303  35.490  1.00  0.00     0.069 C 
HETATM   14  H9  UNK     1      34.351  -5.159  37.269  1.00  0.00     0.165 HD
ENDROOT
BRANCH   8  15
HETATM   15  C11 UNK     1      31.207  -7.089  34.204  1.00  0.00     0.029 A 
HETATM   16  C15 UNK     1      30.418  -8.079  33.429  1.00  0.00     0.194 A 
HETATM   17  O7  UNK     1      30.409  -9.269  33.712  1.00  0.00    -0.287 OA
HETATM   18  C17 UNK     1      29.642  -7.549  32.291  1.00  0.00     0.049 A 
HETATM   19  C18 UNK     1      29.691  -6.183  32.015  1.00  0.00     0.089 A 
HETATM   20  C19 UNK     1      28.867  -8.401  31.499  1.00  0.00     0.025 A 
HETATM   21  O3  UNK     1      30.434  -5.301  32.759  1.00  0.00    -0.321 OA
HETATM   22  C21 UNK     1      28.965  -5.660  30.943  1.00  0.00     0.039 A 
HETATM   23  C16 UNK     1      31.152  -5.809  33.814  1.00  0.00     0.154 A 
HETATM   24  C24 UNK     1      28.191  -6.508  30.151  1.00  0.00     0.009 A 
HETATM   25  C23 UNK     1      28.143  -7.875  30.428  1.00  0.00    -0.061 A 
HETATM   26  C26 UNK     1      27.312  -8.777  29.579  1.00  0.00     0.048 C 
ENDBRANCH   8  15
BRANCH  10  27
HETATM   27  C14 UNK     1      34.076  -8.345  34.064  1.00  0.00     0.292 C 
HETATM   28  O6  UNK     1      34.065  -9.556  34.175  1.00  0.00    -0.259 OA
BRANCH  27  29
HETATM   29  O5  UNK     1      34.570  -7.599  33.048  1.00  0.00    -0.317 OA
BRANCH  29  30
HETATM   30  C22 UNK     1      34.411  -8.168  31.744  1.00  0.00     0.189 C 
BRANCH  30  31
HETATM   31  C25 UNK     1      33.199  -7.562  31.055  1.00  0.00     0.100 C 
BRANCH  31  32
HETATM   32  S1  UNK     1      33.321  -7.707  29.246  1.00  0.00    -0.167 SA
BRANCH  32  33
HETATM   33  C27 UNK     1      31.571  -7.495  28.851  1.00  0.00     0.069 C 
HETATM   34  C28 UNK     1      30.994  -8.776  28.280  1.00  0.00     0.016 C 
ENDBRANCH  32  33
ENDBRANCH  31  32
ENDBRANCH  30  31
ENDBRANCH  29  30
ENDBRANCH  27  29
ENDBRANCH  10  27
BRANCH   4  35
HETATM   35  C12 UNK     1      28.477  -6.393  38.890  1.00  0.00     0.270 C 
HETATM   36  O4  UNK     1      27.694  -5.633  38.337  1.00  0.00    -0.264 OA
BRANCH  35  37
HETATM   37  O2  UNK     1      28.172  -7.306  39.856  1.00  0.00    -0.326 OA
HETATM   38  C20 UNK     1      27.337  -8.389  39.436  1.00  0.00     0.213 C 
ENDBRANCH  35  37
ENDBRANCH   4  35
TORSDOF 9
ENDMDL
MODEL 3
REMARK VINA RESULT:      -8.2      1.291      2.115
REMARK  9 active torsions:
REMARK  status: ('A' for Active; 'I' for Inactive)
REMARK    1  A    between atoms: C25_34  and  S1_1 
REMARK    2  A    between atoms: C27_36  and  S1_1 
REMARK    3  A    between atoms: C12_21  and  O2_3 
REMARK    4  A    between atoms: C14_23  and  O5_6 
REMARK    5  A    between atoms: C22_31  and  O5_6 
REMARK    6  A    between atoms: C12_21  and  C2_11 
REMARK    7  A    between atoms: C11_20  and  C6_15 
REMARK    8  A    between atoms: C14_23  and  C8_17 
REMARK    9  A    between atoms: C22_31  and  C25_34 
ROOT
HETATM    1  O1  UNK     1      28.327  -9.397  36.727  1.00  0.00    -0.292 OA
HETATM    2  N1  UNK     1      31.331  -5.820  37.510  1.00  0.00    -0.362 N 
HETATM    3  C1  UNK     1      28.035  -6.702  39.136  1.00  0.00     0.008 C 
HETATM    4  C2  UNK     1      28.038  -8.198  38.789  1.00  0.00     0.164 C 
HETATM    5  C3  UNK     1      29.478  -6.176  39.082  1.00  0.00     0.063 C 
HETATM    6  C4  UNK     1      29.822  -7.580  37.020  1.00  0.00     0.025 C 
HETATM    7  C5  UNK     1      30.209  -6.564  37.820  1.00  0.00     0.020 C 
HETATM    8  C6  UNK     1      30.562  -7.885  35.719  1.00  0.00     0.104 C 
HETATM    9  C7  UNK     1      28.681  -8.457  37.437  1.00  0.00     0.172 C 
HETATM   10  C8  UNK     1      31.883  -7.117  35.609  1.00  0.00     0.052 C 
HETATM   11  C9  UNK     1      27.108  -5.869  38.237  1.00  0.00     0.011 C 
HETATM   12  C10 UNK     1      32.193  -6.117  36.466  1.00  0.00     0.018 C 
HETATM   13  C13 UNK     1      33.433  -5.269  36.405  1.00  0.00     0.069 C 
HETATM   14  H9  UNK     1      31.592  -5.070  38.140  1.00  0.00     0.165 HD
ENDROOT
BRANCH   8  15
HETATM   15  C11 UNK     1      29.686  -7.586  34.529  1.00  0.00     0.029 A 
HETATM   16  C15 UNK     1      29.648  -8.563  33.411  1.00  0.00     0.194 A 
HETATM   17  O7  UNK     1      30.303  -9.596  33.428  1.00  0.00    -0.287 OA
HETATM   18  C17 UNK     1      28.775  -8.219  32.273  1.00  0.00     0.049 A 
HETATM   19  C18 UNK     1      28.052  -7.026  32.308  1.00  0.00     0.089 A 
HETATM   20  C19 UNK     1      28.671  -9.074  31.172  1.00  0.00     0.025 A 
HETATM   21  O3  UNK     1      28.116  -6.151  33.362  1.00  0.00    -0.321 OA
HETATM   22  C21 UNK     1      27.221  -6.681  31.241  1.00  0.00     0.039 A 
HETATM   23  C16 UNK     1      28.934  -6.484  34.415  1.00  0.00     0.154 A 
HETATM   24  C24 UNK     1      27.115  -7.532  30.141  1.00  0.00     0.009 A 
HETATM   25  C23 UNK     1      27.838  -8.726  30.107  1.00  0.00    -0.061 A 
HETATM   26  C26 UNK     1      27.720  -9.633  28.928  1.00  0.00     0.048 C 
ENDBRANCH   8  15
BRANCH  10  27
HETATM   27  C14 UNK     1      32.820  -7.558  34.562  1.00  0.00     0.292 C 
HETATM   28  O6  UNK     1      33.573  -8.504  34.695  1.00  0.00    -0.259 OA
BRANCH  27  29
HETATM   29  O5  UNK     1      32.676  -6.744  33.489  1.00  0.00    -0.317 OA
BRANCH  29  30
HETATM   30  C22 UNK     1      33.281  -7.219  32.283  1.00  0.00     0.189 C 
BRANCH  30  31
HETATM   31  C25 UNK     1      32.230  -7.360  31.192  1.00  0.00     0.100 C 
BRANCH  31  32
HETATM   32  S1  UNK     1      32.415  -8.928  30.289  1.00  0.00    -0.167 SA
BRANCH  32  33
HETATM   33  C27 UNK     1      31.704  -8.404  28.713  1.00  0.00     0.069 C 
HETATM   34  C28 UNK     1      30.958  -7.094  28.874  1.00  0.00     0.016 C 
ENDBRANCH  32  33
ENDBRANCH  31  32
ENDBRANCH  30  31
ENDBRANCH  29  30
ENDBRANCH  27  29
ENDBRANCH  10  27
BRANCH   4  35
HETATM   35  C12 UNK     1      26.662  -8.776  38.926  1.00  0.00     0.270 C 
HETATM   36  O4  UNK     1      25.733  -8.519  38.173  1.00  0.00    -0.264 OA
BRANCH  35  37
HETATM   37  O2  UNK     1      26.624  -9.614  40.001  1.00  0.00    -0.326 OA
HETATM   38  C20 UNK     1      27.872 -10.217  40.355  1.00  0.00     0.213 C 
ENDBRANCH  35  37
ENDBRANCH   4  35
TORSDOF 9
ENDMDL
MODEL 4
REMARK VINA RESULT:      -8.0      1.043      1.226
REMARK  9 active torsions:
REMARK  status: ('A' for Active; 'I' for Inactive)
REMARK    1  A    between atoms: C25_34  and  S1_1 
REMARK    2  A    between atoms: C27_36  and  S1_1 
REMARK    3  A    between atoms: C12_21  and  O2_3 
REMARK    4  A    between atoms: C14_23  and  O5_6 
REMARK    5  A    between atoms: C22_31  and  O5_6 
REMARK    6  A    between atoms: C12_21  and  C2_11 
REMARK    7  A    between atoms: C11_20  and  C6_15 
REMARK    8  A    between atoms: C14_23  and  C8_17 
REMARK    9  A    between atoms: C22_31  and  C25_34 
ROOT
HETATM    1  O1  UNK     1      29.011  -9.536  36.543  1.00  0.00    -0.292 OA
HETATM    2  N1  UNK     1      30.603  -5.220  37.666  1.00  0.00    -0.362 N 
HETATM    3  C1  UNK     1      27.794  -7.291  39.118  1.00  0.00     0.008 C 
HETATM    4  C2  UNK     1      28.311  -8.666  38.671  1.00  0.00     0.164 C 
HETATM    5  C3  UNK     1      28.970  -6.303  39.148  1.00  0.00     0.063 C 
HETATM    6  C4  UNK     1      29.791  -7.346  37.008  1.00  0.00     0.025 C 
HETATM    7  C5  UNK     1      29.800  -6.322  37.887  1.00  0.00     0.020 C 
HETATM    8  C6  UNK     1      30.602  -7.283  35.715  1.00  0.00     0.104 C 
HETATM    9  C7  UNK     1      29.015  -8.588  37.326  1.00  0.00     0.172 C 
HETATM   10  C8  UNK     1      31.581  -6.105  35.701  1.00  0.00     0.052 C 
HETATM   11  C9  UNK     1      26.646  -6.758  38.246  1.00  0.00     0.011 C 
HETATM   12  C10 UNK     1      31.523  -5.126  36.634  1.00  0.00     0.018 C 
HETATM   13  C13 UNK     1      32.398  -3.904  36.672  1.00  0.00     0.069 C 
HETATM   14  H9  UNK     1      30.586  -4.475  38.353  1.00  0.00     0.165 HD
ENDROOT
BRANCH   8  15
HETATM   15  C11 UNK     1      29.686  -7.211  34.519  1.00  0.00     0.029 A 
HETATM   16  C15 UNK     1      29.887  -8.180  33.411  1.00  0.00     0.194 A 
HETATM   17  O7  UNK     1      30.769  -9.028  33.441  1.00  0.00    -0.287 OA
HETATM   18  C17 UNK     1      28.964  -8.064  32.267  1.00  0.00     0.049 A 
HETATM   19  C18 UNK     1      27.978  -7.077  32.287  1.00  0.00     0.089 A 
HETATM   20  C19 UNK     1      29.071  -8.929  31.174  1.00  0.00     0.025 A 
HETATM   21  O3  UNK     1      27.827  -6.202  33.333  1.00  0.00    -0.321 OA
HETATM   22  C21 UNK     1      27.094  -6.950  31.215  1.00  0.00     0.039 A 
HETATM   23  C16 UNK     1      28.694  -6.321  34.391  1.00  0.00     0.154 A 
HETATM   24  C24 UNK     1      27.199  -7.812  30.124  1.00  0.00     0.009 A 
HETATM   25  C23 UNK     1      28.186  -8.800  30.103  1.00  0.00    -0.061 A 
HETATM   26  C26 UNK     1      28.293  -9.720  28.934  1.00  0.00     0.048 C 
ENDBRANCH   8  15
BRANCH  10  27
HETATM   27  C14 UNK     1      32.621  -6.120  34.658  1.00  0.00     0.292 C 
HETATM   28  O6  UNK     1      32.470  -5.626  33.557  1.00  0.00    -0.259 OA
BRANCH  27  29
HETATM   29  O5  UNK     1      33.710  -6.758  35.151  1.00  0.00    -0.317 OA
BRANCH  29  30
HETATM   30  C22 UNK     1      34.930  -6.012  35.084  1.00  0.00     0.189 C 
BRANCH  30  31
HETATM   31  C25 UNK     1      36.114  -6.959  34.968  1.00  0.00     0.100 C 
BRANCH  31  32
HETATM   32  S1  UNK     1      35.989  -8.001  33.482  1.00  0.00    -0.167 SA
BRANCH  32  33
HETATM   33  C27 UNK     1      35.779  -6.687  32.261  1.00  0.00     0.069 C 
HETATM   34  C28 UNK     1      34.948  -7.175  31.090  1.00  0.00     0.016 C 
ENDBRANCH  32  33
ENDBRANCH  31  32
ENDBRANCH  30  31
ENDBRANCH  29  30
ENDBRANCH  27  29
ENDBRANCH  10  27
BRANCH   4  35
HETATM   35  C12 UNK     1      27.216  -9.687  38.721  1.00  0.00     0.270 C 
HETATM   36  O4  UNK     1      26.537 -10.012  37.757  1.00  0.00    -0.264 OA
BRANCH  35  37
HETATM   37  O2  UNK     1      27.107 -10.177  39.989  1.00  0.00    -0.326 OA
HETATM   38  C20 UNK     1      28.346 -10.468  40.644  1.00  0.00     0.213 C 
ENDBRANCH  35  37
ENDBRANCH   4  35
TORSDOF 9
ENDMDL
MODEL 5
REMARK VINA RESULT:      -7.9      2.459      6.575
REMARK  9 active torsions:
REMARK  status: ('A' for Active; 'I' for Inactive)
REMARK    1  A    between atoms: C25_34  and  S1_1 
REMARK    2  A    between atoms: C27_36  and  S1_1 
REMARK    3  A    between atoms: C12_21  and  O2_3 
REMARK    4  A    between atoms: C14_23  and  O5_6 
REMARK    5  A    between atoms: C22_31  and  O5_6 
REMARK    6  A    between atoms: C12_21  and  C2_11 
REMARK    7  A    between atoms: C11_20  and  C6_15 
REMARK    8  A    between atoms: C14_23  and  C8_17 
REMARK    9  A    between atoms: C22_31  and  C25_34 
ROOT
HETATM    1  O1  UNK     1      30.144  -9.246  31.813  1.00  0.00    -0.292 OA
HETATM    2  N1  UNK     1      28.362  -6.423  35.172  1.00  0.00    -0.362 N 
HETATM    3  C1  UNK     1      27.903  -6.422  31.419  1.00  0.00     0.008 C 
HETATM    4  C2  UNK     1      28.261  -7.895  31.177  1.00  0.00     0.164 C 
HETATM    5  C3  UNK     1      27.479  -6.248  32.886  1.00  0.00     0.063 C 
HETATM    6  C4  UNK     1      29.348  -7.811  33.524  1.00  0.00     0.025 C 
HETATM    7  C5  UNK     1      28.446  -6.867  33.866  1.00  0.00     0.020 C 
HETATM    8  C6  UNK     1      30.346  -8.354  34.544  1.00  0.00     0.104 C 
HETATM    9  C7  UNK     1      29.339  -8.374  32.135  1.00  0.00     0.172 C 
HETATM   10  C8  UNK     1      30.009  -7.920  35.974  1.00  0.00     0.052 C 
HETATM   11  C9  UNK     1      29.037  -5.451  31.053  1.00  0.00     0.011 C 
HETATM   12  C10 UNK     1      29.078  -6.971  36.223  1.00  0.00     0.018 C 
HETATM   13  C13 UNK     1      28.719  -6.437  37.583  1.00  0.00     0.069 C 
HETATM   14  H9  UNK     1      27.667  -5.718  35.389  1.00  0.00     0.165 HD
ENDROOT
BRANCH   8  15
HETATM   15  C11 UNK     1      31.750  -7.930  34.189  1.00  0.00     0.029 A 
HETATM   16  C15 UNK     1      32.790  -8.978  34.033  1.00  0.00     0.194 A 
HETATM   17  O7  UNK     1      32.544 -10.166  34.183  1.00  0.00    -0.287 OA
HETATM   18  C17 UNK     1      34.144  -8.506  33.686  1.00  0.00     0.049 A 
HETATM   19  C18 UNK     1      34.367  -7.138  33.528  1.00  0.00     0.089 A 
HETATM   20  C19 UNK     1      35.193  -9.415  33.518  1.00  0.00     0.025 A 
HETATM   21  O3  UNK     1      33.375  -6.203  33.682  1.00  0.00    -0.321 OA
HETATM   22  C21 UNK     1      35.641  -6.671  33.201  1.00  0.00     0.039 A 
HETATM   23  C16 UNK     1      32.119  -6.656  34.005  1.00  0.00     0.154 A 
HETATM   24  C24 UNK     1      36.689  -7.575  33.032  1.00  0.00     0.009 A 
HETATM   25  C23 UNK     1      36.465  -8.944  33.190  1.00  0.00    -0.061 A 
HETATM   26  C26 UNK     1      37.590  -9.906  33.007  1.00  0.00     0.048 C 
ENDBRANCH   8  15
BRANCH  10  27
HETATM   27  C14 UNK     1      30.707  -8.626  37.062  1.00  0.00     0.292 C 
HETATM   28  O6  UNK     1      30.619  -9.826  37.243  1.00  0.00    -0.259 OA
BRANCH  27  29
HETATM   29  O5  UNK     1      31.421  -7.719  37.771  1.00  0.00    -0.317 OA
BRANCH  29  30
HETATM   30  C22 UNK     1      32.836  -7.767  37.564  1.00  0.00     0.189 C 
BRANCH  30  31
HETATM   31  C25 UNK     1      33.392  -6.358  37.428  1.00  0.00     0.100 C 
BRANCH  31  32
HETATM   32  S1  UNK     1      32.348  -5.145  38.293  1.00  0.00    -0.167 SA
BRANCH  32  33
HETATM   33  C27 UNK     1      31.665  -4.311  36.842  1.00  0.00     0.069 C 
HETATM   34  C28 UNK     1      32.765  -3.628  36.053  1.00  0.00     0.016 C 
ENDBRANCH  32  33
ENDBRANCH  31  32
ENDBRANCH  30  31
ENDBRANCH  29  30
ENDBRANCH  27  29
ENDBRANCH  10  27
BRANCH   4  35
HETATM   35  C12 UNK     1      28.587  -8.131  29.734  1.00  0.00     0.270 C 
HETATM   36  O4  UNK     1      29.463  -7.535  29.123  1.00  0.00    -0.264 OA
BRANCH  35  37
HETATM   37  O2  UNK     1      27.765  -9.096  29.231  1.00  0.00    -0.326 OA
HETATM   38  C20 UNK     1      28.390 -10.047  28.365  1.00  0.00     0.213 C 
ENDBRANCH  35  37
ENDBRANCH   4  35
TORSDOF 9
ENDMDL
MODEL 6
REMARK VINA RESULT:      -7.8      3.126      5.250
REMARK  9 active torsions:
REMARK  status: ('A' for Active; 'I' for Inactive)
REMARK    1  A    between atoms: C25_34  and  S1_1 
REMARK    2  A    between atoms: C27_36  and  S1_1 
REMARK    3  A    between atoms: C12_21  and  O2_3 
REMARK    4  A    between atoms: C14_23  and  O5_6 
REMARK    5  A    between atoms: C22_31  and  O5_6 
REMARK    6  A    between atoms: C12_21  and  C2_11 
REMARK    7  A    between atoms: C11_20  and  C6_15 
REMARK    8  A    between atoms: C14_23  and  C8_17 
REMARK    9  A    between atoms: C22_31  and  C25_34 
ROOT
HETATM    1  O1  UNK     1      31.069  -6.729  35.989  1.00  0.00    -0.292 OA
HETATM    2  N1  UNK     1      35.082  -8.612  34.322  1.00  0.00    -0.362 N 
HETATM    3  C1  UNK     1      34.431  -5.382  36.174  1.00  0.00     0.008 C 
HETATM    4  C2  UNK     1      33.114  -5.800  36.843  1.00  0.00     0.164 C 
HETATM    5  C3  UNK     1      35.215  -6.645  35.786  1.00  0.00     0.063 C 
HETATM    6  C4  UNK     1      33.035  -7.675  35.061  1.00  0.00     0.025 C 
HETATM    7  C5  UNK     1      34.385  -7.660  35.041  1.00  0.00     0.020 C 
HETATM    8  C6  UNK     1      32.244  -8.686  34.233  1.00  0.00     0.104 C 
HETATM    9  C7  UNK     1      32.298  -6.717  35.947  1.00  0.00     0.172 C 
HETATM   10  C8  UNK     1      33.139  -9.786  33.652  1.00  0.00     0.052 C 
HETATM   11  C9  UNK     1      34.232  -4.460  34.959  1.00  0.00     0.011 C 
HETATM   12  C10 UNK     1      34.488  -9.691  33.687  1.00  0.00     0.018 C 
HETATM   13  C13 UNK     1      35.448 -10.686  33.094  1.00  0.00     0.069 C 
HETATM   14  H9  UNK     1      36.094  -8.571  34.337  1.00  0.00     0.165 HD
ENDROOT
BRANCH   8  15
HETATM   15  C11 UNK     1      31.490  -7.991  33.127  1.00  0.00     0.029 A 
HETATM   16  C15 UNK     1      30.010  -8.111  33.094  1.00  0.00     0.194 A 
HETATM   17  O7  UNK     1      29.390  -8.753  33.930  1.00  0.00    -0.287 OA
HETATM   18  C17 UNK     1      29.323  -7.413  31.991  1.00  0.00     0.049 A 
HETATM   19  C18 UNK     1      30.082  -6.696  31.065  1.00  0.00     0.089 A 
HETATM   20  C19 UNK     1      27.932  -7.465  31.871  1.00  0.00     0.025 A 
HETATM   21  O3  UNK     1      31.449  -6.611  31.134  1.00  0.00    -0.321 OA
HETATM   22  C21 UNK     1      29.453  -6.028  30.013  1.00  0.00     0.039 A 
HETATM   23  C16 UNK     1      32.076  -7.267  32.166  1.00  0.00     0.154 A 
HETATM   24  C24 UNK     1      28.064  -6.078  29.892  1.00  0.00     0.009 A 
HETATM   25  C23 UNK     1      27.306  -6.795  30.819  1.00  0.00    -0.061 A 
HETATM   26  C26 UNK     1      25.821  -6.845  30.685  1.00  0.00     0.048 C 
ENDBRANCH   8  15
BRANCH  10  27
HETATM   27  C14 UNK     1      32.459 -10.972  33.105  1.00  0.00     0.292 C 
HETATM   28  O6  UNK     1      32.047 -11.884  33.797  1.00  0.00    -0.259 OA
BRANCH  27  29
HETATM   29  O5  UNK     1      32.392 -10.843  31.758  1.00  0.00    -0.317 OA
BRANCH  29  30
HETATM   30  C22 UNK     1      31.367 -11.616  31.126  1.00  0.00     0.189 C 
BRANCH  30  31
HETATM   31  C25 UNK     1      30.377 -10.697  30.426  1.00  0.00     0.100 C 
BRANCH  31  32
HETATM   32  S1  UNK     1      31.179  -9.735  29.109  1.00  0.00    -0.167 SA
BRANCH  32  33
HETATM   33  C27 UNK     1      29.727  -9.460  28.069  1.00  0.00     0.069 C 
HETATM   34  C28 UNK     1      28.454  -9.699  28.857  1.00  0.00     0.016 C 
ENDBRANCH  32  33
ENDBRANCH  31  32
ENDBRANCH  30  31
ENDBRANCH  29  30
ENDBRANCH  27  29
ENDBRANCH  10  27
BRANCH   4  35
HETATM   35  C12 UNK     1      32.360  -4.599  37.326  1.00  0.00     0.270 C 
HETATM   36  O4  UNK     1      32.228  -3.567  36.682  1.00  0.00    -0.264 OA
BRANCH  35  37
HETATM   37  O2  UNK     1      31.859  -4.845  38.571  1.00  0.00    -0.326 OA
HETATM   38  C20 UNK     1      30.449  -4.649  38.715  1.00  0.00     0.213 C 
ENDBRANCH  35  37
ENDBRANCH   4  35
TORSDOF 9
ENDMDL
MODEL 7
REMARK VINA RESULT:      -7.7      2.686      7.261
REMARK  9 active torsions:
REMARK  status: ('A' for Active; 'I' for Inactive)
REMARK    1  A    between atoms: C25_34  and  S1_1 
REMARK    2  A    between atoms: C27_36  and  S1_1 
REMARK    3  A    between atoms: C12_21  and  O2_3 
REMARK    4  A    between atoms: C14_23  and  O5_6 
REMARK    5  A    between atoms: C22_31  and  O5_6 
REMARK    6  A    between atoms: C12_21  and  C2_11 
REMARK    7  A    between atoms: C11_20  and  C6_15 
REMARK    8  A    between atoms: C14_23  and  C8_17 
REMARK    9  A    between atoms: C22_31  and  C25_34 
ROOT
HETATM    1  O1  UNK     1      30.108  -9.281  31.832  1.00  0.00    -0.292 OA
HETATM    2  N1  UNK     1      28.275  -6.285  35.008  1.00  0.00    -0.362 N 
HETATM    3  C1  UNK     1      27.939  -6.435  31.246  1.00  0.00     0.008 C 
HETATM    4  C2  UNK     1      28.275  -7.924  31.077  1.00  0.00     0.164 C 
HETATM    5  C3  UNK     1      27.470  -6.191  32.689  1.00  0.00     0.063 C 
HETATM    6  C4  UNK     1      29.286  -7.760  33.454  1.00  0.00     0.025 C 
HETATM    7  C5  UNK     1      28.392  -6.785  33.726  1.00  0.00     0.020 C 
HETATM    8  C6  UNK     1      30.240  -8.278  34.529  1.00  0.00     0.104 C 
HETATM    9  C7  UNK     1      29.311  -8.381  32.091  1.00  0.00     0.172 C 
HETATM   10  C8  UNK     1      29.865  -7.777  35.927  1.00  0.00     0.052 C 
HETATM   11  C9  UNK     1      29.102  -5.501  30.877  1.00  0.00     0.011 C 
HETATM   12  C10 UNK     1      28.945  -6.801  36.105  1.00  0.00     0.018 C 
HETATM   13  C13 UNK     1      28.553  -6.203  37.429  1.00  0.00     0.069 C 
HETATM   14  H9  UNK     1      27.587  -5.559  35.173  1.00  0.00     0.165 HD
ENDROOT
BRANCH   8  15
HETATM   15  C11 UNK     1      31.662  -7.894  34.203  1.00  0.00     0.029 A 
HETATM   16  C15 UNK     1      32.672  -8.973  34.056  1.00  0.00     0.194 A 
HETATM   17  O7  UNK     1      32.386 -10.155  34.191  1.00  0.00    -0.287 OA
HETATM   18  C17 UNK     1      34.046  -8.542  33.739  1.00  0.00     0.049 A 
HETATM   19  C18 UNK     1      34.315  -7.180  33.598  1.00  0.00     0.089 A 
HETATM   20  C19 UNK     1      35.069  -9.481  33.580  1.00  0.00     0.025 A 
HETATM   21  O3  UNK     1      33.350  -6.215  33.742  1.00  0.00    -0.321 OA
HETATM   22  C21 UNK     1      35.608  -6.750  33.298  1.00  0.00     0.039 A 
HETATM   23  C16 UNK     1      32.075  -6.631  34.038  1.00  0.00     0.154 A 
HETATM   24  C24 UNK     1      36.630  -7.685  33.139  1.00  0.00     0.009 A 
HETATM   25  C23 UNK     1      36.361  -9.048  33.280  1.00  0.00    -0.061 A 
HETATM   26  C26 UNK     1      37.458 -10.044  33.108  1.00  0.00     0.048 C 
ENDBRANCH   8  15
BRANCH  10  27
HETATM   27  C14 UNK     1      30.513  -8.449  37.067  1.00  0.00     0.292 C 
HETATM   28  O6  UNK     1      31.574  -8.088  37.539  1.00  0.00    -0.259 OA
BRANCH  27  29
HETATM   29  O5  UNK     1      29.730  -9.484  37.453  1.00  0.00    -0.317 OA
BRANCH  29  30
HETATM   30  C22 UNK     1      29.257  -9.415  38.802  1.00  0.00     0.189 C 
BRANCH  30  31
HETATM   31  C25 UNK     1      27.903 -10.097  38.916  1.00  0.00     0.100 C 
BRANCH  31  32
HETATM   32  S1  UNK     1      26.561  -8.884  39.102  1.00  0.00    -0.167 SA
BRANCH  32  33
HETATM   33  C27 UNK     1      25.987  -8.869  37.389  1.00  0.00     0.069 C 
HETATM   34  C28 UNK     1      26.262 -10.203  36.723  1.00  0.00     0.016 C 
ENDBRANCH  32  33
ENDBRANCH  31  32
ENDBRANCH  30  31
ENDBRANCH  29  30
ENDBRANCH  27  29
ENDBRANCH  10  27
BRANCH   4  35
HETATM   35  C12 UNK     1      28.643  -8.227  29.657  1.00  0.00     0.270 C 
HETATM   36  O4  UNK     1      29.551  -7.674  29.052  1.00  0.00    -0.264 OA
BRANCH  35  37
HETATM   37  O2  UNK     1      27.817  -9.196  29.168  1.00  0.00    -0.326 OA
HETATM   38  C20 UNK     1      28.457 -10.216  28.395  1.00  0.00     0.213 C 
ENDBRANCH  35  37
ENDBRANCH   4  35
TORSDOF 9
ENDMDL
MODEL 8
REMARK VINA RESULT:      -7.5      2.994      7.024
REMARK  9 active torsions:
REMARK  status: ('A' for Active; 'I' for Inactive)
REMARK    1  A    between atoms: C25_34  and  S1_1 
REMARK    2  A    between atoms: C27_36  and  S1_1 
REMARK    3  A    between atoms: C12_21  and  O2_3 
REMARK    4  A    between atoms: C14_23  and  O5_6 
REMARK    5  A    between atoms: C22_31  and  O5_6 
REMARK    6  A    between atoms: C12_21  and  C2_11 
REMARK    7  A    between atoms: C11_20  and  C6_15 
REMARK    8  A    between atoms: C14_23  and  C8_17 
REMARK    9  A    between atoms: C22_31  and  C25_34 
ROOT
HETATM    1  O1  UNK     1      30.085  -7.284  32.093  1.00  0.00    -0.292 OA
HETATM    2  N1  UNK     1      34.740  -8.029  31.640  1.00  0.00    -0.362 N 
HETATM    3  C1  UNK     1      31.786  -9.599  29.879  1.00  0.00     0.008 C 
HETATM    4  C2  UNK     1      30.786  -8.458  30.117  1.00  0.00     0.164 C 
HETATM    5  C3  UNK     1      33.213  -9.043  30.005  1.00  0.00     0.063 C 
HETATM    6  C4  UNK     1      32.420  -7.679  31.967  1.00  0.00     0.025 C 
HETATM    7  C5  UNK     1      33.428  -8.221  31.251  1.00  0.00     0.020 C 
HETATM    8  C6  UNK     1      32.692  -6.911  33.259  1.00  0.00     0.104 C 
HETATM    9  C7  UNK     1      31.013  -7.787  31.462  1.00  0.00     0.172 C 
HETATM   10  C8  UNK     1      34.183  -6.616  33.454  1.00  0.00     0.052 C 
HETATM   11  C9  UNK     1      31.576 -10.800  30.816  1.00  0.00     0.011 C 
HETATM   12  C10 UNK     1      35.126  -7.198  32.679  1.00  0.00     0.018 C 
HETATM   13  C13 UNK     1      36.612  -7.018  32.830  1.00  0.00     0.069 C 
HETATM   14  H9  UNK     1      35.468  -8.447  31.073  1.00  0.00     0.165 HD
ENDROOT
BRANCH   8  15
HETATM   15  C11 UNK     1      32.152  -7.666  34.447  1.00  0.00     0.029 A 
HETATM   16  C15 UNK     1      31.013  -7.082  35.201  1.00  0.00     0.194 A 
HETATM   17  O7  UNK     1      30.505  -6.014  34.888  1.00  0.00    -0.287 OA
HETATM   18  C17 UNK     1      30.525  -7.862  36.354  1.00  0.00     0.049 A 
HETATM   19  C18 UNK     1      31.144  -9.073  36.665  1.00  0.00     0.089 A 
HETATM   20  C19 UNK     1      29.457  -7.397  37.128  1.00  0.00     0.025 A 
HETATM   21  O3  UNK     1      32.194  -9.576  35.941  1.00  0.00    -0.321 OA
HETATM   22  C21 UNK     1      30.698  -9.826  37.753  1.00  0.00     0.039 A 
HETATM   23  C16 UNK     1      32.639  -8.840  34.870  1.00  0.00     0.154 A 
HETATM   24  C24 UNK     1      29.633  -9.365  38.526  1.00  0.00     0.009 A 
HETATM   25  C23 UNK     1      29.014  -8.153  38.214  1.00  0.00    -0.061 A 
HETATM   26  C26 UNK     1      27.875  -7.666  39.044  1.00  0.00     0.048 C 
ENDBRANCH   8  15
BRANCH  10  27
HETATM   27  C14 UNK     1      34.531  -5.626  34.488  1.00  0.00     0.292 C 
HETATM   28  O6  UNK     1      34.417  -4.426  34.328  1.00  0.00    -0.259 OA
BRANCH  27  29
HETATM   29  O5  UNK     1      34.975  -6.290  35.582  1.00  0.00    -0.317 OA
BRANCH  29  30
HETATM   30  C22 UNK     1      34.697  -5.651  36.832  1.00  0.00     0.189 C 
BRANCH  30  31
HETATM   31  C25 UNK     1      33.772  -6.522  37.668  1.00  0.00     0.100 C 
BRANCH  31  32
HETATM   32  S1  UNK     1      32.502  -5.527  38.509  1.00  0.00    -0.167 SA
BRANCH  32  33
HETATM   33  C27 UNK     1      32.211  -4.318  37.198  1.00  0.00     0.069 C 
HETATM   34  C28 UNK     1      30.834  -3.700  37.339  1.00  0.00     0.016 C 
ENDBRANCH  32  33
ENDBRANCH  31  32
ENDBRANCH  30  31
ENDBRANCH  29  30
ENDBRANCH  27  29
ENDBRANCH  10  27
BRANCH   4  35
HETATM   35  C12 UNK     1      29.380  -8.933  29.908  1.00  0.00     0.270 C 
HETATM   36  O4  UNK     1      28.584  -9.139  30.814  1.00  0.00    -0.264 OA
BRANCH  35  37
HETATM   37  O2  UNK     1      29.146  -9.093  28.574  1.00  0.00    -0.326 OA
HETATM   38  C20 UNK     1      28.341 -10.222  28.222  1.00  0.00     0.213 C 
ENDBRANCH  35  37
ENDBRANCH   4  35
TORSDOF 9
ENDMDL
MODEL 9
REMARK VINA RESULT:      -7.4      1.808      2.517
REMARK  9 active torsions:
REMARK  status: ('A' for Active; 'I' for Inactive)
REMARK    1  A    between atoms: C25_34  and  S1_1 
REMARK    2  A    between atoms: C27_36  and  S1_1 
REMARK    3  A    between atoms: C12_21  and  O2_3 
REMARK    4  A    between atoms: C14_23  and  O5_6 
REMARK    5  A    between atoms: C22_31  and  O5_6 
REMARK    6  A    between atoms: C12_21  and  C2_11 
REMARK    7  A    between atoms: C11_20  and  C6_15 
REMARK    8  A    between atoms: C14_23  and  C8_17 
REMARK    9  A    between atoms: C22_31  and  C25_34 
ROOT
HETATM    1  O1  UNK     1      26.560  -9.423  36.606  1.00  0.00    -0.292 OA
HETATM    2  N1  UNK     1      30.345  -7.318  38.521  1.00  0.00    -0.362 N 
HETATM    3  C1  UNK     1      26.651  -6.896  39.205  1.00  0.00     0.008 C 
HETATM    4  C2  UNK     1      26.196  -8.265  38.679  1.00  0.00     0.164 C 
HETATM    5  C3  UNK     1      28.145  -6.970  39.557  1.00  0.00     0.063 C 
HETATM    6  C4  UNK     1      28.483  -8.339  37.470  1.00  0.00     0.025 C 
HETATM    7  C5  UNK     1      28.989  -7.575  38.462  1.00  0.00     0.020 C 
HETATM    8  C6  UNK     1      29.375  -8.871  36.350  1.00  0.00     0.104 C 
HETATM    9  C7  UNK     1      27.032  -8.715  37.493  1.00  0.00     0.172 C 
HETATM   10  C8  UNK     1      30.864  -8.673  36.651  1.00  0.00     0.052 C 
HETATM   11  C9  UNK     1      26.370  -5.743  38.228  1.00  0.00     0.011 C 
HETATM   12  C10 UNK     1      31.280  -7.896  37.677  1.00  0.00     0.018 C 
HETATM   13  C13 UNK     1      32.715  -7.595  38.017  1.00  0.00     0.069 C 
HETATM   14  H9  UNK     1      30.686  -6.746  39.284  1.00  0.00     0.165 HD
ENDROOT
BRANCH   8  15
HETATM   15  C11 UNK     1      29.019  -8.221  35.036  1.00  0.00     0.029 A 
HETATM   16  C15 UNK     1      28.869  -9.082  33.836  1.00  0.00     0.194 A 
HETATM   17  O7  UNK     1      29.026 -10.294  33.881  1.00  0.00    -0.287 OA
HETATM   18  C17 UNK     1      28.522  -8.394  32.578  1.00  0.00     0.049 A 
HETATM   19  C18 UNK     1      28.357  -7.009  32.586  1.00  0.00     0.089 A 
HETATM   20  C19 UNK     1      28.359  -9.116  31.392  1.00  0.00     0.025 A 
HETATM   21  O3  UNK     1      28.504  -6.250  33.719  1.00  0.00    -0.321 OA
HETATM   22  C21 UNK     1      28.028  -6.337  31.407  1.00  0.00     0.039 A 
HETATM   23  C16 UNK     1      28.829  -6.904  34.883  1.00  0.00     0.154 A 
HETATM   24  C24 UNK     1      27.865  -7.056  30.223  1.00  0.00     0.009 A 
HETATM   25  C23 UNK     1      28.030  -8.442  30.215  1.00  0.00    -0.061 A 
HETATM   26  C26 UNK     1      27.853  -9.205  28.946  1.00  0.00     0.048 C 
ENDBRANCH   8  15
BRANCH  10  27
HETATM   27  C14 UNK     1      31.814  -9.414  35.804  1.00  0.00     0.292 C 
HETATM   28  O6  UNK     1      31.942 -10.622  35.844  1.00  0.00    -0.259 OA
BRANCH  27  29
HETATM   29  O5  UNK     1      32.472  -8.524  35.023  1.00  0.00    -0.317 OA
BRANCH  29  30
HETATM   30  C22 UNK     1      32.550  -8.876  33.638  1.00  0.00     0.189 C 
BRANCH  30  31
HETATM   31  C25 UNK     1      33.936  -8.562  33.096  1.00  0.00     0.100 C 
BRANCH  31  32
HETATM   32  S1  UNK     1      33.845  -7.613  31.548  1.00  0.00    -0.167 SA
BRANCH  32  33
HETATM   33  C27 UNK     1      32.065  -7.305  31.537  1.00  0.00     0.069 C 
HETATM   34  C28 UNK     1      31.550  -7.203  30.115  1.00  0.00     0.016 C 
ENDBRANCH  32  33
ENDBRANCH  31  32
ENDBRANCH  30  31
ENDBRANCH  29  30
ENDBRANCH  27  29
ENDBRANCH  10  27
BRANCH   4  35
HETATM   35  C12 UNK     1      24.721  -8.268  38.415  1.00  0.00     0.270 C 
HETATM   36  O4  UNK     1      24.224  -8.424  37.309  1.00  0.00    -0.264 OA
BRANCH  35  37
HETATM   37  O2  UNK     1      24.047  -8.072  39.585  1.00  0.00    -0.326 OA
HETATM   38  C20 UNK     1      22.916  -7.201  39.504  1.00  0.00     0.213 C 
ENDBRANCH  35  37
ENDBRANCH   4  35
TORSDOF 9
ENDMDL
MODEL 10
REMARK VINA RESULT:      -7.4      2.498      3.355
REMARK  9 active torsions:
REMARK  status: ('A' for Active; 'I' for Inactive)
REMARK    1  A    between atoms: C25_34  and  S1_1 
REMARK    2  A    between atoms: C27_36  and  S1_1 
REMARK    3  A    between atoms: C12_21  and  O2_3 
REMARK    4  A    between atoms: C14_23  and  O5_6 
REMARK    5  A    between atoms: C22_31  and  O5_6 
REMARK    6  A    between atoms: C12_21  and  C2_11 
REMARK    7  A    between atoms: C11_20  and  C6_15 
REMARK    8  A    between atoms: C14_23  and  C8_17 
REMARK    9  A    between atoms: C22_31  and  C25_34 
ROOT
HETATM    1  O1  UNK     1      30.848 -10.066  35.663  1.00  0.00    -0.292 OA
HETATM    2  N1  UNK     1      34.748  -7.408  36.065  1.00  0.00    -0.362 N 
HETATM    3  C1  UNK     1      31.611  -7.557  38.169  1.00  0.00     0.008 C 
HETATM    4  C2  UNK     1      31.180  -8.979  37.781  1.00  0.00     0.164 C 
HETATM    5  C3  UNK     1      33.116  -7.402  37.901  1.00  0.00     0.063 C 
HETATM    6  C4  UNK     1      32.784  -8.701  35.769  1.00  0.00     0.025 C 
HETATM    7  C5  UNK     1      33.530  -7.870  36.527  1.00  0.00     0.020 C 
HETATM    8  C6  UNK     1      33.223  -9.089  34.358  1.00  0.00     0.104 C 
HETATM    9  C7  UNK     1      31.530  -9.294  36.336  1.00  0.00     0.172 C 
HETATM   10  C8  UNK     1      34.665  -8.666  34.062  1.00  0.00     0.052 C 
HETATM   11  C9  UNK     1      30.806  -6.460  37.454  1.00  0.00     0.011 C 
HETATM   12  C10 UNK     1      35.342  -7.836  34.888  1.00  0.00     0.018 C 
HETATM   13  C13 UNK     1      36.735  -7.319  34.655  1.00  0.00     0.069 C 
HETATM   14  H9  UNK     1      35.281  -6.792  36.667  1.00  0.00     0.165 HD
ENDROOT
BRANCH   8  15
HETATM   15  C11 UNK     1      32.287  -8.499  33.332  1.00  0.00     0.029 A 
HETATM   16  C15 UNK     1      31.580  -9.419  32.404  1.00  0.00     0.194 A 
HETATM   17  O7  UNK     1      31.734 -10.631  32.448  1.00  0.00    -0.287 OA
HETATM   18  C17 UNK     1      30.679  -8.789  31.422  1.00  0.00     0.049 A 
HETATM   19  C18 UNK     1      30.543  -7.400  31.418  1.00  0.00     0.089 A 
HETATM   20  C19 UNK     1      29.968  -9.568  30.505  1.00  0.00     0.025 A 
HETATM   21  O3  UNK     1      31.215  -6.587  32.294  1.00  0.00    -0.321 OA
HETATM   22  C21 UNK     1      29.695  -6.783  30.496  1.00  0.00     0.039 A 
HETATM   23  C16 UNK     1      32.052  -7.187  33.204  1.00  0.00     0.154 A 
HETATM   24  C24 UNK     1      28.985  -7.558  29.580  1.00  0.00     0.009 A 
HETATM   25  C23 UNK     1      29.121  -8.948  29.585  1.00  0.00    -0.061 A 
HETATM   26  C26 UNK     1      28.358  -9.773  28.604  1.00  0.00     0.048 C 
ENDBRANCH   8  15
BRANCH  10  27
HETATM   27  C14 UNK     1      35.294  -9.251  32.865  1.00  0.00     0.292 C 
HETATM   28  O6  UNK     1      35.468  -8.633  31.833  1.00  0.00    -0.259 OA
BRANCH  27  29
HETATM   29  O5  UNK     1      35.617 -10.538  33.140  1.00  0.00    -0.317 OA
BRANCH  29  30
HETATM   30  C22 UNK     1      36.931 -10.933  32.731  1.00  0.00     0.189 C 
BRANCH  30  31
HETATM   31  C25 UNK     1      37.659 -11.600  33.887  1.00  0.00     0.100 C 
BRANCH  31  32
HETATM   32  S1  UNK     1      39.335 -12.117  33.408  1.00  0.00    -0.167 SA
BRANCH  32  33
HETATM   33  C27 UNK     1      39.788 -10.660  32.439  1.00  0.00     0.069 C 
HETATM   34  C28 UNK     1      41.294 -10.569  32.286  1.00  0.00     0.016 C 
ENDBRANCH  32  33
ENDBRANCH  31  32
ENDBRANCH  30  31
ENDBRANCH  29  30
ENDBRANCH  27  29
ENDBRANCH  10  27
BRANCH   4  35
HETATM   35  C12 UNK     1      29.738  -9.207  38.117  1.00  0.00     0.270 C 
HETATM   36  O4  UNK     1      28.809  -8.610  37.591  1.00  0.00    -0.264 OA
BRANCH  35  37
HETATM   37  O2  UNK     1      29.641 -10.166  39.082  1.00  0.00    -0.326 OA
HETATM   38  C20 UNK     1      28.391 -10.214  39.776  1.00  0.00     0.213 C 
ENDBRANCH  35  37
ENDBRANCH   4  35
TORSDOF 9
ENDMDL
