MODEL 1
REMARK VINA RESULT:      -8.4      0.000      0.000
REMARK  5 active torsions:
REMARK  status: ('A' for Active; 'I' for Inactive)
REMARK    1  A    between atoms: C9_14  and  O3_3 
REMARK    2  A    between atoms: C25_30  and  O5_5 
REMARK    3  A    between atoms: C12_17  and  C4_9 
REMARK    4  A    between atoms: C12_17  and  C15_20 
REMARK    5  A    between atoms: C14_19  and  C17_22 
ROOT
HETATM    1  O1  UNK     1      15.053  12.852  34.910  1.00  0.00    -0.335 OA
HETATM    2  O2  UNK     1      18.258   9.450  33.702  1.00  0.00    -0.320 OA
HETATM    3  O4  UNK     1      15.322   7.214  31.976  1.00  0.00    -0.286 OA
HETATM    4  C1  UNK     1      16.061  13.663  35.546  1.00  0.00     0.078 A 
HETATM    5  C2  UNK     1      15.410  11.661  34.343  1.00  0.00     0.092 A 
HETATM    6  C3  UNK     1      16.717  11.163  34.324  1.00  0.00     0.033 A 
HETATM    7  C4  UNK     1      14.367  10.937  33.757  1.00  0.00     0.014 A 
HETATM    8  C5  UNK     1      16.966   9.924  33.709  1.00  0.00     0.105 A 
HETATM    9  C6  UNK     1      17.465  13.113  35.512  1.00  0.00     0.012 A 
HETATM   10  C7  UNK     1      15.920   9.204  33.127  1.00  0.00     0.083 A 
HETATM   11  C8  UNK     1      17.777  11.948  34.944  1.00  0.00     0.016 A 
HETATM   12  C9  UNK     1      14.618   9.708  33.149  1.00  0.00     0.092 A 
HETATM   13  C10 UNK     1      16.033  15.024  34.840  1.00  0.00     0.051 C 
HETATM   14  C11 UNK     1      15.619  13.835  37.005  1.00  0.00     0.051 C 
HETATM   15  C13 UNK     1      16.197   7.902  32.488  1.00  0.00     0.200 A 
HETATM   16  C14 UNK     1      17.613   7.451  32.489  1.00  0.00     0.048 A 
HETATM   17  C16 UNK     1      18.508   8.250  33.085  1.00  0.00     0.159 A 
ENDROOT
BRANCH  16  18
HETATM   18  C17 UNK     1      18.033   6.202  31.881  1.00  0.00    -0.020 A 
HETATM   19  C19 UNK     1      17.799   4.990  32.534  1.00  0.00     0.015 A 
HETATM   20  C23 UNK     1      18.204   3.790  31.949  1.00  0.00     0.037 A 
HETATM   21  C25 UNK     1      18.843   3.800  30.709  1.00  0.00     0.065 A 
HETATM   22  C24 UNK     1      19.079   5.009  30.055  1.00  0.00     0.037 A 
HETATM   23  C20 UNK     1      18.674   6.209  30.640  1.00  0.00     0.015 A 
BRANCH  21  24
HETATM   24  O5  UNK     1      19.238   2.629  30.138  1.00  0.00    -0.361 OA
HETATM   25  H24 UNK     1      18.477   2.226  29.686  1.00  0.00     0.217 HD
ENDBRANCH  21  24
ENDBRANCH  16  18
BRANCH  12  26
HETATM   26  O3  UNK     1      13.573   9.033  32.590  1.00  0.00    -0.359 OA
HETATM   27  H13 UNK     1      13.794   8.729  31.697  1.00  0.00     0.217 HD
ENDBRANCH  12  26
BRANCH   7  28
HETATM   28  C12 UNK     1      12.971  11.478  33.782  1.00  0.00     0.072 C 
BRANCH  28  29
HETATM   29  C15 UNK     1      12.756  12.582  32.781  1.00  0.00    -0.020 C 
HETATM   30  C18 UNK     1      12.329  13.839  33.010  1.00  0.00    -0.091 C 
HETATM   31  C21 UNK     1      12.137  14.895  31.959  1.00  0.00     0.042 C 
HETATM   32  C22 UNK     1      11.990  14.284  34.407  1.00  0.00     0.042 C 
ENDBRANCH  28  29
ENDBRANCH   7  28
TORSDOF 5
ENDMDL
MODEL 2
REMARK VINA RESULT:      -8.2     19.167     21.665
REMARK  5 active torsions:
REMARK  status: ('A' for Active; 'I' for Inactive)
REMARK    1  A    between atoms: C9_14  and  O3_3 
REMARK    2  A    between atoms: C25_30  and  O5_5 
REMARK    3  A    between atoms: C12_17  and  C4_9 
REMARK    4  A    between atoms: C12_17  and  C15_20 
REMARK    5  A    between atoms: C14_19  and  C17_22 
ROOT
HETATM    1  O1  UNK     1      30.278  -7.152  37.800  1.00  0.00    -0.335 OA
HETATM    2  O2  UNK     1      25.967  -9.252  37.247  1.00  0.00    -0.320 OA
HETATM    3  O4  UNK     1      24.118  -6.033  38.926  1.00  0.00    -0.286 OA
HETATM    4  C1  UNK     1      30.970  -8.280  37.228  1.00  0.00     0.078 A 
HETATM    5  C2  UNK     1      28.916  -7.187  37.916  1.00  0.00     0.092 A 
HETATM    6  C3  UNK     1      28.124  -8.261  37.496  1.00  0.00     0.033 A 
HETATM    7  C4  UNK     1      28.331  -6.056  38.490  1.00  0.00     0.014 A 
HETATM    8  C5  UNK     1      26.730  -8.186  37.664  1.00  0.00     0.105 A 
HETATM    9  C6  UNK     1      30.099  -9.426  36.779  1.00  0.00     0.012 A 
HETATM   10  C7  UNK     1      26.150  -7.052  38.241  1.00  0.00     0.083 A 
HETATM   11  C8  UNK     1      28.771  -9.424  36.901  1.00  0.00     0.016 A 
HETATM   12  C9  UNK     1      26.949  -5.985  38.655  1.00  0.00     0.092 A 
HETATM   13  C10 UNK     1      31.759  -7.742  36.028  1.00  0.00     0.051 C 
HETATM   14  C11 UNK     1      31.947  -8.777  38.301  1.00  0.00     0.051 C 
HETATM   15  C13 UNK     1      24.686  -6.989  38.412  1.00  0.00     0.200 A 
HETATM   16  C14 UNK     1      23.910  -8.159  37.924  1.00  0.00     0.048 A 
HETATM   17  C16 UNK     1      24.604  -9.173  37.390  1.00  0.00     0.159 A 
ENDROOT
BRANCH  16  18
HETATM   18  C17 UNK     1      22.462  -8.225  38.011  1.00  0.00    -0.020 A 
HETATM   19  C19 UNK     1      21.847  -8.545  39.222  1.00  0.00     0.015 A 
HETATM   20  C23 UNK     1      20.455  -8.609  39.304  1.00  0.00     0.037 A 
HETATM   21  C25 UNK     1      19.677  -8.353  38.176  1.00  0.00     0.065 A 
HETATM   22  C24 UNK     1      20.290  -8.033  36.964  1.00  0.00     0.037 A 
HETATM   23  C20 UNK     1      21.681  -7.969  36.881  1.00  0.00     0.015 A 
BRANCH  21  24
HETATM   24  O5  UNK     1      18.321  -8.415  38.256  1.00  0.00    -0.361 OA
HETATM   25  H24 UNK     1      18.005  -7.695  38.829  1.00  0.00     0.217 HD
ENDBRANCH  21  24
ENDBRANCH  16  18
BRANCH  12  26
HETATM   26  O3  UNK     1      26.418  -4.862  39.220  1.00  0.00    -0.359 OA
HETATM   27  H13 UNK     1      26.994  -4.096  39.076  1.00  0.00     0.217 HD
ENDBRANCH  12  26
BRANCH   7  28
HETATM   28  C12 UNK     1      29.189  -4.911  38.934  1.00  0.00     0.072 C 
BRANCH  28  29
HETATM   29  C15 UNK     1      29.879  -4.221  37.788  1.00  0.00    -0.020 C 
HETATM   30  C18 UNK     1      31.201  -4.147  37.537  1.00  0.00    -0.091 C 
HETATM   31  C21 UNK     1      31.825  -3.440  36.368  1.00  0.00     0.042 C 
HETATM   32  C22 UNK     1      32.188  -4.798  38.469  1.00  0.00     0.042 C 
ENDBRANCH  28  29
ENDBRANCH   7  28
TORSDOF 5
ENDMDL
MODEL 3
REMARK VINA RESULT:      -8.0     11.979     18.665
REMARK  5 active torsions:
REMARK  status: ('A' for Active; 'I' for Inactive)
REMARK    1  A    between atoms: C9_14  and  O3_3 
REMARK    2  A    between atoms: C25_30  and  O5_5 
REMARK    3  A    between atoms: C12_17  and  C4_9 
REMARK    4  A    between atoms: C12_17  and  C15_20 
REMARK    5  A    between atoms: C14_19  and  C17_22 
ROOT
HETATM    1  O1  UNK     1      21.139  -9.342  37.789  1.00  0.00    -0.335 OA
HETATM    2  O2  UNK     1      18.367  -5.579  36.578  1.00  0.00    -0.320 OA
HETATM    3  O4  UNK     1      21.221  -2.981  37.886  1.00  0.00    -0.286 OA
HETATM    4  C1  UNK     1      20.146 -10.292  37.354  1.00  0.00     0.078 A 
HETATM    5  C2  UNK     1      20.880  -8.003  37.683  1.00  0.00     0.092 A 
HETATM    6  C3  UNK     1      19.695  -7.475  37.157  1.00  0.00     0.033 A 
HETATM    7  C4  UNK     1      21.894  -7.155  38.137  1.00  0.00     0.014 A 
HETATM    8  C5  UNK     1      19.540  -6.080  37.096  1.00  0.00     0.105 A 
HETATM    9  C6  UNK     1      18.878  -9.704  36.787  1.00  0.00     0.012 A 
HETATM   10  C7  UNK     1      20.556  -5.237  37.554  1.00  0.00     0.083 A 
HETATM   11  C8  UNK     1      18.662  -8.392  36.693  1.00  0.00     0.016 A 
HETATM   12  C9  UNK     1      21.735  -5.772  38.075  1.00  0.00     0.092 A 
HETATM   13  C10 UNK     1      20.820 -11.166  36.289  1.00  0.00     0.051 C 
HETATM   14  C11 UNK     1      19.804 -11.150  38.578  1.00  0.00     0.051 C 
HETATM   15  C13 UNK     1      20.377  -3.774  37.485  1.00  0.00     0.200 A 
HETATM   16  C14 UNK     1      19.101  -3.289  36.896  1.00  0.00     0.048 A 
HETATM   17  C16 UNK     1      18.221  -4.217  36.497  1.00  0.00     0.159 A 
ENDROOT
BRANCH  16  18
HETATM   18  C17 UNK     1      18.797  -1.877  36.749  1.00  0.00    -0.020 A 
HETATM   19  C19 UNK     1      19.207  -1.187  35.607  1.00  0.00     0.015 A 
HETATM   20  C23 UNK     1      18.914   0.171  35.467  1.00  0.00     0.037 A 
HETATM   21  C25 UNK     1      18.211   0.839  36.468  1.00  0.00     0.065 A 
HETATM   22  C24 UNK     1      17.801   0.152  37.611  1.00  0.00     0.037 A 
HETATM   23  C20 UNK     1      18.094  -1.205  37.751  1.00  0.00     0.015 A 
BRANCH  21  24
HETATM   24  O5  UNK     1      17.926   2.163  36.332  1.00  0.00    -0.361 OA
HETATM   25  H24 UNK     1      17.515   2.309  35.462  1.00  0.00     0.217 HD
ENDBRANCH  21  24
ENDBRANCH  16  18
BRANCH  12  26
HETATM   26  O3  UNK     1      22.749  -4.980  38.530  1.00  0.00    -0.359 OA
HETATM   27  H13 UNK     1      23.078  -4.401  37.827  1.00  0.00     0.217 HD
ENDBRANCH  12  26
BRANCH   7  28
HETATM   28  C12 UNK     1      23.158  -7.731  38.697  1.00  0.00     0.072 C 
BRANCH  28  29
HETATM   29  C15 UNK     1      23.978  -8.453  37.661  1.00  0.00    -0.020 C 
HETATM   30  C18 UNK     1      25.268  -8.836  37.742  1.00  0.00    -0.091 C 
HETATM   31  C21 UNK     1      26.027  -9.558  36.665  1.00  0.00     0.042 C 
HETATM   32  C22 UNK     1      26.073  -8.539  38.978  1.00  0.00     0.042 C 
ENDBRANCH  28  29
ENDBRANCH   7  28
TORSDOF 5
ENDMDL
MODEL 4
REMARK VINA RESULT:      -8.0     21.215     22.756
REMARK  5 active torsions:
REMARK  status: ('A' for Active; 'I' for Inactive)
REMARK    1  A    between atoms: C9_14  and  O3_3 
REMARK    2  A    between atoms: C25_30  and  O5_5 
REMARK    3  A    between atoms: C12_17  and  C4_9 
REMARK    4  A    between atoms: C12_17  and  C15_20 
REMARK    5  A    between atoms: C14_19  and  C17_22 
ROOT
HETATM    1  O1  UNK     1      30.790  -6.318  37.782  1.00  0.00    -0.335 OA
HETATM    2  O2  UNK     1      30.958  -6.270  32.958  1.00  0.00    -0.320 OA
HETATM    3  O4  UNK     1      29.513 -10.076  32.810  1.00  0.00    -0.286 OA
HETATM    4  C1  UNK     1      31.317  -4.980  37.876  1.00  0.00     0.078 A 
HETATM    5  C2  UNK     1      30.610  -6.885  36.551  1.00  0.00     0.092 A 
HETATM    6  C3  UNK     1      30.896  -6.239  35.344  1.00  0.00     0.033 A 
HETATM    7  C4  UNK     1      30.104  -8.188  36.556  1.00  0.00     0.014 A 
HETATM    8  C5  UNK     1      30.670  -6.921  34.135  1.00  0.00     0.105 A 
HETATM    9  C6  UNK     1      31.615  -4.298  36.564  1.00  0.00     0.012 A 
HETATM   10  C7  UNK     1      30.165  -8.224  34.146  1.00  0.00     0.083 A 
HETATM   11  C8  UNK     1      31.422  -4.880  35.380  1.00  0.00     0.016 A 
HETATM   12  C9  UNK     1      29.881  -8.861  35.356  1.00  0.00     0.092 A 
HETATM   13  C10 UNK     1      30.278  -4.158  38.649  1.00  0.00     0.051 C 
HETATM   14  C11 UNK     1      32.606  -5.081  38.700  1.00  0.00     0.051 C 
HETATM   15  C13 UNK     1      29.936  -8.928  32.870  1.00  0.00     0.200 A 
HETATM   16  C14 UNK     1      30.243  -8.169  31.629  1.00  0.00     0.048 A 
HETATM   17  C16 UNK     1      30.719  -6.925  31.776  1.00  0.00     0.159 A 
ENDROOT
BRANCH  16  18
HETATM   18  C17 UNK     1      30.048  -8.729  30.304  1.00  0.00    -0.020 A 
HETATM   19  C19 UNK     1      28.764  -9.042  29.857  1.00  0.00     0.015 A 
HETATM   20  C23 UNK     1      28.578  -9.581  28.583  1.00  0.00     0.037 A 
HETATM   21  C25 UNK     1      29.676  -9.806  27.754  1.00  0.00     0.065 A 
HETATM   22  C24 UNK     1      30.961  -9.494  28.198  1.00  0.00     0.037 A 
HETATM   23  C20 UNK     1      31.148  -8.956  29.472  1.00  0.00     0.015 A 
BRANCH  21  24
HETATM   24  O5  UNK     1      29.494 -10.331  26.512  1.00  0.00    -0.361 OA
HETATM   25  H24 UNK     1      28.542 -10.459  26.360  1.00  0.00     0.217 HD
ENDBRANCH  21  24
ENDBRANCH  16  18
BRANCH  12  26
HETATM   26  O3  UNK     1      29.386 -10.131  35.404  1.00  0.00    -0.359 OA
HETATM   27  H13 UNK     1      30.079 -10.780  35.211  1.00  0.00     0.217 HD
ENDBRANCH  12  26
BRANCH   7  28
HETATM   28  C12 UNK     1      29.800  -8.870  37.854  1.00  0.00     0.072 C 
BRANCH  28  29
HETATM   29  C15 UNK     1      28.322  -9.037  38.092  1.00  0.00    -0.020 C 
HETATM   30  C18 UNK     1      27.497  -8.229  38.786  1.00  0.00    -0.091 C 
HETATM   31  C21 UNK     1      26.025  -8.456  38.984  1.00  0.00     0.042 C 
HETATM   32  C22 UNK     1      28.029  -6.986  39.448  1.00  0.00     0.042 C 
ENDBRANCH  28  29
ENDBRANCH   7  28
TORSDOF 5
ENDMDL
MODEL 5
REMARK VINA RESULT:      -8.0     20.661     24.636
REMARK  5 active torsions:
REMARK  status: ('A' for Active; 'I' for Inactive)
REMARK    1  A    between atoms: C9_14  and  O3_3 
REMARK    2  A    between atoms: C25_30  and  O5_5 
REMARK    3  A    between atoms: C12_17  and  C4_9 
REMARK    4  A    between atoms: C12_17  and  C15_20 
REMARK    5  A    between atoms: C14_19  and  C17_22 
ROOT
HETATM    1  O1  UNK     1      30.533 -10.382  30.240  1.00  0.00    -0.335 OA
HETATM    2  O2  UNK     1      28.806  -6.971  33.187  1.00  0.00    -0.320 OA
HETATM    3  O4  UNK     1      31.364  -8.140  36.135  1.00  0.00    -0.286 OA
HETATM    4  C1  UNK     1      29.631 -10.010  29.179  1.00  0.00     0.078 A 
HETATM    5  C2  UNK     1      30.491  -9.704  31.426  1.00  0.00     0.092 A 
HETATM    6  C3  UNK     1      29.622  -8.640  31.688  1.00  0.00     0.033 A 
HETATM    7  C4  UNK     1      31.394 -10.138  32.401  1.00  0.00     0.014 A 
HETATM    8  C5  UNK     1      29.669  -8.015  32.947  1.00  0.00     0.105 A 
HETATM    9  C6  UNK     1      28.705  -8.858  29.478  1.00  0.00     0.012 A 
HETATM   10  C7  UNK     1      30.573  -8.455  33.918  1.00  0.00     0.083 A 
HETATM   11  C8  UNK     1      28.696  -8.215  30.647  1.00  0.00     0.016 A 
HETATM   12  C9  UNK     1      31.438  -9.517  33.647  1.00  0.00     0.092 A 
HETATM   13  C10 UNK     1      30.506  -9.656  27.970  1.00  0.00     0.051 C 
HETATM   14  C11 UNK     1      28.800 -11.259  28.861  1.00  0.00     0.051 C 
HETATM   15  C13 UNK     1      30.608  -7.792  35.236  1.00  0.00     0.200 A 
HETATM   16  C14 UNK     1      29.670  -6.655  35.432  1.00  0.00     0.048 A 
HETATM   17  C16 UNK     1      28.863  -6.346  34.407  1.00  0.00     0.159 A 
ENDROOT
BRANCH  16  18
HETATM   18  C17 UNK     1      29.608  -5.899  36.669  1.00  0.00    -0.020 A 
HETATM   19  C19 UNK     1      28.720  -6.275  37.678  1.00  0.00     0.015 A 
HETATM   20  C23 UNK     1      28.661  -5.547  38.866  1.00  0.00     0.037 A 
HETATM   21  C25 UNK     1      29.493  -4.443  39.049  1.00  0.00     0.065 A 
HETATM   22  C24 UNK     1      30.382  -4.064  38.043  1.00  0.00     0.037 A 
HETATM   23  C20 UNK     1      30.440  -4.792  36.854  1.00  0.00     0.015 A 
BRANCH  21  24
HETATM   24  O5  UNK     1      29.436  -3.733  40.209  1.00  0.00    -0.361 OA
HETATM   25  H24 UNK     1      28.673  -3.130  40.173  1.00  0.00     0.217 HD
ENDBRANCH  21  24
ENDBRANCH  16  18
BRANCH  12  26
HETATM   26  O3  UNK     1      32.334  -9.972  34.570  1.00  0.00    -0.359 OA
HETATM   27  H13 UNK     1      32.220 -10.922  34.725  1.00  0.00     0.217 HD
ENDBRANCH  12  26
BRANCH   7  28
HETATM   28  C12 UNK     1      32.321 -11.278  32.110  1.00  0.00     0.072 C 
BRANCH  28  29
HETATM   29  C15 UNK     1      31.899 -12.559  32.782  1.00  0.00    -0.020 C 
HETATM   30  C18 UNK     1      31.311 -13.634  32.224  1.00  0.00    -0.091 C 
HETATM   31  C21 UNK     1      30.916 -14.885  32.957  1.00  0.00     0.042 C 
HETATM   32  C22 UNK     1      30.987 -13.647  30.754  1.00  0.00     0.042 C 
ENDBRANCH  28  29
ENDBRANCH   7  28
TORSDOF 5
ENDMDL
MODEL 6
REMARK VINA RESULT:      -8.0     20.920     25.062
REMARK  5 active torsions:
REMARK  status: ('A' for Active; 'I' for Inactive)
REMARK    1  A    between atoms: C9_14  and  O3_3 
REMARK    2  A    between atoms: C25_30  and  O5_5 
REMARK    3  A    between atoms: C12_17  and  C4_9 
REMARK    4  A    between atoms: C12_17  and  C15_20 
REMARK    5  A    between atoms: C14_19  and  C17_22 
ROOT
HETATM    1  O1  UNK     1      31.741 -12.110  31.992  1.00  0.00    -0.335 OA
HETATM    2  O2  UNK     1      31.087 -10.094  36.330  1.00  0.00    -0.320 OA
HETATM    3  O4  UNK     1      30.416  -6.463  34.606  1.00  0.00    -0.286 OA
HETATM    4  C1  UNK     1      32.002 -13.407  32.565  1.00  0.00     0.078 A 
HETATM    5  C2  UNK     1      31.473 -11.053  32.816  1.00  0.00     0.092 A 
HETATM    6  C3  UNK     1      31.420 -11.142  34.212  1.00  0.00     0.033 A 
HETATM    7  C4  UNK     1      31.241  -9.832  32.175  1.00  0.00     0.014 A 
HETATM    8  C5  UNK     1      31.133  -9.987  34.959  1.00  0.00     0.105 A 
HETATM    9  C6  UNK     1      31.936 -13.485  34.070  1.00  0.00     0.012 A 
HETATM   10  C7  UNK     1      30.905  -8.769  34.312  1.00  0.00     0.083 A 
HETATM   11  C8  UNK     1      31.666 -12.432  34.844  1.00  0.00     0.016 A 
HETATM   12  C9  UNK     1      30.958  -8.689  32.919  1.00  0.00     0.092 A 
HETATM   13  C10 UNK     1      30.966 -14.364  31.963  1.00  0.00     0.051 C 
HETATM   14  C11 UNK     1      33.405 -13.811  32.097  1.00  0.00     0.051 C 
HETATM   15  C13 UNK     1      30.608  -7.564  35.110  1.00  0.00     0.200 A 
HETATM   16  C14 UNK     1      30.549  -7.742  36.585  1.00  0.00     0.048 A 
HETATM   17  C16 UNK     1      30.788  -8.972  37.061  1.00  0.00     0.159 A 
ENDROOT
BRANCH  16  18
HETATM   18  C17 UNK     1      30.249  -6.649  37.491  1.00  0.00    -0.020 A 
HETATM   19  C19 UNK     1      31.235  -5.717  37.816  1.00  0.00     0.015 A 
HETATM   20  C23 UNK     1      30.946  -4.666  38.688  1.00  0.00     0.037 A 
HETATM   21  C25 UNK     1      29.669  -4.546  39.236  1.00  0.00     0.065 A 
HETATM   22  C24 UNK     1      28.681  -5.477  38.913  1.00  0.00     0.037 A 
HETATM   23  C20 UNK     1      28.971  -6.528  38.042  1.00  0.00     0.015 A 
BRANCH  21  24
HETATM   24  O5  UNK     1      29.387  -3.522  40.086  1.00  0.00    -0.361 OA
HETATM   25  H24 UNK     1      28.866  -3.866  40.832  1.00  0.00     0.217 HD
ENDBRANCH  21  24
ENDBRANCH  16  18
BRANCH  12  26
HETATM   26  O3  UNK     1      30.739  -7.518  32.254  1.00  0.00    -0.359 OA
HETATM   27  H13 UNK     1      30.127  -6.950  32.746  1.00  0.00     0.217 HD
ENDBRANCH  12  26
BRANCH   7  28
HETATM   28  C12 UNK     1      31.299  -9.747  30.681  1.00  0.00     0.072 C 
BRANCH  28  29
HETATM   29  C15 UNK     1      29.992 -10.107  30.026  1.00  0.00    -0.020 C 
HETATM   30  C18 UNK     1      29.182  -9.313  29.298  1.00  0.00    -0.091 C 
HETATM   31  C21 UNK     1      27.886  -9.739  28.670  1.00  0.00     0.042 C 
HETATM   32  C22 UNK     1      29.541  -7.869  29.066  1.00  0.00     0.042 C 
ENDBRANCH  28  29
ENDBRANCH   7  28
TORSDOF 5
ENDMDL
MODEL 7
REMARK VINA RESULT:      -7.9      1.148      3.445
REMARK  5 active torsions:
REMARK  status: ('A' for Active; 'I' for Inactive)
REMARK    1  A    between atoms: C9_14  and  O3_3 
REMARK    2  A    between atoms: C25_30  and  O5_5 
REMARK    3  A    between atoms: C12_17  and  C4_9 
REMARK    4  A    between atoms: C12_17  and  C15_20 
REMARK    5  A    between atoms: C14_19  and  C17_22 
ROOT
HETATM    1  O1  UNK     1      14.890  12.871  34.779  1.00  0.00    -0.335 OA
HETATM    2  O2  UNK     1      14.998   8.628  32.479  1.00  0.00    -0.320 OA
HETATM    3  O4  UNK     1      19.009   8.314  33.125  1.00  0.00    -0.286 OA
HETATM    4  C1  UNK     1      13.474  13.028  34.555  1.00  0.00     0.078 A 
HETATM    5  C2  UNK     1      15.527  11.759  34.303  1.00  0.00     0.092 A 
HETATM    6  C3  UNK     1      14.887  10.729  33.606  1.00  0.00     0.033 A 
HETATM    7  C4  UNK     1      16.900  11.696  34.558  1.00  0.00     0.014 A 
HETATM    8  C5  UNK     1      15.645   9.631  33.164  1.00  0.00     0.105 A 
HETATM    9  C6  UNK     1      12.801  11.906  33.806  1.00  0.00     0.012 A 
HETATM   10  C7  UNK     1      17.018   9.574  33.421  1.00  0.00     0.083 A 
HETATM   11  C8  UNK     1      13.454  10.831  33.360  1.00  0.00     0.016 A 
HETATM   12  C9  UNK     1      17.648  10.606  34.119  1.00  0.00     0.092 A 
HETATM   13  C10 UNK     1      12.829  13.172  35.938  1.00  0.00     0.051 C 
HETATM   14  C11 UNK     1      13.303  14.335  33.771  1.00  0.00     0.051 C 
HETATM   15  C13 UNK     1      17.800   8.416  32.948  1.00  0.00     0.200 A 
HETATM   16  C14 UNK     1      17.046   7.353  32.234  1.00  0.00     0.048 A 
HETATM   17  C16 UNK     1      15.731   7.545  32.065  1.00  0.00     0.159 A 
ENDROOT
BRANCH  16  18
HETATM   18  C17 UNK     1      17.683   6.149  31.730  1.00  0.00    -0.020 A 
HETATM   19  C19 UNK     1      17.555   4.945  32.423  1.00  0.00     0.015 A 
HETATM   20  C23 UNK     1      18.168   3.789  31.938  1.00  0.00     0.037 A 
HETATM   21  C25 UNK     1      18.910   3.836  30.759  1.00  0.00     0.065 A 
HETATM   22  C24 UNK     1      19.041   5.038  30.064  1.00  0.00     0.037 A 
HETATM   23  C20 UNK     1      18.428   6.195  30.549  1.00  0.00     0.015 A 
BRANCH  21  24
HETATM   24  O5  UNK     1      19.508   2.709  30.286  1.00  0.00    -0.361 OA
HETATM   25  H24 UNK     1      18.860   1.984  30.287  1.00  0.00     0.217 HD
ENDBRANCH  21  24
ENDBRANCH  16  18
BRANCH  12  26
HETATM   26  O3  UNK     1      18.985  10.583  34.388  1.00  0.00    -0.359 OA
HETATM   27  H13 UNK     1      19.193   9.910  35.053  1.00  0.00     0.217 HD
ENDBRANCH  12  26
BRANCH   7  28
HETATM   28  C12 UNK     1      17.576  12.804  35.306  1.00  0.00     0.072 C 
BRANCH  28  29
HETATM   29  C15 UNK     1      18.277  13.778  34.396  1.00  0.00    -0.020 C 
HETATM   30  C18 UNK     1      17.958  15.064  34.154  1.00  0.00    -0.091 C 
HETATM   31  C21 UNK     1      18.705  15.984  33.231  1.00  0.00     0.042 C 
HETATM   32  C22 UNK     1      16.763  15.691  34.822  1.00  0.00     0.042 C 
ENDBRANCH  28  29
ENDBRANCH   7  28
TORSDOF 5
ENDMDL
MODEL 8
REMARK VINA RESULT:      -7.8     18.343     24.521
REMARK  5 active torsions:
REMARK  status: ('A' for Active; 'I' for Inactive)
REMARK    1  A    between atoms: C9_14  and  O3_3 
REMARK    2  A    between atoms: C25_30  and  O5_5 
REMARK    3  A    between atoms: C12_17  and  C4_9 
REMARK    4  A    between atoms: C12_17  and  C15_20 
REMARK    5  A    between atoms: C14_19  and  C17_22 
ROOT
HETATM    1  O1  UNK     1      18.605  -6.052  12.136  1.00  0.00    -0.335 OA
HETATM    2  O2  UNK     1      18.130  -3.193  15.997  1.00  0.00    -0.320 OA
HETATM    3  O4  UNK     1      19.950  -0.128  14.024  1.00  0.00    -0.286 OA
HETATM    4  C1  UNK     1      17.982  -7.166  12.807  1.00  0.00     0.078 A 
HETATM    5  C2  UNK     1      18.761  -4.868  12.802  1.00  0.00     0.092 A 
HETATM    6  C3  UNK     1      18.338  -4.650  14.118  1.00  0.00     0.033 A 
HETATM    7  C4  UNK     1      19.383  -3.847  12.078  1.00  0.00     0.014 A 
HETATM    8  C5  UNK     1      18.551  -3.389  14.702  1.00  0.00     0.105 A 
HETATM    9  C6  UNK     1      17.530  -6.910  14.222  1.00  0.00     0.012 A 
HETATM   10  C7  UNK     1      19.175  -2.372  13.973  1.00  0.00     0.083 A 
HETATM   11  C8  UNK     1      17.693  -5.739  14.840  1.00  0.00     0.016 A 
HETATM   12  C9  UNK     1      19.592  -2.598  12.661  1.00  0.00     0.092 A 
HETATM   13  C10 UNK     1      16.773  -7.565  11.952  1.00  0.00     0.051 C 
HETATM   14  C11 UNK     1      19.011  -8.303  12.801  1.00  0.00     0.051 C 
HETATM   15  C13 UNK     1      19.394  -1.055  14.601  1.00  0.00     0.200 A 
HETATM   16  C14 UNK     1      18.899  -0.892  15.993  1.00  0.00     0.048 A 
HETATM   17  C16 UNK     1      18.317  -1.957  16.563  1.00  0.00     0.159 A 
ENDROOT
BRANCH  16  18
HETATM   18  C17 UNK     1      19.029   0.353  16.727  1.00  0.00    -0.020 A 
HETATM   19  C19 UNK     1      18.905   0.365  18.117  1.00  0.00     0.015 A 
HETATM   20  C23 UNK     1      19.030   1.563  18.821  1.00  0.00     0.037 A 
HETATM   21  C25 UNK     1      19.280   2.751  18.136  1.00  0.00     0.065 A 
HETATM   22  C24 UNK     1      19.404   2.743  16.747  1.00  0.00     0.037 A 
HETATM   23  C20 UNK     1      19.278   1.545  16.042  1.00  0.00     0.015 A 
BRANCH  21  24
HETATM   24  O5  UNK     1      19.402   3.920  18.823  1.00  0.00    -0.361 OA
HETATM   25  H24 UNK     1      19.687   3.723  19.732  1.00  0.00     0.217 HD
ENDBRANCH  21  24
ENDBRANCH  16  18
BRANCH  12  26
HETATM   26  O3  UNK     1      20.203  -1.629  11.920  1.00  0.00    -0.359 OA
HETATM   27  H13 UNK     1      19.737  -1.487  11.083  1.00  0.00     0.217 HD
ENDBRANCH  12  26
BRANCH   7  28
HETATM   28  C12 UNK     1      19.831  -4.091  10.670  1.00  0.00     0.072 C 
BRANCH  28  29
HETATM   29  C15 UNK     1      18.709  -3.971   9.673  1.00  0.00    -0.020 C 
HETATM   30  C18 UNK     1      18.286  -4.892   8.785  1.00  0.00    -0.091 C 
HETATM   31  C21 UNK     1      17.154  -4.706   7.815  1.00  0.00     0.042 C 
HETATM   32  C22 UNK     1      18.965  -6.233   8.698  1.00  0.00     0.042 C 
ENDBRANCH  28  29
ENDBRANCH   7  28
TORSDOF 5
ENDMDL
MODEL 9
REMARK VINA RESULT:      -7.8     20.293     25.561
REMARK  5 active torsions:
REMARK  status: ('A' for Active; 'I' for Inactive)
REMARK    1  A    between atoms: C9_14  and  O3_3 
REMARK    2  A    between atoms: C25_30  and  O5_5 
REMARK    3  A    between atoms: C12_17  and  C4_9 
REMARK    4  A    between atoms: C12_17  and  C15_20 
REMARK    5  A    between atoms: C14_19  and  C17_22 
ROOT
HETATM    1  O1  UNK     1      30.374  -6.151  30.943  1.00  0.00    -0.335 OA
HETATM    2  O2  UNK     1      34.008  -8.027  33.510  1.00  0.00    -0.320 OA
HETATM    3  O4  UNK     1      35.172 -10.283  30.323  1.00  0.00    -0.286 OA
HETATM    4  C1  UNK     1      29.920  -5.352  32.054  1.00  0.00     0.078 A 
HETATM    5  C2  UNK     1      31.463  -6.963  31.100  1.00  0.00     0.092 A 
HETATM    6  C3  UNK     1      32.195  -7.068  32.288  1.00  0.00     0.033 A 
HETATM    7  C4  UNK     1      31.826  -7.709  29.975  1.00  0.00     0.014 A 
HETATM    8  C5  UNK     1      33.300  -7.936  32.333  1.00  0.00     0.105 A 
HETATM    9  C6  UNK     1      30.725  -5.475  33.323  1.00  0.00     0.012 A 
HETATM   10  C7  UNK     1      33.657  -8.681  31.205  1.00  0.00     0.083 A 
HETATM   11  C8  UNK     1      31.787  -6.273  33.439  1.00  0.00     0.016 A 
HETATM   12  C9  UNK     1      32.921  -8.569  30.024  1.00  0.00     0.092 A 
HETATM   13  C10 UNK     1      29.945  -3.894  31.577  1.00  0.00     0.051 C 
HETATM   14  C11 UNK     1      28.472  -5.776  32.328  1.00  0.00     0.051 C 
HETATM   15  C13 UNK     1      34.817  -9.590  31.269  1.00  0.00     0.200 A 
HETATM   16  C14 UNK     1      35.558  -9.631  32.557  1.00  0.00     0.048 A 
HETATM   17  C16 UNK     1      35.099  -8.858  33.551  1.00  0.00     0.159 A 
ENDROOT
BRANCH  16  18
HETATM   18  C17 UNK     1      36.729 -10.465  32.757  1.00  0.00    -0.020 A 
HETATM   19  C19 UNK     1      37.990 -10.009  32.369  1.00  0.00     0.015 A 
HETATM   20  C23 UNK     1      39.114 -10.812  32.561  1.00  0.00     0.037 A 
HETATM   21  C25 UNK     1      38.980 -12.072  33.144  1.00  0.00     0.065 A 
HETATM   22  C24 UNK     1      37.722 -12.531  33.532  1.00  0.00     0.037 A 
HETATM   23  C20 UNK     1      36.596 -11.728  33.340  1.00  0.00     0.015 A 
BRANCH  21  24
HETATM   24  O5  UNK     1      40.077 -12.855  33.331  1.00  0.00    -0.361 OA
HETATM   25  H24 UNK     1      40.457 -13.079  32.464  1.00  0.00     0.217 HD
ENDBRANCH  21  24
ENDBRANCH  16  18
BRANCH  12  26
HETATM   26  O3  UNK     1      33.241  -9.279  28.904  1.00  0.00    -0.359 OA
HETATM   27  H13 UNK     1      33.504  -8.688  28.183  1.00  0.00     0.217 HD
ENDBRANCH  12  26
BRANCH   7  28
HETATM   28  C12 UNK     1      31.035  -7.589  28.709  1.00  0.00     0.072 C 
BRANCH  28  29
HETATM   29  C15 UNK     1      30.316  -8.862  28.349  1.00  0.00    -0.020 C 
HETATM   30  C18 UNK     1      29.096  -9.268  28.751  1.00  0.00    -0.091 C 
HETATM   31  C21 UNK     1      28.434 -10.556  28.350  1.00  0.00     0.042 C 
HETATM   32  C22 UNK     1      28.280  -8.415  29.685  1.00  0.00     0.042 C 
ENDBRANCH  28  29
ENDBRANCH   7  28
TORSDOF 5
ENDMDL
MODEL 10
REMARK VINA RESULT:      -7.7     20.654     24.671
REMARK  5 active torsions:
REMARK  status: ('A' for Active; 'I' for Inactive)
REMARK    1  A    between atoms: C9_14  and  O3_3 
REMARK    2  A    between atoms: C25_30  and  O5_5 
REMARK    3  A    between atoms: C12_17  and  C4_9 
REMARK    4  A    between atoms: C12_17  and  C15_20 
REMARK    5  A    between atoms: C14_19  and  C17_22 
ROOT
HETATM    1  O1  UNK     1      30.831 -10.278  30.306  1.00  0.00    -0.335 OA
HETATM    2  O2  UNK     1      28.827  -7.080  33.318  1.00  0.00    -0.320 OA
HETATM    3  O4  UNK     1      31.698  -7.823  36.111  1.00  0.00    -0.286 OA
HETATM    4  C1  UNK     1      29.822 -10.056  29.300  1.00  0.00     0.078 A 
HETATM    5  C2  UNK     1      30.767  -9.588  31.485  1.00  0.00     0.092 A 
HETATM    6  C3  UNK     1      29.775  -8.649  31.790  1.00  0.00     0.033 A 
HETATM    7  C4  UNK     1      31.780  -9.873  32.406  1.00  0.00     0.014 A 
HETATM    8  C5  UNK     1      29.811  -7.999  33.035  1.00  0.00     0.105 A 
HETATM    9  C6  UNK     1      28.765  -9.038  29.645  1.00  0.00     0.012 A 
HETATM   10  C7  UNK     1      30.825  -8.290  33.952  1.00  0.00     0.083 A 
HETATM   11  C8  UNK     1      28.736  -8.378  30.804  1.00  0.00     0.016 A 
HETATM   12  C9  UNK     1      31.812  -9.227  33.640  1.00  0.00     0.092 A 
HETATM   13  C10 UNK     1      30.563  -9.608  28.035  1.00  0.00     0.051 C 
HETATM   14  C11 UNK     1      29.156 -11.414  29.050  1.00  0.00     0.051 C 
HETATM   15  C13 UNK     1      30.848  -7.601  35.257  1.00  0.00     0.200 A 
HETATM   16  C14 UNK     1      29.773  -6.603  35.499  1.00  0.00     0.048 A 
HETATM   17  C16 UNK     1      28.870  -6.429  34.524  1.00  0.00     0.159 A 
ENDROOT
BRANCH  16  18
HETATM   18  C17 UNK     1      29.683  -5.837  36.729  1.00  0.00    -0.020 A 
HETATM   19  C19 UNK     1      30.465  -4.695  36.904  1.00  0.00     0.015 A 
HETATM   20  C23 UNK     1      30.377  -3.960  38.087  1.00  0.00     0.037 A 
HETATM   21  C25 UNK     1      29.506  -4.367  39.097  1.00  0.00     0.065 A 
HETATM   22  C24 UNK     1      28.723  -5.509  38.926  1.00  0.00     0.037 A 
HETATM   23  C20 UNK     1      28.811  -6.244  37.743  1.00  0.00     0.015 A 
BRANCH  21  24
HETATM   24  O5  UNK     1      29.420  -3.651  40.251  1.00  0.00    -0.361 OA
HETATM   25  H24 UNK     1      28.824  -4.113  40.866  1.00  0.00     0.217 HD
ENDBRANCH  21  24
ENDBRANCH  16  18
BRANCH  12  26
HETATM   26  O3  UNK     1      32.817  -9.534  34.509  1.00  0.00    -0.359 OA
HETATM   27  H13 UNK     1      32.529 -10.202  35.150  1.00  0.00     0.217 HD
ENDBRANCH  12  26
BRANCH   7  28
HETATM   28  C12 UNK     1      32.837 -10.879  32.070  1.00  0.00     0.072 C 
BRANCH  28  29
HETATM   29  C15 UNK     1      34.010 -10.272  31.345  1.00  0.00    -0.020 C 
HETATM   30  C18 UNK     1      35.300 -10.243  31.731  1.00  0.00    -0.091 C 
HETATM   31  C21 UNK     1      36.424  -9.619  30.955  1.00  0.00     0.042 C 
HETATM   32  C22 UNK     1      35.716 -10.860  33.040  1.00  0.00     0.042 C 
ENDBRANCH  28  29
ENDBRANCH   7  28
TORSDOF 5
ENDMDL
