MODEL 1
REMARK VINA RESULT:      -8.9      0.000      0.000
REMARK  3 active torsions:
REMARK  status: ('A' for Active; 'I' for Inactive)
REMARK    1  A    between atoms: C7_12  and  O2_2 
REMARK       I    between atoms: C10_15  and  N1_5 
REMARK    2  A    between atoms: C11_16  and  N1_5 
REMARK    3  A    between atoms: C10_15  and  C3_8 
ROOT
HETATM    1  O1  UNK     1      18.501   6.643  31.188  1.00  0.00    -0.274 OA
HETATM    2  O3  UNK     1      19.041   4.962  29.739  1.00  0.00    -0.259 OA
HETATM    3  C1  UNK     1      17.681   6.094  33.410  1.00  0.00    -0.001 A 
HETATM    4  C2  UNK     1      18.030   7.042  32.455  1.00  0.00     0.092 A 
HETATM    5  C3  UNK     1      18.255   4.309  31.876  1.00  0.00     0.108 A 
HETATM    6  C4  UNK     1      17.808   4.683  33.081  1.00  0.00     0.037 A 
HETATM    7  C5  UNK     1      17.219   6.530  34.654  1.00  0.00     0.017 A 
HETATM    8  C6  UNK     1      17.933   8.410  32.707  1.00  0.00     0.075 A 
HETATM    9  C7  UNK     1      17.471   8.835  33.951  1.00  0.00     0.070 A 
HETATM   10  C8  UNK     1      18.633   5.302  30.843  1.00  0.00     0.304 A 
HETATM   11  C9  UNK     1      17.115   7.898  34.923  1.00  0.00     0.038 A 
ENDROOT
BRANCH   5  12
HETATM   12  C10 UNK     1      18.347   2.865  31.639  1.00  0.00     0.262 C 
HETATM   13  O4  UNK     1      17.760   2.084  32.386  1.00  0.00    -0.267 OA
HETATM   14  N1  UNK     1      19.135   2.563  30.536  1.00  0.00    -0.323 N 
HETATM   15  H5  UNK     1      19.572   3.331  30.030  1.00  0.00     0.169 HD
BRANCH  14  16
HETATM   16  C11 UNK     1      19.443   1.282  30.017  1.00  0.00     0.035 A 
HETATM   17  C13 UNK     1      20.231   0.423  30.763  1.00  0.00     0.029 A 
HETATM   18  C15 UNK     1      20.536  -0.839  30.253  1.00  0.00     0.002 A 
HETATM   19  C16 UNK     1      20.047  -1.223  29.003  1.00  0.00     0.000 A 
HETATM   20  C14 UNK     1      19.254  -0.343  28.265  1.00  0.00     0.002 A 
HETATM   21  C12 UNK     1      18.950   0.918  28.777  1.00  0.00     0.029 A 
ENDBRANCH  14  16
ENDBRANCH   5  12
BRANCH   9  22
HETATM   22  O2  UNK     1      17.367  10.165  34.219  1.00  0.00    -0.356 OA
HETATM   23  C17 UNK     1      18.535  10.961  34.022  1.00  0.00     0.210 C 
ENDBRANCH   9  22
TORSDOF 3
ENDMDL
MODEL 2
REMARK VINA RESULT:      -8.8      1.564      2.235
REMARK  3 active torsions:
REMARK  status: ('A' for Active; 'I' for Inactive)
REMARK    1  A    between atoms: C7_12  and  O2_2 
REMARK       I    between atoms: C10_15  and  N1_5 
REMARK    2  A    between atoms: C11_16  and  N1_5 
REMARK    3  A    between atoms: C10_15  and  C3_8 
ROOT
HETATM    1  O1  UNK     1      18.053   4.444  34.127  1.00  0.00    -0.274 OA
HETATM    2  O3  UNK     1      18.409   2.196  33.932  1.00  0.00    -0.259 OA
HETATM    3  C1  UNK     1      17.736   5.787  32.125  1.00  0.00    -0.001 A 
HETATM    4  C2  UNK     1      17.820   5.689  33.510  1.00  0.00     0.092 A 
HETATM    5  C3  UNK     1      18.113   3.403  31.915  1.00  0.00     0.108 A 
HETATM    6  C4  UNK     1      17.892   4.584  31.324  1.00  0.00     0.037 A 
HETATM    7  C5  UNK     1      17.505   7.039  31.551  1.00  0.00     0.017 A 
HETATM    8  C6  UNK     1      17.679   6.803  34.335  1.00  0.00     0.075 A 
HETATM    9  C7  UNK     1      17.449   8.049  33.754  1.00  0.00     0.070 A 
HETATM   10  C8  UNK     1      18.206   3.275  33.387  1.00  0.00     0.304 A 
HETATM   11  C9  UNK     1      17.362   8.167  32.365  1.00  0.00     0.038 A 
ENDROOT
BRANCH   5  12
HETATM   12  C10 UNK     1      18.257   2.248  31.022  1.00  0.00     0.262 C 
HETATM   13  O4  UNK     1      17.482   2.107  30.077  1.00  0.00    -0.267 OA
HETATM   14  N1  UNK     1      19.311   1.425  31.394  1.00  0.00    -0.323 N 
HETATM   15  H5  UNK     1      19.848   1.673  32.223  1.00  0.00     0.169 HD
BRANCH  14  16
HETATM   16  C11 UNK     1      19.739   0.230  30.767  1.00  0.00     0.035 A 
HETATM   17  C13 UNK     1      19.721  -0.954  31.484  1.00  0.00     0.029 A 
HETATM   18  C15 UNK     1      20.143  -2.131  30.866  1.00  0.00     0.002 A 
HETATM   19  C16 UNK     1      20.576  -2.107  29.540  1.00  0.00     0.000 A 
HETATM   20  C14 UNK     1      20.587  -0.905  28.832  1.00  0.00     0.002 A 
HETATM   21  C12 UNK     1      20.164   0.272  29.451  1.00  0.00     0.029 A 
ENDBRANCH  14  16
ENDBRANCH   5  12
BRANCH   9  22
HETATM   22  O2  UNK     1      17.309   9.151  34.540  1.00  0.00    -0.356 OA
HETATM   23  C17 UNK     1      16.204  10.010  34.264  1.00  0.00     0.210 C 
ENDBRANCH   9  22
TORSDOF 3
ENDMDL
MODEL 3
REMARK VINA RESULT:      -8.6     14.446     19.433
REMARK  3 active torsions:
REMARK  status: ('A' for Active; 'I' for Inactive)
REMARK    1  A    between atoms: C7_12  and  O2_2 
REMARK       I    between atoms: C10_15  and  N1_5 
REMARK    2  A    between atoms: C11_16  and  N1_5 
REMARK    3  A    between atoms: C10_15  and  C3_8 
ROOT
HETATM    1  O1  UNK     1      19.409  -2.226  13.107  1.00  0.00    -0.274 OA
HETATM    2  O3  UNK     1      19.446  -0.256  14.264  1.00  0.00    -0.259 OA
HETATM    3  C1  UNK     1      18.429  -4.201  14.133  1.00  0.00    -0.001 A 
HETATM    4  C2  UNK     1      19.061  -3.591  13.055  1.00  0.00     0.092 A 
HETATM    5  C3  UNK     1      18.467  -2.113  15.361  1.00  0.00     0.108 A 
HETATM    6  C4  UNK     1      18.134  -3.409  15.316  1.00  0.00     0.037 A 
HETATM    7  C5  UNK     1      18.101  -5.556  14.042  1.00  0.00     0.017 A 
HETATM    8  C6  UNK     1      19.371  -4.293  11.891  1.00  0.00     0.075 A 
HETATM    9  C7  UNK     1      19.039  -5.644  11.809  1.00  0.00     0.070 A 
HETATM   10  C8  UNK     1      19.140  -1.443  14.225  1.00  0.00     0.304 A 
HETATM   11  C9  UNK     1      18.406  -6.274  12.882  1.00  0.00     0.038 A 
ENDROOT
BRANCH   5  12
HETATM   12  C10 UNK     1      18.128  -1.400  16.597  1.00  0.00     0.262 C 
HETATM   13  O4  UNK     1      17.032  -1.581  17.126  1.00  0.00    -0.267 OA
HETATM   14  N1  UNK     1      19.155  -0.568  17.021  1.00  0.00    -0.323 N 
HETATM   15  H5  UNK     1      19.999  -0.514  16.454  1.00  0.00     0.169 HD
BRANCH  14  16
HETATM   16  C11 UNK     1      19.177   0.266  18.166  1.00  0.00     0.035 A 
HETATM   17  C13 UNK     1      18.998   1.630  18.012  1.00  0.00     0.029 A 
HETATM   18  C15 UNK     1      19.019   2.452  19.139  1.00  0.00     0.002 A 
HETATM   19  C16 UNK     1      19.219   1.896  20.403  1.00  0.00     0.000 A 
HETATM   20  C14 UNK     1      19.398   0.519  20.540  1.00  0.00     0.002 A 
HETATM   21  C12 UNK     1      19.376  -0.301  19.412  1.00  0.00     0.029 A 
ENDBRANCH  14  16
ENDBRANCH   5  12
BRANCH   9  22
HETATM   22  O2  UNK     1      19.333  -6.349  10.683  1.00  0.00    -0.356 OA
HETATM   23  C17 UNK     1      18.595  -7.549  10.457  1.00  0.00     0.210 C 
ENDBRANCH   9  22
TORSDOF 3
ENDMDL
MODEL 4
REMARK VINA RESULT:      -8.6      6.176      9.325
REMARK  3 active torsions:
REMARK  status: ('A' for Active; 'I' for Inactive)
REMARK    1  A    between atoms: C7_12  and  O2_2 
REMARK       I    between atoms: C10_15  and  N1_5 
REMARK    2  A    between atoms: C11_16  and  N1_5 
REMARK    3  A    between atoms: C10_15  and  C3_8 
ROOT
HETATM    1  O1  UNK     1      18.806  -0.164  33.608  1.00  0.00    -0.274 OA
HETATM    2  O3  UNK     1      18.412  -0.409  35.845  1.00  0.00    -0.259 OA
HETATM    3  C1  UNK     1      20.125  -1.835  32.432  1.00  0.00    -0.001 A 
HETATM    4  C2  UNK     1      19.396  -0.651  32.424  1.00  0.00     0.092 A 
HETATM    5  C3  UNK     1      19.708  -2.097  34.804  1.00  0.00     0.108 A 
HETATM    6  C4  UNK     1      20.270  -2.564  33.682  1.00  0.00     0.037 A 
HETATM    7  C5  UNK     1      20.695  -2.284  31.238  1.00  0.00     0.017 A 
HETATM    8  C6  UNK     1      19.219   0.095  31.260  1.00  0.00     0.075 A 
HETATM    9  C7  UNK     1      19.791  -0.360  30.073  1.00  0.00     0.070 A 
HETATM   10  C8  UNK     1      18.927  -0.839  34.819  1.00  0.00     0.304 A 
HETATM   11  C9  UNK     1      20.527  -1.547  30.062  1.00  0.00     0.038 A 
ENDROOT
BRANCH   5  12
HETATM   12  C10 UNK     1      19.910  -2.903  36.013  1.00  0.00     0.262 C 
HETATM   13  O4  UNK     1      20.336  -2.371  37.038  1.00  0.00    -0.267 OA
HETATM   14  N1  UNK     1      19.573  -4.236  35.818  1.00  0.00    -0.323 N 
HETATM   15  H5  UNK     1      19.253  -4.523  34.895  1.00  0.00     0.169 HD
BRANCH  14  16
HETATM   16  C11 UNK     1      19.642  -5.292  36.759  1.00  0.00     0.035 A 
HETATM   17  C13 UNK     1      18.597  -6.197  36.837  1.00  0.00     0.029 A 
HETATM   18  C15 UNK     1      18.665  -7.237  37.764  1.00  0.00     0.002 A 
HETATM   19  C16 UNK     1      19.776  -7.356  38.599  1.00  0.00     0.000 A 
HETATM   20  C14 UNK     1      20.820  -6.435  38.507  1.00  0.00     0.002 A 
HETATM   21  C12 UNK     1      20.752  -5.396  37.579  1.00  0.00     0.029 A 
ENDBRANCH  14  16
ENDBRANCH   5  12
BRANCH   9  22
HETATM   22  O2  UNK     1      19.631   0.352  28.925  1.00  0.00    -0.356 OA
HETATM   23  C17 UNK     1      18.526   1.252  28.866  1.00  0.00     0.210 C 
ENDBRANCH   9  22
TORSDOF 3
ENDMDL
MODEL 5
REMARK VINA RESULT:      -8.6      1.665      2.437
REMARK  3 active torsions:
REMARK  status: ('A' for Active; 'I' for Inactive)
REMARK    1  A    between atoms: C7_12  and  O2_2 
REMARK       I    between atoms: C10_15  and  N1_5 
REMARK    2  A    between atoms: C11_16  and  N1_5 
REMARK    3  A    between atoms: C10_15  and  C3_8 
ROOT
HETATM    1  O1  UNK     1      17.565   5.877  34.382  1.00  0.00    -0.274 OA
HETATM    2  O3  UNK     1      18.650   3.938  33.850  1.00  0.00    -0.259 OA
HETATM    3  C1  UNK     1      16.948   7.430  32.616  1.00  0.00    -0.001 A 
HETATM    4  C2  UNK     1      16.975   7.086  33.963  1.00  0.00     0.092 A 
HETATM    5  C3  UNK     1      18.097   5.374  32.049  1.00  0.00     0.108 A 
HETATM    6  C4  UNK     1      17.538   6.521  31.646  1.00  0.00     0.037 A 
HETATM    7  C5  UNK     1      16.355   8.637  32.241  1.00  0.00     0.017 A 
HETATM    8  C6  UNK     1      16.427   7.911  34.944  1.00  0.00     0.075 A 
HETATM    9  C7  UNK     1      15.837   9.114  34.560  1.00  0.00     0.070 A 
HETATM   10  C8  UNK     1      18.138   4.987  33.478  1.00  0.00     0.304 A 
HETATM   11  C9  UNK     1      15.801   9.477  33.212  1.00  0.00     0.038 A 
ENDROOT
BRANCH   5  12
HETATM   12  C10 UNK     1      18.666   4.525  30.996  1.00  0.00     0.262 C 
HETATM   13  O4  UNK     1      19.424   5.014  30.160  1.00  0.00    -0.267 OA
HETATM   14  N1  UNK     1      18.239   3.208  31.097  1.00  0.00    -0.323 N 
HETATM   15  H5  UNK     1      17.587   2.967  31.841  1.00  0.00     0.169 HD
BRANCH  14  16
HETATM   16  C11 UNK     1      18.583   2.121  30.256  1.00  0.00     0.035 A 
HETATM   17  C13 UNK     1      19.553   1.226  30.671  1.00  0.00     0.029 A 
HETATM   18  C15 UNK     1      19.892   0.156  29.844  1.00  0.00     0.002 A 
HETATM   19  C16 UNK     1      19.255  -0.003  28.612  1.00  0.00     0.000 A 
HETATM   20  C14 UNK     1      18.279   0.909  28.210  1.00  0.00     0.002 A 
HETATM   21  C12 UNK     1      17.941   1.978  29.038  1.00  0.00     0.029 A 
ENDBRANCH  14  16
ENDBRANCH   5  12
BRANCH   9  22
HETATM   22  O2  UNK     1      15.296   9.936  35.501  1.00  0.00    -0.356 OA
HETATM   23  C17 UNK     1      15.045  11.287  35.116  1.00  0.00     0.210 C 
ENDBRANCH   9  22
TORSDOF 3
ENDMDL
MODEL 6
REMARK VINA RESULT:      -8.5      1.431      1.750
REMARK  3 active torsions:
REMARK  status: ('A' for Active; 'I' for Inactive)
REMARK    1  A    between atoms: C7_12  and  O2_2 
REMARK       I    between atoms: C10_15  and  N1_5 
REMARK    2  A    between atoms: C11_16  and  N1_5 
REMARK    3  A    between atoms: C10_15  and  C3_8 
ROOT
HETATM    1  O1  UNK     1      19.306   7.606  32.935  1.00  0.00    -0.274 OA
HETATM    2  O3  UNK     1      20.498   5.822  32.150  1.00  0.00    -0.259 OA
HETATM    3  C1  UNK     1      16.930   7.355  33.388  1.00  0.00    -0.001 A 
HETATM    4  C2  UNK     1      18.076   8.143  33.364  1.00  0.00     0.092 A 
HETATM    5  C3  UNK     1      18.192   5.462  32.556  1.00  0.00     0.108 A 
HETATM    6  C4  UNK     1      17.021   5.968  32.963  1.00  0.00     0.037 A 
HETATM    7  C5  UNK     1      15.730   7.925  33.819  1.00  0.00     0.017 A 
HETATM    8  C6  UNK     1      18.057   9.480  33.759  1.00  0.00     0.075 A 
HETATM    9  C7  UNK     1      16.855  10.040  34.188  1.00  0.00     0.070 A 
HETATM   10  C8  UNK     1      19.424   6.282  32.523  1.00  0.00     0.304 A 
HETATM   11  C9  UNK     1      15.694   9.264  34.218  1.00  0.00     0.038 A 
ENDROOT
BRANCH   5  12
HETATM   12  C10 UNK     1      18.182   4.053  32.147  1.00  0.00     0.262 C 
HETATM   13  O4  UNK     1      17.847   3.186  32.952  1.00  0.00    -0.267 OA
HETATM   14  N1  UNK     1      18.579   3.888  30.827  1.00  0.00    -0.323 N 
HETATM   15  H5  UNK     1      18.847   4.714  30.296  1.00  0.00     0.169 HD
BRANCH  14  16
HETATM   16  C11 UNK     1      18.688   2.676  30.102  1.00  0.00     0.035 A 
HETATM   17  C13 UNK     1      19.551   1.693  30.555  1.00  0.00     0.029 A 
HETATM   18  C15 UNK     1      19.659   0.499  29.841  1.00  0.00     0.002 A 
HETATM   19  C16 UNK     1      18.902   0.307  28.684  1.00  0.00     0.000 A 
HETATM   20  C14 UNK     1      18.037   1.309  28.243  1.00  0.00     0.002 A 
HETATM   21  C12 UNK     1      17.929   2.502  28.958  1.00  0.00     0.029 A 
ENDBRANCH  14  16
ENDBRANCH   5  12
BRANCH   9  22
HETATM   22  O2  UNK     1      16.813  11.343  34.577  1.00  0.00    -0.356 OA
HETATM   23  C17 UNK     1      17.903  12.174  34.184  1.00  0.00     0.210 C 
ENDBRANCH   9  22
TORSDOF 3
ENDMDL
MODEL 7
REMARK VINA RESULT:      -8.3      7.177     10.068
REMARK  3 active torsions:
REMARK  status: ('A' for Active; 'I' for Inactive)
REMARK    1  A    between atoms: C7_12  and  O2_2 
REMARK       I    between atoms: C10_15  and  N1_5 
REMARK    2  A    between atoms: C11_16  and  N1_5 
REMARK    3  A    between atoms: C10_15  and  C3_8 
ROOT
HETATM    1  O1  UNK     1      18.568  -1.131  35.395  1.00  0.00    -0.274 OA
HETATM    2  O3  UNK     1      18.532  -2.099  37.464  1.00  0.00    -0.259 OA
HETATM    3  C1  UNK     1      19.903  -2.131  33.625  1.00  0.00    -0.001 A 
HETATM    4  C2  UNK     1      19.038  -1.135  34.066  1.00  0.00     0.092 A 
HETATM    5  C3  UNK     1      19.865  -3.161  35.818  1.00  0.00     0.108 A 
HETATM    6  C4  UNK     1      20.314  -3.169  34.557  1.00  0.00     0.037 A 
HETATM    7  C5  UNK     1      20.346  -2.100  32.301  1.00  0.00     0.017 A 
HETATM    8  C6  UNK     1      18.605  -0.112  33.224  1.00  0.00     0.075 A 
HETATM    9  C7  UNK     1      19.053  -0.089  31.905  1.00  0.00     0.070 A 
HETATM   10  C8  UNK     1      18.944  -2.110  36.309  1.00  0.00     0.304 A 
HETATM   11  C9  UNK     1      19.921  -1.081  31.444  1.00  0.00     0.038 A 
ENDROOT
BRANCH   5  12
HETATM   12  C10 UNK     1      20.337  -4.249  36.681  1.00  0.00     0.262 C 
HETATM   13  O4  UNK     1      21.489  -4.231  37.113  1.00  0.00    -0.267 OA
HETATM   14  N1  UNK     1      19.356  -5.207  36.901  1.00  0.00    -0.323 N 
HETATM   15  H5  UNK     1      18.452  -5.085  36.449  1.00  0.00     0.169 HD
BRANCH  14  16
HETATM   16  C11 UNK     1      19.459  -6.387  37.677  1.00  0.00     0.035 A 
HETATM   17  C13 UNK     1      18.886  -7.557  37.208  1.00  0.00     0.029 A 
HETATM   18  C15 UNK     1      18.986  -8.719  37.972  1.00  0.00     0.002 A 
HETATM   19  C16 UNK     1      19.657  -8.694  39.196  1.00  0.00     0.000 A 
HETATM   20  C14 UNK     1      20.229  -7.506  39.653  1.00  0.00     0.002 A 
HETATM   21  C12 UNK     1      20.128  -6.344  38.888  1.00  0.00     0.029 A 
ENDBRANCH  14  16
ENDBRANCH   5  12
BRANCH   9  22
HETATM   22  O2  UNK     1      18.643   0.900  31.065  1.00  0.00    -0.356 OA
HETATM   23  C17 UNK     1      19.250   0.950  29.775  1.00  0.00     0.210 C 
ENDBRANCH   9  22
TORSDOF 3
ENDMDL
MODEL 8
REMARK VINA RESULT:      -8.2      7.732      9.522
REMARK  3 active torsions:
REMARK  status: ('A' for Active; 'I' for Inactive)
REMARK    1  A    between atoms: C7_12  and  O2_2 
REMARK       I    between atoms: C10_15  and  N1_5 
REMARK    2  A    between atoms: C11_16  and  N1_5 
REMARK    3  A    between atoms: C10_15  and  C3_8 
ROOT
HETATM    1  O1  UNK     1      19.626  -1.521  34.647  1.00  0.00    -0.274 OA
HETATM    2  O3  UNK     1      20.647  -3.513  34.191  1.00  0.00    -0.259 OA
HETATM    3  C1  UNK     1      18.698  -1.128  36.860  1.00  0.00    -0.001 A 
HETATM    4  C2  UNK     1      18.951  -0.691  35.565  1.00  0.00     0.092 A 
HETATM    5  C3  UNK     1      19.781  -3.241  36.379  1.00  0.00     0.108 A 
HETATM    6  C4  UNK     1      19.141  -2.456  37.254  1.00  0.00     0.037 A 
HETATM    7  C5  UNK     1      18.026  -0.276  37.739  1.00  0.00     0.017 A 
HETATM    8  C6  UNK     1      18.554   0.570  35.124  1.00  0.00     0.075 A 
HETATM    9  C7  UNK     1      17.885   1.414  36.008  1.00  0.00     0.070 A 
HETATM   10  C8  UNK     1      20.062  -2.796  34.995  1.00  0.00     0.304 A 
HETATM   11  C9  UNK     1      17.621   0.993  37.313  1.00  0.00     0.038 A 
ENDROOT
BRANCH   5  12
HETATM   12  C10 UNK     1      20.187  -4.562  36.871  1.00  0.00     0.262 C 
HETATM   13  O4  UNK     1      21.371  -4.784  37.121  1.00  0.00    -0.267 OA
HETATM   14  N1  UNK     1      19.110  -5.431  36.990  1.00  0.00    -0.323 N 
HETATM   15  H5  UNK     1      18.188  -5.097  36.719  1.00  0.00     0.169 HD
BRANCH  14  16
HETATM   16  C11 UNK     1      19.130  -6.777  37.430  1.00  0.00     0.035 A 
HETATM   17  C13 UNK     1      19.591  -7.065  38.703  1.00  0.00     0.029 A 
HETATM   18  C15 UNK     1      19.611  -8.391  39.136  1.00  0.00     0.002 A 
HETATM   19  C16 UNK     1      19.169  -9.409  38.290  1.00  0.00     0.000 A 
HETATM   20  C14 UNK     1      18.708  -9.100  37.010  1.00  0.00     0.002 A 
HETATM   21  C12 UNK     1      18.688  -7.774  36.577  1.00  0.00     0.029 A 
ENDBRANCH  14  16
ENDBRANCH   5  12
BRANCH   9  22
HETATM   22  O2  UNK     1      17.488   2.650  35.599  1.00  0.00    -0.356 OA
HETATM   23  C17 UNK     1      18.164   3.211  34.475  1.00  0.00     0.210 C 
ENDBRANCH   9  22
TORSDOF 3
ENDMDL
MODEL 9
REMARK VINA RESULT:      -8.2     13.897     17.248
REMARK  3 active torsions:
REMARK  status: ('A' for Active; 'I' for Inactive)
REMARK    1  A    between atoms: C7_12  and  O2_2 
REMARK       I    between atoms: C10_15  and  N1_5 
REMARK    2  A    between atoms: C11_16  and  N1_5 
REMARK    3  A    between atoms: C10_15  and  C3_8 
ROOT
HETATM    1  O1  UNK     1      19.297   0.719  15.191  1.00  0.00    -0.274 OA
HETATM    2  O3  UNK     1      19.211  -0.743  13.438  1.00  0.00    -0.259 OA
HETATM    3  C1  UNK     1      18.911  -0.094  17.450  1.00  0.00    -0.001 A 
HETATM    4  C2  UNK     1      19.194   0.951  16.577  1.00  0.00     0.092 A 
HETATM    5  C3  UNK     1      18.821  -1.646  15.592  1.00  0.00     0.108 A 
HETATM    6  C4  UNK     1      18.722  -1.430  16.910  1.00  0.00     0.037 A 
HETATM    7  C5  UNK     1      18.817   0.177  18.817  1.00  0.00     0.017 A 
HETATM    8  C6  UNK     1      19.386   2.255  17.030  1.00  0.00     0.075 A 
HETATM    9  C7  UNK     1      19.291   2.517  18.396  1.00  0.00     0.070 A 
HETATM   10  C8  UNK     1      19.121  -0.549  14.645  1.00  0.00     0.304 A 
HETATM   11  C9  UNK     1      19.007   1.480  19.288  1.00  0.00     0.038 A 
ENDROOT
BRANCH   5  12
HETATM   12  C10 UNK     1      18.614  -3.028  15.145  1.00  0.00     0.262 C 
HETATM   13  O4  UNK     1      17.604  -3.638  15.493  1.00  0.00    -0.267 OA
HETATM   14  N1  UNK     1      19.653  -3.480  14.342  1.00  0.00    -0.323 N 
HETATM   15  H5  UNK     1      20.434  -2.852  14.164  1.00  0.00     0.169 HD
BRANCH  14  16
HETATM   16  C11 UNK     1      19.787  -4.754  13.738  1.00  0.00     0.035 A 
HETATM   17  C13 UNK     1      20.590  -5.707  14.341  1.00  0.00     0.029 A 
HETATM   18  C15 UNK     1      20.723  -6.961  13.746  1.00  0.00     0.002 A 
HETATM   19  C16 UNK     1      20.051  -7.244  12.557  1.00  0.00     0.000 A 
HETATM   20  C14 UNK     1      19.246  -6.271  11.963  1.00  0.00     0.002 A 
HETATM   21  C12 UNK     1      19.113  -5.017  12.559  1.00  0.00     0.029 A 
ENDBRANCH  14  16
ENDBRANCH   5  12
BRANCH   9  22
HETATM   22  O2  UNK     1      19.474   3.782  18.860  1.00  0.00    -0.356 OA
HETATM   23  C17 UNK     1      20.684   4.441  18.490  1.00  0.00     0.210 C 
ENDBRANCH   9  22
TORSDOF 3
ENDMDL
MODEL 10
REMARK VINA RESULT:      -8.2      2.016      8.207
REMARK  3 active torsions:
REMARK  status: ('A' for Active; 'I' for Inactive)
REMARK    1  A    between atoms: C7_12  and  O2_2 
REMARK       I    between atoms: C10_15  and  N1_5 
REMARK    2  A    between atoms: C11_16  and  N1_5 
REMARK    3  A    between atoms: C10_15  and  C3_8 
ROOT
HETATM    1  O1  UNK     1      18.722   1.138  32.898  1.00  0.00    -0.274 OA
HETATM    2  O3  UNK     1      18.020   2.752  34.355  1.00  0.00    -0.259 OA
HETATM    3  C1  UNK     1      19.001   1.685  30.545  1.00  0.00    -0.001 A 
HETATM    4  C2  UNK     1      19.063   0.762  31.583  1.00  0.00     0.092 A 
HETATM    5  C3  UNK     1      18.257   3.399  32.088  1.00  0.00     0.108 A 
HETATM    6  C4  UNK     1      18.580   3.046  30.837  1.00  0.00     0.037 A 
HETATM    7  C5  UNK     1      19.346   1.273  29.256  1.00  0.00     0.017 A 
HETATM    8  C6  UNK     1      19.459  -0.557  31.371  1.00  0.00     0.075 A 
HETATM    9  C7  UNK     1      19.802  -0.959  30.081  1.00  0.00     0.070 A 
HETATM   10  C8  UNK     1      18.315   2.432  33.209  1.00  0.00     0.304 A 
HETATM   11  C9  UNK     1      19.746  -0.047  29.026  1.00  0.00     0.038 A 
ENDROOT
BRANCH   5  12
HETATM   12  C10 UNK     1      17.844   4.793  32.282  1.00  0.00     0.262 C 
HETATM   13  O4  UNK     1      16.777   5.185  31.812  1.00  0.00    -0.267 OA
HETATM   14  N1  UNK     1      18.775   5.519  33.012  1.00  0.00    -0.323 N 
HETATM   15  H5  UNK     1      19.627   5.049  33.313  1.00  0.00     0.169 HD
BRANCH  14  16
HETATM   16  C11 UNK     1      18.708   6.883  33.385  1.00  0.00     0.035 A 
HETATM   17  C13 UNK     1      19.818   7.484  33.954  1.00  0.00     0.029 A 
HETATM   18  C15 UNK     1      19.752   8.828  34.322  1.00  0.00     0.002 A 
HETATM   19  C16 UNK     1      18.575   9.551  34.117  1.00  0.00     0.000 A 
HETATM   20  C14 UNK     1      17.466   8.929  33.543  1.00  0.00     0.002 A 
HETATM   21  C12 UNK     1      17.534   7.585  33.174  1.00  0.00     0.029 A 
ENDBRANCH  14  16
ENDBRANCH   5  12
BRANCH   9  22
HETATM   22  O2  UNK     1      20.191  -2.243  29.851  1.00  0.00    -0.356 OA
HETATM   23  C17 UNK     1      20.819  -2.935  30.928  1.00  0.00     0.210 C 
ENDBRANCH   9  22
TORSDOF 3
ENDMDL
