MODEL 1
REMARK VINA RESULT:      -9.7      0.000      0.000
REMARK  4 active torsions:
REMARK  status: ('A' for Active; 'I' for Inactive)
REMARK    1  A    between atoms: C11_16  and  N1_4 
REMARK    2  A    between atoms: C8_13  and  N1_4 
REMARK    3  A    between atoms: C11_16  and  N2_5 
REMARK    4  A    between atoms: C12_17  and  N2_5 
ROOT
HETATM    1  N2  UNK     1      18.506   5.652  32.921  1.00  0.00    -0.333 N 
HETATM    2  H12 UNK     1      18.610   4.988  33.680  1.00  0.00     0.168 HD
ENDROOT
BRANCH   1   3
HETATM    3  C11 UNK     1      18.622   5.064  31.659  1.00  0.00     0.176 C 
HETATM    4  S1  UNK     1      19.282   5.786  30.286  1.00  0.00    -0.041 SA
BRANCH   3   5
HETATM    5  N1  UNK     1      18.038   3.819  31.486  1.00  0.00    -0.333 N 
HETATM    6  H10 UNK     1      17.330   3.598  32.184  1.00  0.00     0.168 HD
BRANCH   5   7
HETATM    7  C8  UNK     1      18.389   2.738  30.663  1.00  0.00     0.034 A 
HETATM    8  C6  UNK     1      19.273   1.766  31.136  1.00  0.00     0.037 A 
HETATM    9  C4  UNK     1      19.601   0.714  30.298  1.00  0.00    -0.050 A 
HETATM   10  C2  UNK     1      20.487  -0.456  30.590  1.00  0.00     0.039 C 
HETATM   11  C5  UNK     1      19.055   0.617  29.013  1.00  0.00    -0.052 A 
HETATM   12  C1  UNK     1      20.752  -0.988  29.173  1.00  0.00     0.009 C 
HETATM   13  C3  UNK     1      19.523  -0.627  28.327  1.00  0.00     0.039 C 
HETATM   14  C7  UNK     1      18.168   1.570  28.541  1.00  0.00     0.010 A 
HETATM   15  C9  UNK     1      17.840   2.641  29.375  1.00  0.00     0.030 A 
ENDBRANCH   5   7
ENDBRANCH   3   5
ENDBRANCH   1   3
BRANCH   1  16
HETATM   16  C12 UNK     1      17.837   6.797  33.355  1.00  0.00     0.036 A 
HETATM   17  C15 UNK     1      18.459   8.039  33.283  1.00  0.00     0.067 A 
HETATM   18  C13 UNK     1      17.771   9.172  33.721  1.00  0.00     0.092 A 
HETATM   19  C10 UNK     1      16.474   9.104  34.232  1.00  0.00     0.004 A 
HETATM   20  O1  UNK     1      18.453  10.401  33.624  1.00  0.00    -0.275 OA
HETATM   21  C14 UNK     1      15.824  10.348  34.671  1.00  0.00    -0.043 A 
HETATM   22  C16 UNK     1      15.865   7.845  34.296  1.00  0.00     0.017 A 
HETATM   23  C18 UNK     1      16.498  11.503  34.566  1.00  0.00     0.090 A 
HETATM   24  C19 UNK     1      14.431  10.309  35.224  1.00  0.00     0.049 C 
HETATM   25  C20 UNK     1      17.866  11.590  34.029  1.00  0.00     0.288 A 
HETATM   26  O2  UNK     1      18.450  12.666  33.949  1.00  0.00    -0.260 OA
HETATM   27  C17 UNK     1      16.541   6.700  33.860  1.00  0.00     0.030 A 
ENDBRANCH   1  16
TORSDOF 4
ENDMDL
MODEL 2
REMARK VINA RESULT:      -9.6      1.468      2.030
REMARK  4 active torsions:
REMARK  status: ('A' for Active; 'I' for Inactive)
REMARK    1  A    between atoms: C11_16  and  N1_4 
REMARK    2  A    between atoms: C8_13  and  N1_4 
REMARK    3  A    between atoms: C11_16  and  N2_5 
REMARK    4  A    between atoms: C12_17  and  N2_5 
ROOT
HETATM    1  N2  UNK     1      17.904   5.456  33.027  1.00  0.00    -0.333 N 
HETATM    2  H12 UNK     1      17.338   4.856  33.619  1.00  0.00     0.168 HD
ENDROOT
BRANCH   1   3
HETATM    3  C11 UNK     1      18.396   4.800  31.896  1.00  0.00     0.176 C 
HETATM    4  S1  UNK     1      19.489   5.434  30.780  1.00  0.00    -0.041 SA
BRANCH   3   5
HETATM    5  N1  UNK     1      17.850   3.561  31.596  1.00  0.00    -0.333 N 
HETATM    6  H10 UNK     1      17.083   3.292  32.210  1.00  0.00     0.168 HD
BRANCH   5   7
HETATM    7  C8  UNK     1      18.293   2.536  30.747  1.00  0.00     0.034 A 
HETATM    8  C6  UNK     1      19.169   1.563  31.234  1.00  0.00     0.037 A 
HETATM    9  C4  UNK     1      19.589   0.567  30.370  1.00  0.00    -0.050 A 
HETATM   10  C2  UNK     1      20.485  -0.594  30.667  1.00  0.00     0.039 C 
HETATM   11  C5  UNK     1      19.142   0.525  29.044  1.00  0.00    -0.052 A 
HETATM   12  C1  UNK     1      20.871  -1.042  29.249  1.00  0.00     0.009 C 
HETATM   13  C3  UNK     1      19.696  -0.668  28.332  1.00  0.00     0.039 C 
HETATM   14  C7  UNK     1      18.264   1.478  28.556  1.00  0.00     0.010 A 
HETATM   15  C9  UNK     1      17.844   2.494  29.418  1.00  0.00     0.030 A 
ENDBRANCH   5   7
ENDBRANCH   3   5
ENDBRANCH   1   3
BRANCH   1  16
HETATM   16  C12 UNK     1      17.625   6.800  33.274  1.00  0.00     0.036 A 
HETATM   17  C15 UNK     1      16.323   7.275  33.160  1.00  0.00     0.067 A 
HETATM   18  C13 UNK     1      16.065   8.623  33.413  1.00  0.00     0.092 A 
HETATM   19  C10 UNK     1      17.071   9.519  33.779  1.00  0.00     0.004 A 
HETATM   20  O1  UNK     1      14.727   9.046  33.281  1.00  0.00    -0.275 OA
HETATM   21  C14 UNK     1      16.709  10.922  34.027  1.00  0.00    -0.043 A 
HETATM   22  C16 UNK     1      18.376   9.021  33.889  1.00  0.00     0.017 A 
HETATM   23  C18 UNK     1      15.428  11.294  33.894  1.00  0.00     0.090 A 
HETATM   24  C19 UNK     1      17.768  11.908  34.422  1.00  0.00     0.049 C 
HETATM   25  C20 UNK     1      14.356  10.362  33.509  1.00  0.00     0.288 A 
HETATM   26  O2  UNK     1      13.194  10.740  33.396  1.00  0.00    -0.260 OA
HETATM   27  C17 UNK     1      18.650   7.671  33.639  1.00  0.00     0.030 A 
ENDBRANCH   1  16
TORSDOF 4
ENDMDL
MODEL 3
REMARK VINA RESULT:      -9.4     10.424     15.042
REMARK  4 active torsions:
REMARK  status: ('A' for Active; 'I' for Inactive)
REMARK    1  A    between atoms: C11_16  and  N1_4 
REMARK    2  A    between atoms: C8_13  and  N1_4 
REMARK    3  A    between atoms: C11_16  and  N2_5 
REMARK    4  A    between atoms: C12_17  and  N2_5 
ROOT
HETATM    1  N2  UNK     1      18.960  -5.283  35.886  1.00  0.00    -0.333 N 
HETATM    2  H12 UNK     1      18.025  -5.304  35.491  1.00  0.00     0.168 HD
ENDROOT
BRANCH   1   3
HETATM    3  C11 UNK     1      19.223  -4.117  36.610  1.00  0.00     0.176 C 
HETATM    4  S1  UNK     1      20.671  -3.735  37.382  1.00  0.00    -0.041 SA
BRANCH   3   5
HETATM    5  N1  UNK     1      18.162  -3.247  36.812  1.00  0.00    -0.333 N 
HETATM    6  H10 UNK     1      17.261  -3.713  36.898  1.00  0.00     0.168 HD
BRANCH   5   7
HETATM    7  C8  UNK     1      18.080  -1.850  36.711  1.00  0.00     0.034 A 
HETATM    8  C6  UNK     1      18.206  -1.237  35.462  1.00  0.00     0.037 A 
HETATM    9  C4  UNK     1      18.122   0.143  35.397  1.00  0.00    -0.050 A 
HETATM   10  C2  UNK     1      18.187   1.015  34.183  1.00  0.00     0.039 C 
HETATM   11  C5  UNK     1      17.907   0.908  36.549  1.00  0.00    -0.052 A 
HETATM   12  C1  UNK     1      18.449   2.389  34.817  1.00  0.00     0.009 C 
HETATM   13  C3  UNK     1      17.806   2.362  36.212  1.00  0.00     0.039 C 
HETATM   14  C7  UNK     1      17.768   0.309  37.789  1.00  0.00     0.010 A 
HETATM   15  C9  UNK     1      17.863  -1.083  37.866  1.00  0.00     0.030 A 
ENDBRANCH   5   7
ENDBRANCH   3   5
ENDBRANCH   1   3
BRANCH   1  16
HETATM   16  C12 UNK     1      19.487  -6.571  35.976  1.00  0.00     0.036 A 
HETATM   17  C15 UNK     1      19.035  -7.443  36.961  1.00  0.00     0.067 A 
HETATM   18  C13 UNK     1      19.575  -8.729  37.032  1.00  0.00     0.092 A 
HETATM   19  C10 UNK     1      20.558  -9.174  36.147  1.00  0.00     0.004 A 
HETATM   20  O1  UNK     1      19.077  -9.566  38.051  1.00  0.00    -0.275 OA
HETATM   21  C14 UNK     1      21.070 -10.544  36.296  1.00  0.00    -0.043 A 
HETATM   22  C16 UNK     1      20.999  -8.281  35.163  1.00  0.00     0.017 A 
HETATM   23  C18 UNK     1      20.577 -11.318  37.274  1.00  0.00     0.090 A 
HETATM   24  C19 UNK     1      22.126 -11.053  35.360  1.00  0.00     0.049 C 
HETATM   25  C20 UNK     1      19.540 -10.862  38.215  1.00  0.00     0.288 A 
HETATM   26  O2  UNK     1      19.114 -11.600  39.097  1.00  0.00    -0.260 OA
HETATM   27  C17 UNK     1      20.468  -6.990  35.078  1.00  0.00     0.030 A 
ENDBRANCH   1  16
TORSDOF 4
ENDMDL
MODEL 4
REMARK VINA RESULT:      -9.3     10.385     14.866
REMARK  4 active torsions:
REMARK  status: ('A' for Active; 'I' for Inactive)
REMARK    1  A    between atoms: C11_16  and  N1_4 
REMARK    2  A    between atoms: C8_13  and  N1_4 
REMARK    3  A    between atoms: C11_16  and  N2_5 
REMARK    4  A    between atoms: C12_17  and  N2_5 
ROOT
HETATM    1  N2  UNK     1      18.946  -5.208  35.975  1.00  0.00    -0.333 N 
HETATM    2  H12 UNK     1      18.118  -5.182  35.388  1.00  0.00     0.168 HD
ENDROOT
BRANCH   1   3
HETATM    3  C11 UNK     1      19.219  -3.985  36.591  1.00  0.00     0.176 C 
HETATM    4  S1  UNK     1      20.693  -3.521  37.263  1.00  0.00    -0.041 SA
BRANCH   3   5
HETATM    5  N1  UNK     1      18.153  -3.117  36.773  1.00  0.00    -0.333 N 
HETATM    6  H10 UNK     1      17.252  -3.586  36.855  1.00  0.00     0.168 HD
BRANCH   5   7
HETATM    7  C8  UNK     1      18.065  -1.722  36.654  1.00  0.00     0.034 A 
HETATM    8  C6  UNK     1      18.215  -1.123  35.401  1.00  0.00     0.037 A 
HETATM    9  C4  UNK     1      18.126   0.256  35.319  1.00  0.00    -0.050 A 
HETATM   10  C2  UNK     1      18.214   1.115  34.097  1.00  0.00     0.039 C 
HETATM   11  C5  UNK     1      17.881   1.033  36.457  1.00  0.00    -0.052 A 
HETATM   12  C1  UNK     1      18.454   2.498  34.721  1.00  0.00     0.009 C 
HETATM   13  C3  UNK     1      17.781   2.483  36.102  1.00  0.00     0.039 C 
HETATM   14  C7  UNK     1      17.718   0.447  37.701  1.00  0.00     0.010 A 
HETATM   15  C9  UNK     1      17.819  -0.943  37.795  1.00  0.00     0.030 A 
ENDBRANCH   5   7
ENDBRANCH   3   5
ENDBRANCH   1   3
BRANCH   1  16
HETATM   16  C12 UNK     1      19.252  -6.521  36.337  1.00  0.00     0.036 A 
HETATM   17  C15 UNK     1      20.217  -7.232  35.632  1.00  0.00     0.067 A 
HETATM   18  C13 UNK     1      20.510  -8.543  36.012  1.00  0.00     0.092 A 
HETATM   19  C10 UNK     1      19.866  -9.171  37.080  1.00  0.00     0.004 A 
HETATM   20  O1  UNK     1      21.495  -9.213  35.260  1.00  0.00    -0.275 OA
HETATM   21  C14 UNK     1      20.236 -10.554  37.410  1.00  0.00    -0.043 A 
HETATM   22  C16 UNK     1      18.898  -8.437  37.777  1.00  0.00     0.017 A 
HETATM   23  C18 UNK     1      21.178 -11.166  36.678  1.00  0.00     0.090 A 
HETATM   24  C19 UNK     1      19.563 -11.256  38.552  1.00  0.00     0.049 C 
HETATM   25  C20 UNK     1      21.866 -10.517  35.549  1.00  0.00     0.288 A 
HETATM   26  O2  UNK     1      22.723 -11.110  34.901  1.00  0.00    -0.260 OA
HETATM   27  C17 UNK     1      18.593  -7.122  37.408  1.00  0.00     0.030 A 
ENDBRANCH   1  16
TORSDOF 4
ENDMDL
MODEL 5
REMARK VINA RESULT:      -9.3      4.243      8.312
REMARK  4 active torsions:
REMARK  status: ('A' for Active; 'I' for Inactive)
REMARK    1  A    between atoms: C11_16  and  N1_4 
REMARK    2  A    between atoms: C8_13  and  N1_4 
REMARK    3  A    between atoms: C11_16  and  N2_5 
REMARK    4  A    between atoms: C12_17  and  N2_5 
ROOT
HETATM    1  N2  UNK     1      18.993   0.267  30.689  1.00  0.00    -0.333 N 
HETATM    2  H12 UNK     1      18.861  -0.531  30.076  1.00  0.00     0.168 HD
ENDROOT
BRANCH   1   3
HETATM    3  C11 UNK     1      18.754   1.489  30.055  1.00  0.00     0.176 C 
HETATM    4  S1  UNK     1      17.842   1.718  28.656  1.00  0.00    -0.041 SA
BRANCH   3   5
HETATM    5  N1  UNK     1      19.421   2.599  30.550  1.00  0.00    -0.333 N 
HETATM    6  H10 UNK     1      20.360   2.396  30.887  1.00  0.00     0.168 HD
BRANCH   5   7
HETATM    7  C8  UNK     1      18.966   3.890  30.861  1.00  0.00     0.034 A 
HETATM    8  C6  UNK     1      18.318   4.121  32.076  1.00  0.00     0.037 A 
HETATM    9  C4  UNK     1      17.879   5.405  32.351  1.00  0.00    -0.050 A 
HETATM   10  C2  UNK     1      17.201   5.903  33.589  1.00  0.00     0.039 C 
HETATM   11  C5  UNK     1      18.086   6.449  31.442  1.00  0.00    -0.052 A 
HETATM   12  C1  UNK     1      16.630   7.242  33.097  1.00  0.00     0.009 C 
HETATM   13  C3  UNK     1      17.568   7.742  31.987  1.00  0.00     0.039 C 
HETATM   14  C7  UNK     1      18.739   6.231  30.241  1.00  0.00     0.010 A 
HETATM   15  C9  UNK     1      19.174   4.936  29.949  1.00  0.00     0.030 A 
ENDBRANCH   5   7
ENDBRANCH   3   5
ENDBRANCH   1   3
BRANCH   1  16
HETATM   16  C12 UNK     1      18.906  -0.118  32.027  1.00  0.00     0.036 A 
HETATM   17  C15 UNK     1      18.318   0.730  32.960  1.00  0.00     0.067 A 
HETATM   18  C13 UNK     1      18.240   0.324  34.294  1.00  0.00     0.092 A 
HETATM   19  C10 UNK     1      18.733  -0.907  34.728  1.00  0.00     0.004 A 
HETATM   20  O1  UNK     1      17.634   1.225  35.193  1.00  0.00    -0.275 OA
HETATM   21  C14 UNK     1      18.608  -1.252  36.152  1.00  0.00    -0.043 A 
HETATM   22  C16 UNK     1      19.320  -1.746  33.773  1.00  0.00     0.017 A 
HETATM   23  C18 UNK     1      18.027  -0.376  36.983  1.00  0.00     0.090 A 
HETATM   24  C19 UNK     1      19.127  -2.569  36.650  1.00  0.00     0.049 C 
HETATM   25  C20 UNK     1      17.502   0.927  36.540  1.00  0.00     0.288 A 
HETATM   26  O2  UNK     1      16.977   1.703  37.331  1.00  0.00    -0.260 OA
HETATM   27  C17 UNK     1      19.406  -1.354  32.433  1.00  0.00     0.030 A 
ENDBRANCH   1  16
TORSDOF 4
ENDMDL
MODEL 6
REMARK VINA RESULT:      -9.2      7.770     11.168
REMARK  4 active torsions:
REMARK  status: ('A' for Active; 'I' for Inactive)
REMARK    1  A    between atoms: C11_16  and  N1_4 
REMARK    2  A    between atoms: C8_13  and  N1_4 
REMARK    3  A    between atoms: C11_16  and  N2_5 
REMARK    4  A    between atoms: C12_17  and  N2_5 
ROOT
HETATM    1  N2  UNK     1      20.065  -3.133  35.000  1.00  0.00    -0.333 N 
HETATM    2  H12 UNK     1      21.021  -3.375  35.241  1.00  0.00     0.168 HD
ENDROOT
BRANCH   1   3
HETATM    3  C11 UNK     1      19.193  -3.195  36.090  1.00  0.00     0.176 C 
HETATM    4  S1  UNK     1      18.732  -1.899  37.064  1.00  0.00    -0.041 SA
BRANCH   3   5
HETATM    5  N1  UNK     1      18.757  -4.452  36.479  1.00  0.00    -0.333 N 
HETATM    6  H10 UNK     1      17.760  -4.602  36.336  1.00  0.00     0.168 HD
BRANCH   5   7
HETATM    7  C8  UNK     1      19.390  -5.463  37.218  1.00  0.00     0.034 A 
HETATM    8  C6  UNK     1      18.818  -6.736  37.281  1.00  0.00     0.037 A 
HETATM    9  C4  UNK     1      19.466  -7.710  38.021  1.00  0.00    -0.050 A 
HETATM   10  C2  UNK     1      19.073  -9.142  38.205  1.00  0.00     0.039 C 
HETATM   11  C5  UNK     1      20.670  -7.435  38.680  1.00  0.00    -0.052 A 
HETATM   12  C1  UNK     1      19.933  -9.533  39.416  1.00  0.00     0.009 C 
HETATM   13  C3  UNK     1      21.194  -8.657  39.365  1.00  0.00     0.039 C 
HETATM   14  C7  UNK     1      21.250  -6.180  38.612  1.00  0.00     0.010 A 
HETATM   15  C9  UNK     1      20.597  -5.187  37.878  1.00  0.00     0.030 A 
ENDBRANCH   5   7
ENDBRANCH   3   5
ENDBRANCH   1   3
BRANCH   1  16
HETATM   16  C12 UNK     1      20.027  -2.389  33.820  1.00  0.00     0.036 A 
HETATM   17  C15 UNK     1      19.283  -1.216  33.759  1.00  0.00     0.067 A 
HETATM   18  C13 UNK     1      19.259  -0.486  32.568  1.00  0.00     0.092 A 
HETATM   19  C10 UNK     1      19.958  -0.893  31.431  1.00  0.00     0.004 A 
HETATM   20  O1  UNK     1      18.488   0.694  32.567  1.00  0.00    -0.275 OA
HETATM   21  C14 UNK     1      19.877  -0.063  30.220  1.00  0.00    -0.043 A 
HETATM   22  C16 UNK     1      20.701  -2.077  31.514  1.00  0.00     0.017 A 
HETATM   23  C18 UNK     1      19.136   1.054  30.249  1.00  0.00     0.090 A 
HETATM   24  C19 UNK     1      20.617  -0.473  28.982  1.00  0.00     0.049 C 
HETATM   25  C20 UNK     1      18.393   1.497  31.441  1.00  0.00     0.288 A 
HETATM   26  O2  UNK     1      17.726   2.525  31.429  1.00  0.00    -0.260 OA
HETATM   27  C17 UNK     1      20.735  -2.820  32.699  1.00  0.00     0.030 A 
ENDBRANCH   1  16
TORSDOF 4
ENDMDL
MODEL 7
REMARK VINA RESULT:      -9.2      8.864     13.282
REMARK  4 active torsions:
REMARK  status: ('A' for Active; 'I' for Inactive)
REMARK    1  A    between atoms: C11_16  and  N1_4 
REMARK    2  A    between atoms: C8_13  and  N1_4 
REMARK    3  A    between atoms: C11_16  and  N2_5 
REMARK    4  A    between atoms: C12_17  and  N2_5 
ROOT
HETATM    1  N2  UNK     1      19.306  -3.718  35.864  1.00  0.00    -0.333 N 
HETATM    2  H12 UNK     1      18.460  -3.510  36.385  1.00  0.00     0.168 HD
ENDROOT
BRANCH   1   3
HETATM    3  C11 UNK     1      19.870  -2.590  35.264  1.00  0.00     0.176 C 
HETATM    4  S1  UNK     1      21.294  -1.822  35.737  1.00  0.00    -0.041 SA
BRANCH   3   5
HETATM    5  N1  UNK     1      19.135  -1.974  34.261  1.00  0.00    -0.333 N 
HETATM    6  H10 UNK     1      18.140  -1.907  34.465  1.00  0.00     0.168 HD
BRANCH   5   7
HETATM    7  C8  UNK     1      19.478  -1.621  32.947  1.00  0.00     0.034 A 
HETATM    8  C6  UNK     1      19.018  -0.416  32.412  1.00  0.00     0.037 A 
HETATM    9  C4  UNK     1      19.372  -0.099  31.111  1.00  0.00    -0.050 A 
HETATM   10  C2  UNK     1      19.037   1.140  30.340  1.00  0.00     0.039 C 
HETATM   11  C5  UNK     1      20.177  -0.956  30.352  1.00  0.00    -0.052 A 
HETATM   12  C1  UNK     1      19.349   0.690  28.905  1.00  0.00     0.009 C 
HETATM   13  C3  UNK     1      20.457  -0.370  29.005  1.00  0.00     0.039 C 
HETATM   14  C7  UNK     1      20.647  -2.147  30.879  1.00  0.00     0.010 A 
HETATM   15  C9  UNK     1      20.285  -2.481  32.187  1.00  0.00     0.030 A 
ENDBRANCH   5   7
ENDBRANCH   3   5
ENDBRANCH   1   3
BRANCH   1  16
HETATM   16  C12 UNK     1      19.867  -4.920  36.294  1.00  0.00     0.036 A 
HETATM   17  C15 UNK     1      20.143  -5.929  35.378  1.00  0.00     0.067 A 
HETATM   18  C13 UNK     1      20.706  -7.124  35.829  1.00  0.00     0.092 A 
HETATM   19  C10 UNK     1      21.005  -7.346  37.175  1.00  0.00     0.004 A 
HETATM   20  O1  UNK     1      20.962  -8.109  34.854  1.00  0.00    -0.275 OA
HETATM   21  C14 UNK     1      21.597  -8.634  37.561  1.00  0.00    -0.043 A 
HETATM   22  C16 UNK     1      20.721  -6.317  38.081  1.00  0.00     0.017 A 
HETATM   23  C18 UNK     1      21.830  -9.552  36.612  1.00  0.00     0.090 A 
HETATM   24  C19 UNK     1      21.931  -8.903  38.999  1.00  0.00     0.049 C 
HETATM   25  C20 UNK     1      21.521  -9.333  35.189  1.00  0.00     0.288 A 
HETATM   26  O2  UNK     1      21.748 -10.197  34.349  1.00  0.00    -0.260 OA
HETATM   27  C17 UNK     1      20.156  -5.114  37.645  1.00  0.00     0.030 A 
ENDBRANCH   1  16
TORSDOF 4
ENDMDL
MODEL 8
REMARK VINA RESULT:      -9.1      9.795     14.186
REMARK  4 active torsions:
REMARK  status: ('A' for Active; 'I' for Inactive)
REMARK    1  A    between atoms: C11_16  and  N1_4 
REMARK    2  A    between atoms: C8_13  and  N1_4 
REMARK    3  A    between atoms: C11_16  and  N2_5 
REMARK    4  A    between atoms: C12_17  and  N2_5 
ROOT
HETATM    1  N2  UNK     1      18.754  -4.835  36.365  1.00  0.00    -0.333 N 
HETATM    2  H12 UNK     1      17.751  -4.686  36.410  1.00  0.00     0.168 HD
ENDROOT
BRANCH   1   3
HETATM    3  C11 UNK     1      19.490  -3.662  36.546  1.00  0.00     0.176 C 
HETATM    4  S1  UNK     1      20.959  -3.530  37.363  1.00  0.00    -0.041 SA
BRANCH   3   5
HETATM    5  N1  UNK     1      18.909  -2.479  36.117  1.00  0.00    -0.333 N 
HETATM    6  H10 UNK     1      18.179  -2.133  36.737  1.00  0.00     0.168 HD
BRANCH   5   7
HETATM    7  C8  UNK     1      18.998  -1.793  34.896  1.00  0.00     0.034 A 
HETATM    8  C6  UNK     1      19.797  -2.305  33.871  1.00  0.00     0.037 A 
HETATM    9  C4  UNK     1      19.865  -1.603  32.680  1.00  0.00    -0.050 A 
HETATM   10  C2  UNK     1      20.615  -1.967  31.437  1.00  0.00     0.039 C 
HETATM   11  C5  UNK     1      19.145  -0.416  32.499  1.00  0.00    -0.052 A 
HETATM   12  C1  UNK     1      20.616  -0.626  30.687  1.00  0.00     0.009 C 
HETATM   13  C3  UNK     1      19.345   0.123  31.118  1.00  0.00     0.039 C 
HETATM   14  C7  UNK     1      18.341   0.091  33.505  1.00  0.00     0.010 A 
HETATM   15  C9  UNK     1      18.276  -0.604  34.715  1.00  0.00     0.030 A 
ENDBRANCH   5   7
ENDBRANCH   3   5
ENDBRANCH   1   3
BRANCH   1  16
HETATM   16  C12 UNK     1      19.065  -6.174  36.603  1.00  0.00     0.036 A 
HETATM   17  C15 UNK     1      19.931  -6.852  35.752  1.00  0.00     0.067 A 
HETATM   18  C13 UNK     1      20.230  -8.191  36.009  1.00  0.00     0.092 A 
HETATM   19  C10 UNK     1      19.689  -8.880  37.096  1.00  0.00     0.004 A 
HETATM   20  O1  UNK     1      21.114  -8.824  35.112  1.00  0.00    -0.275 OA
HETATM   21  C14 UNK     1      20.059 -10.289  37.291  1.00  0.00    -0.043 A 
HETATM   22  C16 UNK     1      18.819  -8.180  37.941  1.00  0.00     0.017 A 
HETATM   23  C18 UNK     1      20.902 -10.864  36.421  1.00  0.00     0.090 A 
HETATM   24  C19 UNK     1      19.494 -11.057  38.449  1.00  0.00     0.049 C 
HETATM   25  C20 UNK     1      21.481 -10.151  35.271  1.00  0.00     0.288 A 
HETATM   26  O2  UNK     1      22.249 -10.712  34.496  1.00  0.00    -0.260 OA
HETATM   27  C17 UNK     1      18.509  -6.837  37.696  1.00  0.00     0.030 A 
ENDBRANCH   1  16
TORSDOF 4
ENDMDL
MODEL 9
REMARK VINA RESULT:      -9.0      3.611      9.773
REMARK  4 active torsions:
REMARK  status: ('A' for Active; 'I' for Inactive)
REMARK    1  A    between atoms: C11_16  and  N1_4 
REMARK    2  A    between atoms: C8_13  and  N1_4 
REMARK    3  A    between atoms: C11_16  and  N2_5 
REMARK    4  A    between atoms: C12_17  and  N2_5 
ROOT
HETATM    1  N2  UNK     1      17.626   4.072  32.007  1.00  0.00    -0.333 N 
HETATM    2  H12 UNK     1      16.748   3.866  32.472  1.00  0.00     0.168 HD
ENDROOT
BRANCH   1   3
HETATM    3  C11 UNK     1      18.164   5.308  32.372  1.00  0.00     0.176 C 
HETATM    4  S1  UNK     1      19.597   5.977  31.790  1.00  0.00    -0.041 SA
BRANCH   3   5
HETATM    5  N1  UNK     1      17.524   5.999  33.390  1.00  0.00    -0.333 N 
HETATM    6  H10 UNK     1      17.663   5.590  34.312  1.00  0.00     0.168 HD
BRANCH   5   7
HETATM    7  C8  UNK     1      16.564   7.021  33.354  1.00  0.00     0.034 A 
HETATM    8  C6  UNK     1      16.602   8.041  34.308  1.00  0.00     0.037 A 
HETATM    9  C4  UNK     1      15.638   9.033  34.246  1.00  0.00    -0.050 A 
HETATM   10  C2  UNK     1      15.496  10.237  35.123  1.00  0.00     0.039 C 
HETATM   11  C5  UNK     1      14.656   9.025  33.248  1.00  0.00    -0.052 A 
HETATM   12  C1  UNK     1      14.056  10.667  34.807  1.00  0.00     0.009 C 
HETATM   13  C3  UNK     1      13.768  10.222  33.365  1.00  0.00     0.039 C 
HETATM   14  C7  UNK     1      14.619   8.025  32.292  1.00  0.00     0.010 A 
HETATM   15  C9  UNK     1      15.580   7.013  32.354  1.00  0.00     0.030 A 
ENDBRANCH   5   7
ENDBRANCH   3   5
ENDBRANCH   1   3
BRANCH   1  16
HETATM   16  C12 UNK     1      18.223   2.900  31.540  1.00  0.00     0.036 A 
HETATM   17  C15 UNK     1      18.459   1.842  32.412  1.00  0.00     0.067 A 
HETATM   18  C13 UNK     1      19.057   0.678  31.924  1.00  0.00     0.092 A 
HETATM   19  C10 UNK     1      19.429   0.536  30.586  1.00  0.00     0.004 A 
HETATM   20  O1  UNK     1      19.271  -0.359  32.854  1.00  0.00    -0.275 OA
HETATM   21  C14 UNK     1      20.052  -0.725  30.159  1.00  0.00    -0.043 A 
HETATM   22  C16 UNK     1      19.182   1.613  29.725  1.00  0.00     0.017 A 
HETATM   23  C18 UNK     1      20.242  -1.694  31.066  1.00  0.00     0.090 A 
HETATM   24  C19 UNK     1      20.462  -0.909  28.727  1.00  0.00     0.049 C 
HETATM   25  C20 UNK     1      19.856  -1.559  32.480  1.00  0.00     0.288 A 
HETATM   26  O2  UNK     1      20.047  -2.468  33.281  1.00  0.00    -0.260 OA
HETATM   27  C17 UNK     1      18.584   2.786  30.198  1.00  0.00     0.030 A 
ENDBRANCH   1  16
TORSDOF 4
ENDMDL
MODEL 10
REMARK VINA RESULT:      -8.9      8.701     12.611
REMARK  4 active torsions:
REMARK  status: ('A' for Active; 'I' for Inactive)
REMARK    1  A    between atoms: C11_16  and  N1_4 
REMARK    2  A    between atoms: C8_13  and  N1_4 
REMARK    3  A    between atoms: C11_16  and  N2_5 
REMARK    4  A    between atoms: C12_17  and  N2_5 
ROOT
HETATM    1  N2  UNK     1      19.979  -2.658  36.194  1.00  0.00    -0.333 N 
HETATM    2  H12 UNK     1      20.795  -2.519  35.607  1.00  0.00     0.168 HD
ENDROOT
BRANCH   1   3
HETATM    3  C11 UNK     1      18.962  -1.734  35.944  1.00  0.00     0.176 C 
HETATM    4  S1  UNK     1      18.194  -0.771  37.094  1.00  0.00    -0.041 SA
BRANCH   3   5
HETATM    5  N1  UNK     1      18.454  -1.686  34.655  1.00  0.00    -0.333 N 
HETATM    6  H10 UNK     1      17.500  -2.032  34.577  1.00  0.00     0.168 HD
BRANCH   5   7
HETATM    7  C8  UNK     1      19.082  -1.449  33.422  1.00  0.00     0.034 A 
HETATM    8  C6  UNK     1      18.695  -0.352  32.648  1.00  0.00     0.037 A 
HETATM    9  C4  UNK     1      19.331  -0.147  31.436  1.00  0.00    -0.050 A 
HETATM   10  C2  UNK     1      19.120   0.967  30.460  1.00  0.00     0.039 C 
HETATM   11  C5  UNK     1      20.344  -1.008  30.998  1.00  0.00    -0.052 A 
HETATM   12  C1  UNK     1      19.794   0.394  29.204  1.00  0.00     0.009 C 
HETATM   13  C3  UNK     1      20.905  -0.549  29.690  1.00  0.00     0.039 C 
HETATM   14  C7  UNK     1      20.742  -2.091  31.764  1.00  0.00     0.010 A 
HETATM   15  C9  UNK     1      20.097  -2.312  32.983  1.00  0.00     0.030 A 
ENDBRANCH   5   7
ENDBRANCH   3   5
ENDBRANCH   1   3
BRANCH   1  16
HETATM   16  C12 UNK     1      19.951  -3.958  36.700  1.00  0.00     0.036 A 
HETATM   17  C15 UNK     1      20.977  -4.409  37.523  1.00  0.00     0.067 A 
HETATM   18  C13 UNK     1      20.928  -5.714  38.020  1.00  0.00     0.092 A 
HETATM   19  C10 UNK     1      19.881  -6.587  37.718  1.00  0.00     0.004 A 
HETATM   20  O1  UNK     1      21.995  -6.114  38.848  1.00  0.00    -0.275 OA
HETATM   21  C14 UNK     1      19.911  -7.943  38.285  1.00  0.00    -0.043 A 
HETATM   22  C16 UNK     1      18.858  -6.113  36.888  1.00  0.00     0.017 A 
HETATM   23  C18 UNK     1      20.939  -8.295  39.070  1.00  0.00     0.090 A 
HETATM   24  C19 UNK     1      18.800  -8.904  37.981  1.00  0.00     0.049 C 
HETATM   25  C20 UNK     1      22.050  -7.386  39.397  1.00  0.00     0.288 A 
HETATM   26  O2  UNK     1      22.974  -7.744  40.119  1.00  0.00    -0.260 OA
HETATM   27  C17 UNK     1      18.892  -4.808  36.382  1.00  0.00     0.030 A 
ENDBRANCH   1  16
TORSDOF 4
ENDMDL
