MODEL 1
REMARK VINA RESULT:      -9.1      0.000      0.000
REMARK  2 active torsions:
REMARK  status: ('A' for Active; 'I' for Inactive)
REMARK    1  A    between atoms: C2_7  and  N1_4 
REMARK       I    between atoms: C8_13  and  N1_4 
REMARK    2  A    between atoms: C8_13  and  C9_14 
ROOT
HETATM    1  O1  UNK     1      17.516   8.159  31.857  1.00  0.00    -0.275 OA
HETATM    2  O3  UNK     1      16.554   9.706  33.243  1.00  0.00    -0.260 OA
HETATM    3  C1  UNK     1      17.769   5.867  32.637  1.00  0.00     0.000 A 
HETATM    4  C2  UNK     1      18.787   4.240  31.162  1.00  0.00     0.035 A 
HETATM    5  C3  UNK     1      17.937   6.830  31.645  1.00  0.00     0.089 A 
HETATM    6  C4  UNK     1      18.198   4.560  32.389  1.00  0.00     0.043 A 
HETATM    7  C5  UNK     1      18.948   5.220  30.180  1.00  0.00     0.032 A 
HETATM    8  C6  UNK     1      18.522   6.524  30.418  1.00  0.00     0.040 A 
HETATM    9  C7  UNK     1      17.151   6.255  33.893  1.00  0.00     0.020 A 
HETATM   10  C10 UNK     1      16.755   7.515  34.086  1.00  0.00     0.083 A 
HETATM   11  C11 UNK     1      16.922   8.553  33.052  1.00  0.00     0.288 A 
ENDROOT
BRANCH   4  12
HETATM   12  N1  UNK     1      19.215   2.935  30.917  1.00  0.00    -0.323 N 
HETATM   13  C8  UNK     1      18.565   1.938  30.179  1.00  0.00     0.257 C 
HETATM   14  O2  UNK     1      17.484   2.033  29.606  1.00  0.00    -0.267 OA
HETATM   15  H4  UNK     1      20.130   2.724  31.305  1.00  0.00     0.169 HD
BRANCH  13  16
HETATM   16  C9  UNK     1      19.266   0.629  30.121  1.00  0.00     0.049 A 
HETATM   17  C12 UNK     1      19.753   0.168  28.922  1.00  0.00     0.020 A 
HETATM   18  C14 UNK     1      20.405  -1.061  28.900  1.00  0.00     0.020 A 
HETATM   19  C15 UNK     1      20.527  -1.753  30.093  1.00  0.00     0.116 A 
HETATM   20  N2  UNK     1      20.052  -1.307  31.279  1.00  0.00    -0.272 NA
HETATM   21  C13 UNK     1      19.424  -0.110  31.262  1.00  0.00     0.133 A 
ENDBRANCH  13  16
ENDBRANCH   4  12
TORSDOF 2
ENDMDL
MODEL 2
REMARK VINA RESULT:      -8.9      1.737      1.952
REMARK  2 active torsions:
REMARK  status: ('A' for Active; 'I' for Inactive)
REMARK    1  A    between atoms: C2_7  and  N1_4 
REMARK       I    between atoms: C8_13  and  N1_4 
REMARK    2  A    between atoms: C8_13  and  C9_14 
ROOT
HETATM    1  O1  UNK     1      17.851   8.813  32.819  1.00  0.00    -0.275 OA
HETATM    2  O3  UNK     1      18.250  10.485  34.332  1.00  0.00    -0.260 OA
HETATM    3  C1  UNK     1      19.274   6.839  32.834  1.00  0.00     0.000 A 
HETATM    4  C2  UNK     1      18.843   5.078  31.230  1.00  0.00     0.035 A 
HETATM    5  C3  UNK     1      18.204   7.551  32.298  1.00  0.00     0.089 A 
HETATM    6  C4  UNK     1      19.593   5.591  32.292  1.00  0.00     0.043 A 
HETATM    7  C5  UNK     1      17.773   5.807  30.706  1.00  0.00     0.032 A 
HETATM    8  C6  UNK     1      17.448   7.052  31.240  1.00  0.00     0.040 A 
HETATM    9  C7  UNK     1      20.020   7.419  33.937  1.00  0.00     0.020 A 
HETATM   10  C10 UNK     1      19.680   8.615  34.424  1.00  0.00     0.083 A 
HETATM   11  C11 UNK     1      18.551   9.388  33.875  1.00  0.00     0.288 A 
ENDROOT
BRANCH   4  12
HETATM   12  N1  UNK     1      19.163   3.832  30.691  1.00  0.00    -0.323 N 
HETATM   13  C8  UNK     1      18.326   2.720  30.531  1.00  0.00     0.257 C 
HETATM   14  O2  UNK     1      17.142   2.640  30.841  1.00  0.00    -0.267 OA
HETATM   15  H4  UNK     1      20.117   3.766  30.349  1.00  0.00     0.169 HD
BRANCH  13  16
HETATM   16  C9  UNK     1      18.971   1.516  29.945  1.00  0.00     0.049 A 
HETATM   17  C12 UNK     1      19.908   0.822  30.671  1.00  0.00     0.020 A 
HETATM   18  C14 UNK     1      20.494  -0.300  30.096  1.00  0.00     0.020 A 
HETATM   19  C15 UNK     1      20.097  -0.657  28.818  1.00  0.00     0.116 A 
HETATM   20  N2  UNK     1      19.176   0.019  28.094  1.00  0.00    -0.272 NA
HETATM   21  C13 UNK     1      18.628   1.105  28.686  1.00  0.00     0.133 A 
ENDBRANCH  13  16
ENDBRANCH   4  12
TORSDOF 2
ENDMDL
MODEL 3
REMARK VINA RESULT:      -8.8      2.519      7.998
REMARK  2 active torsions:
REMARK  status: ('A' for Active; 'I' for Inactive)
REMARK    1  A    between atoms: C2_7  and  N1_4 
REMARK       I    between atoms: C8_13  and  N1_4 
REMARK    2  A    between atoms: C8_13  and  C9_14 
ROOT
HETATM    1  O1  UNK     1      19.856  -1.077  31.403  1.00  0.00    -0.275 OA
HETATM    2  O3  UNK     1      20.851  -2.690  30.119  1.00  0.00    -0.260 OA
HETATM    3  C1  UNK     1      19.202   1.025  30.366  1.00  0.00     0.000 A 
HETATM    4  C2  UNK     1      18.151   2.722  31.734  1.00  0.00     0.035 A 
HETATM    5  C3  UNK     1      19.285   0.209  31.491  1.00  0.00     0.089 A 
HETATM    6  C4  UNK     1      18.628   2.293  30.493  1.00  0.00     0.043 A 
HETATM    7  C5  UNK     1      18.243   1.890  32.852  1.00  0.00     0.032 A 
HETATM    8  C6  UNK     1      18.813   0.624  32.735  1.00  0.00     0.040 A 
HETATM    9  C7  UNK     1      19.713   0.528  29.101  1.00  0.00     0.020 A 
HETATM   10  C10 UNK     1      20.254  -0.690  29.026  1.00  0.00     0.083 A 
HETATM   11  C11 UNK     1      20.353  -1.574  30.202  1.00  0.00     0.288 A 
ENDROOT
BRANCH   4  12
HETATM   12  N1  UNK     1      17.579   3.989  31.858  1.00  0.00    -0.323 N 
HETATM   13  C8  UNK     1      18.230   5.228  31.915  1.00  0.00     0.257 C 
HETATM   14  O2  UNK     1      19.439   5.426  31.866  1.00  0.00    -0.267 OA
HETATM   15  H4  UNK     1      16.563   3.980  31.871  1.00  0.00     0.169 HD
BRANCH  13  16
HETATM   16  C9  UNK     1      17.340   6.408  32.078  1.00  0.00     0.049 A 
HETATM   17  C12 UNK     1      16.700   6.620  33.274  1.00  0.00     0.020 A 
HETATM   18  C14 UNK     1      15.875   7.732  33.396  1.00  0.00     0.020 A 
HETATM   19  C15 UNK     1      15.744   8.568  32.300  1.00  0.00     0.116 A 
HETATM   20  N2  UNK     1      16.371   8.368  31.117  1.00  0.00    -0.272 NA
HETATM   21  C13 UNK     1      17.165   7.277  31.036  1.00  0.00     0.133 A 
ENDBRANCH  13  16
ENDBRANCH   4  12
TORSDOF 2
ENDMDL
MODEL 4
REMARK VINA RESULT:      -8.7      1.924      2.555
REMARK  2 active torsions:
REMARK  status: ('A' for Active; 'I' for Inactive)
REMARK    1  A    between atoms: C2_7  and  N1_4 
REMARK       I    between atoms: C8_13  and  N1_4 
REMARK    2  A    between atoms: C8_13  and  C9_14 
ROOT
HETATM    1  O1  UNK     1      17.081   8.421  34.828  1.00  0.00    -0.275 OA
HETATM    2  O3  UNK     1      15.641  10.078  35.478  1.00  0.00    -0.260 OA
HETATM    3  C1  UNK     1      16.450   6.960  32.985  1.00  0.00     0.000 A 
HETATM    4  C2  UNK     1      17.981   5.213  32.307  1.00  0.00     0.035 A 
HETATM    5  C3  UNK     1      17.363   7.341  33.966  1.00  0.00     0.089 A 
HETATM    6  C4  UNK     1      16.767   5.886  32.150  1.00  0.00     0.043 A 
HETATM    7  C5  UNK     1      18.884   5.609  33.297  1.00  0.00     0.032 A 
HETATM    8  C6  UNK     1      18.578   6.679  34.134  1.00  0.00     0.040 A 
HETATM    9  C7  UNK     1      15.203   7.695  32.866  1.00  0.00     0.020 A 
HETATM   10  C10 UNK     1      14.943   8.716  33.686  1.00  0.00     0.083 A 
HETATM   11  C11 UNK     1      15.893   9.138  34.732  1.00  0.00     0.288 A 
ENDROOT
BRANCH   4  12
HETATM   12  N1  UNK     1      18.294   4.140  31.472  1.00  0.00    -0.323 N 
HETATM   13  C8  UNK     1      18.228   2.772  31.763  1.00  0.00     0.257 C 
HETATM   14  O2  UNK     1      17.878   2.261  32.822  1.00  0.00    -0.267 OA
HETATM   15  H4  UNK     1      18.567   4.417  30.533  1.00  0.00     0.169 HD
BRANCH  13  16
HETATM   16  C9  UNK     1      18.657   1.865  30.666  1.00  0.00     0.049 A 
HETATM   17  C12 UNK     1      19.583   0.882  30.915  1.00  0.00     0.020 A 
HETATM   18  C14 UNK     1      19.964   0.050  29.868  1.00  0.00     0.020 A 
HETATM   19  C15 UNK     1      19.385   0.260  28.628  1.00  0.00     0.116 A 
HETATM   20  N2  UNK     1      18.472   1.224  28.372  1.00  0.00    -0.272 NA
HETATM   21  C13 UNK     1      18.126   2.014  29.413  1.00  0.00     0.133 A 
ENDBRANCH  13  16
ENDBRANCH   4  12
TORSDOF 2
ENDMDL
MODEL 5
REMARK VINA RESULT:      -8.6      9.387     13.437
REMARK  2 active torsions:
REMARK  status: ('A' for Active; 'I' for Inactive)
REMARK    1  A    between atoms: C2_7  and  N1_4 
REMARK       I    between atoms: C8_13  and  N1_4 
REMARK    2  A    between atoms: C8_13  and  C9_14 
ROOT
HETATM    1  O1  UNK     1      18.977 -10.064  37.136  1.00  0.00    -0.275 OA
HETATM    2  O3  UNK     1      19.586 -11.917  38.336  1.00  0.00    -0.260 OA
HETATM    3  C1  UNK     1      19.287  -7.860  38.123  1.00  0.00     0.000 A 
HETATM    4  C2  UNK     1      18.639  -5.910  36.845  1.00  0.00     0.035 A 
HETATM    5  C3  UNK     1      18.872  -8.660  37.061  1.00  0.00     0.089 A 
HETATM    6  C4  UNK     1      19.168  -6.473  38.010  1.00  0.00     0.043 A 
HETATM    7  C5  UNK     1      18.228  -6.728  35.790  1.00  0.00     0.032 A 
HETATM    8  C6  UNK     1      18.343  -8.112  35.894  1.00  0.00     0.040 A 
HETATM    9  C7  UNK     1      19.829  -8.498  39.310  1.00  0.00     0.020 A 
HETATM   10  C10 UNK     1      19.924  -9.829  39.374  1.00  0.00     0.083 A 
HETATM   11  C11 UNK     1      19.493 -10.697  38.263  1.00  0.00     0.288 A 
ENDROOT
BRANCH   4  12
HETATM   12  N1  UNK     1      18.521  -4.524  36.735  1.00  0.00    -0.323 N 
HETATM   13  C8  UNK     1      19.546  -3.581  36.584  1.00  0.00     0.257 C 
HETATM   14  O2  UNK     1      20.750  -3.806  36.522  1.00  0.00    -0.267 OA
HETATM   15  H4  UNK     1      17.561  -4.193  36.731  1.00  0.00     0.169 HD
BRANCH  13  16
HETATM   16  C9  UNK     1      19.102  -2.163  36.522  1.00  0.00     0.049 A 
HETATM   17  C12 UNK     1      18.277  -1.662  37.499  1.00  0.00     0.020 A 
HETATM   18  C14 UNK     1      17.879  -0.333  37.413  1.00  0.00     0.020 A 
HETATM   19  C15 UNK     1      18.340   0.415  36.343  1.00  0.00     0.116 A 
HETATM   20  N2  UNK     1      19.153  -0.068  35.376  1.00  0.00    -0.272 NA
HETATM   21  C13 UNK     1      19.519  -1.364  35.492  1.00  0.00     0.133 A 
ENDBRANCH  13  16
ENDBRANCH   4  12
TORSDOF 2
ENDMDL
MODEL 6
REMARK VINA RESULT:      -8.3     13.245     15.541
REMARK  2 active torsions:
REMARK  status: ('A' for Active; 'I' for Inactive)
REMARK    1  A    between atoms: C2_7  and  N1_4 
REMARK       I    between atoms: C8_13  and  N1_4 
REMARK    2  A    between atoms: C8_13  and  C9_14 
ROOT
HETATM    1  O1  UNK     1      19.188   2.705  20.125  1.00  0.00    -0.275 OA
HETATM    2  O3  UNK     1      19.278   2.741  22.413  1.00  0.00    -0.260 OA
HETATM    3  C1  UNK     1      19.298   0.564  18.971  1.00  0.00     0.000 A 
HETATM    4  C2  UNK     1      19.202   0.539  16.553  1.00  0.00     0.035 A 
HETATM    5  C3  UNK     1      19.195   1.953  18.932  1.00  0.00     0.089 A 
HETATM    6  C4  UNK     1      19.301  -0.146  17.767  1.00  0.00     0.043 A 
HETATM    7  C5  UNK     1      19.100   1.931  16.534  1.00  0.00     0.032 A 
HETATM    8  C6  UNK     1      19.096   2.647  17.729  1.00  0.00     0.040 A 
HETATM    9  C7  UNK     1      19.398  -0.095  20.261  1.00  0.00     0.020 A 
HETATM   10  C10 UNK     1      19.392   0.624  21.386  1.00  0.00     0.083 A 
HETATM   11  C11 UNK     1      19.283   2.094  21.372  1.00  0.00     0.288 A 
ENDROOT
BRANCH   4  12
HETATM   12  N1  UNK     1      19.205  -0.173  15.352  1.00  0.00    -0.323 N 
HETATM   13  C8  UNK     1      18.703  -1.458  15.110  1.00  0.00     0.257 C 
HETATM   14  O2  UNK     1      18.162  -2.201  15.921  1.00  0.00    -0.267 OA
HETATM   15  H4  UNK     1      19.594   0.345  14.569  1.00  0.00     0.169 HD
BRANCH  13  16
HETATM   16  C9  UNK     1      18.879  -1.959  13.722  1.00  0.00     0.049 A 
HETATM   17  C12 UNK     1      18.938  -3.311  13.486  1.00  0.00     0.020 A 
HETATM   18  C14 UNK     1      19.104  -3.750  12.177  1.00  0.00     0.020 A 
HETATM   19  C15 UNK     1      19.201  -2.794  11.180  1.00  0.00     0.116 A 
HETATM   20  N2  UNK     1      19.144  -1.461  11.401  1.00  0.00    -0.272 NA
HETATM   21  C13 UNK     1      18.982  -1.072  12.685  1.00  0.00     0.133 A 
ENDBRANCH  13  16
ENDBRANCH   4  12
TORSDOF 2
ENDMDL
MODEL 7
REMARK VINA RESULT:      -8.2      8.047     12.350
REMARK  2 active torsions:
REMARK  status: ('A' for Active; 'I' for Inactive)
REMARK    1  A    between atoms: C2_7  and  N1_4 
REMARK       I    between atoms: C8_13  and  N1_4 
REMARK    2  A    between atoms: C8_13  and  C9_14 
ROOT
HETATM    1  O1  UNK     1      22.241  -7.784  37.228  1.00  0.00    -0.275 OA
HETATM    2  O3  UNK     1      22.977  -9.839  36.537  1.00  0.00    -0.260 OA
HETATM    3  C1  UNK     1      20.490  -6.667  35.960  1.00  0.00     0.000 A 
HETATM    4  C2  UNK     1      19.720  -4.495  36.701  1.00  0.00     0.035 A 
HETATM    5  C3  UNK     1      21.381  -6.684  37.030  1.00  0.00     0.089 A 
HETATM    6  C4  UNK     1      19.652  -5.560  35.798  1.00  0.00     0.043 A 
HETATM    7  C5  UNK     1      20.620  -4.531  37.768  1.00  0.00     0.032 A 
HETATM    8  C6  UNK     1      21.458  -5.631  37.938  1.00  0.00     0.040 A 
HETATM    9  C7  UNK     1      20.462  -7.800  35.052  1.00  0.00     0.020 A 
HETATM   10  C10 UNK     1      21.280  -8.837  35.246  1.00  0.00     0.083 A 
HETATM   11  C11 UNK     1      22.232  -8.880  36.371  1.00  0.00     0.288 A 
ENDROOT
BRANCH   4  12
HETATM   12  N1  UNK     1      18.883  -3.391  36.537  1.00  0.00    -0.323 N 
HETATM   13  C8  UNK     1      19.202  -2.140  35.992  1.00  0.00     0.257 C 
HETATM   14  O2  UNK     1      20.291  -1.784  35.556  1.00  0.00    -0.267 OA
HETATM   15  H4  UNK     1      17.923  -3.557  36.823  1.00  0.00     0.169 HD
BRANCH  13  16
HETATM   16  C9  UNK     1      18.093  -1.150  35.978  1.00  0.00     0.049 A 
HETATM   17  C12 UNK     1      17.708  -0.538  37.145  1.00  0.00     0.020 A 
HETATM   18  C14 UNK     1      16.668   0.383  37.099  1.00  0.00     0.020 A 
HETATM   19  C15 UNK     1      16.076   0.634  35.873  1.00  0.00     0.116 A 
HETATM   20  N2  UNK     1      16.447   0.037  34.717  1.00  0.00    -0.272 NA
HETATM   21  C13 UNK     1      17.462  -0.853  34.800  1.00  0.00     0.133 A 
ENDBRANCH  13  16
ENDBRANCH   4  12
TORSDOF 2
ENDMDL
MODEL 8
REMARK VINA RESULT:      -8.2      2.487      7.826
REMARK  2 active torsions:
REMARK  status: ('A' for Active; 'I' for Inactive)
REMARK    1  A    between atoms: C2_7  and  N1_4 
REMARK       I    between atoms: C8_13  and  N1_4 
REMARK    2  A    between atoms: C8_13  and  C9_14 
ROOT
HETATM    1  O1  UNK     1      20.031  -0.844  29.952  1.00  0.00    -0.275 OA
HETATM    2  O3  UNK     1      20.712  -2.945  30.554  1.00  0.00    -0.260 OA
HETATM    3  C1  UNK     1      18.989   0.587  31.624  1.00  0.00     0.000 A 
HETATM    4  C2  UNK     1      18.274   2.806  30.976  1.00  0.00     0.035 A 
HETATM    5  C3  UNK     1      19.434   0.380  30.321  1.00  0.00     0.089 A 
HETATM    6  C4  UNK     1      18.405   1.813  31.951  1.00  0.00     0.043 A 
HETATM    7  C5  UNK     1      18.726   2.580  29.674  1.00  0.00     0.032 A 
HETATM    8  C6  UNK     1      19.311   1.361  29.339  1.00  0.00     0.040 A 
HETATM    9  C7  UNK     1      19.151  -0.480  32.597  1.00  0.00     0.020 A 
HETATM   10  C10 UNK     1      19.715  -1.635  32.240  1.00  0.00     0.083 A 
HETATM   11  C11 UNK     1      20.195  -1.879  30.867  1.00  0.00     0.288 A 
ENDROOT
BRANCH   4  12
HETATM   12  N1  UNK     1      17.689   4.029  31.305  1.00  0.00    -0.323 N 
HETATM   13  C8  UNK     1      18.330   5.240  31.601  1.00  0.00     0.257 C 
HETATM   14  O2  UNK     1      19.538   5.445  31.626  1.00  0.00    -0.267 OA
HETATM   15  H4  UNK     1      16.673   4.018  31.284  1.00  0.00     0.169 HD
BRANCH  13  16
HETATM   16  C9  UNK     1      17.428   6.371  31.943  1.00  0.00     0.049 A 
HETATM   17  C12 UNK     1      16.873   6.446  33.197  1.00  0.00     0.020 A 
HETATM   18  C14 UNK     1      16.033   7.516  33.487  1.00  0.00     0.020 A 
HETATM   19  C15 UNK     1      15.803   8.450  32.490  1.00  0.00     0.116 A 
HETATM   20  N2  UNK     1      16.345   8.385  31.252  1.00  0.00    -0.272 NA
HETATM   21  C13 UNK     1      17.156   7.332  31.007  1.00  0.00     0.133 A 
ENDBRANCH  13  16
ENDBRANCH   4  12
TORSDOF 2
ENDMDL
MODEL 9
REMARK VINA RESULT:      -8.0     12.621     15.055
REMARK  2 active torsions:
REMARK  status: ('A' for Active; 'I' for Inactive)
REMARK    1  A    between atoms: C2_7  and  N1_4 
REMARK       I    between atoms: C8_13  and  N1_4 
REMARK    2  A    between atoms: C8_13  and  C9_14 
ROOT
HETATM    1  O1  UNK     1      18.663  -6.927  37.939  1.00  0.00    -0.275 OA
HETATM    2  O3  UNK     1      16.879  -6.451  36.586  1.00  0.00    -0.260 OA
HETATM    3  C1  UNK     1      20.765  -7.619  36.926  1.00  0.00     0.000 A 
HETATM    4  C2  UNK     1      22.644  -8.120  38.366  1.00  0.00     0.035 A 
HETATM    5  C3  UNK     1      20.009  -7.332  38.059  1.00  0.00     0.089 A 
HETATM    6  C4  UNK     1      22.096  -8.016  37.085  1.00  0.00     0.043 A 
HETATM    7  C5  UNK     1      21.870  -7.827  39.491  1.00  0.00     0.032 A 
HETATM    8  C6  UNK     1      20.543  -7.430  39.342  1.00  0.00     0.040 A 
HETATM    9  C7  UNK     1      20.144  -7.495  35.619  1.00  0.00     0.020 A 
HETATM   10  C10 UNK     1      18.870  -7.112  35.513  1.00  0.00     0.083 A 
HETATM   11  C11 UNK     1      18.048  -6.802  36.698  1.00  0.00     0.288 A 
ENDROOT
BRANCH   4  12
HETATM   12  N1  UNK     1      23.973  -8.517  38.523  1.00  0.00    -0.323 N 
HETATM   13  C8  UNK     1      25.101  -7.704  38.698  1.00  0.00     0.257 C 
HETATM   14  O2  UNK     1      25.125  -6.479  38.746  1.00  0.00    -0.267 OA
HETATM   15  H4  UNK     1      24.101  -9.524  38.543  1.00  0.00     0.169 HD
BRANCH  13  16
HETATM   16  C9  UNK     1      26.395  -8.427  38.810  1.00  0.00     0.049 A 
HETATM   17  C12 UNK     1      26.510  -9.493  39.668  1.00  0.00     0.020 A 
HETATM   18  C14 UNK     1      27.733 -10.149  39.750  1.00  0.00     0.020 A 
HETATM   19  C15 UNK     1      28.772  -9.689  38.957  1.00  0.00     0.116 A 
HETATM   20  N2  UNK     1      28.669  -8.641  38.108  1.00  0.00    -0.272 NA
HETATM   21  C13 UNK     1      27.465  -8.028  38.055  1.00  0.00     0.133 A 
ENDBRANCH  13  16
ENDBRANCH   4  12
TORSDOF 2
ENDMDL
MODEL 10
REMARK VINA RESULT:      -7.9     14.347     18.122
REMARK  2 active torsions:
REMARK  status: ('A' for Active; 'I' for Inactive)
REMARK    1  A    between atoms: C2_7  and  N1_4 
REMARK       I    between atoms: C8_13  and  N1_4 
REMARK    2  A    between atoms: C8_13  and  C9_14 
ROOT
HETATM    1  O1  UNK     1      18.632  -4.204  12.223  1.00  0.00    -0.275 OA
HETATM    2  O3  UNK     1      18.947  -4.423   9.965  1.00  0.00    -0.260 OA
HETATM    3  C1  UNK     1      19.168  -2.085  13.293  1.00  0.00     0.000 A 
HETATM    4  C2  UNK     1      18.831  -1.866  15.680  1.00  0.00     0.035 A 
HETATM    5  C3  UNK     1      18.708  -3.396  13.376  1.00  0.00     0.089 A 
HETATM    6  C4  UNK     1      19.228  -1.316  14.458  1.00  0.00     0.043 A 
HETATM    7  C5  UNK     1      18.372  -3.184  15.743  1.00  0.00     0.032 A 
HETATM    8  C6  UNK     1      18.308  -3.958  14.587  1.00  0.00     0.040 A 
HETATM    9  C7  UNK     1      19.568  -1.563  11.998  1.00  0.00     0.020 A 
HETATM   10  C10 UNK     1      19.494  -2.335  10.910  1.00  0.00     0.083 A 
HETATM   11  C11 UNK     1      19.009  -3.726  10.972  1.00  0.00     0.288 A 
ENDROOT
BRANCH   4  12
HETATM   12  N1  UNK     1      18.892  -1.096  16.841  1.00  0.00    -0.323 N 
HETATM   13  C8  UNK     1      19.068   0.290  16.949  1.00  0.00     0.257 C 
HETATM   14  O2  UNK     1      19.203   1.088  16.029  1.00  0.00    -0.267 OA
HETATM   15  H4  UNK     1      18.753  -1.629  17.695  1.00  0.00     0.169 HD
BRANCH  13  16
HETATM   16  C9  UNK     1      19.118   0.819  18.338  1.00  0.00     0.049 A 
HETATM   17  C12 UNK     1      19.177  -0.052  19.399  1.00  0.00     0.020 A 
HETATM   18  C14 UNK     1      19.224   0.473  20.685  1.00  0.00     0.020 A 
HETATM   19  C15 UNK     1      19.209   1.851  20.825  1.00  0.00     0.116 A 
HETATM   20  N2  UNK     1      19.151   2.717  19.788  1.00  0.00    -0.272 NA
HETATM   21  C13 UNK     1      19.107   2.170  18.552  1.00  0.00     0.133 A 
ENDBRANCH  13  16
ENDBRANCH   4  12
TORSDOF 2
ENDMDL
