MODEL 1
REMARK VINA RESULT:      -9.3      0.000      0.000
REMARK  6 active torsions:
REMARK  status: ('A' for Active; 'I' for Inactive)
REMARK    1  A    between atoms: C1_7  and  O1_4 
REMARK    2  A    between atoms: C4_10  and  O1_4 
REMARK    3  A    between atoms: C3_9  and  O2_5 
REMARK    4  A    between atoms: C2_8  and  C9_15 
REMARK    5  A    between atoms: C4_10  and  C8_14 
REMARK    6  A    between atoms: C10_16  and  C11_17 
ROOT
HETATM    1  N1  UNK     1      21.966  -1.715  35.335  1.00  0.00    -0.191 NA
HETATM    2  C9  UNK     1      18.667  -2.476  35.986  1.00  0.00     0.036 C 
HETATM    3  C10 UNK     1      19.892  -3.023  36.200  1.00  0.00     0.055 C 
HETATM    4  C23 UNK     1      21.034  -2.292  35.718  1.00  0.00     0.100 C 
ENDROOT
BRANCH   3   5
HETATM    5  C11 UNK     1      20.106  -4.287  36.888  1.00  0.00    -0.014 A 
HETATM    6  C16 UNK     1      21.293  -4.510  37.585  1.00  0.00     0.032 A 
HETATM    7  C19 UNK     1      21.496  -5.722  38.245  1.00  0.00     0.011 A 
HETATM    8 Br2  UNK     1      23.104  -6.027  39.192  1.00  0.00    -0.051 Br
HETATM    9  C21 UNK     1      20.513  -6.711  38.207  1.00  0.00     0.019 A 
HETATM   10  C20 UNK     1      19.326  -6.488  37.510  1.00  0.00     0.002 A 
HETATM   11  C17 UNK     1      19.123  -5.276  36.850  1.00  0.00     0.013 A 
ENDBRANCH   3   5
BRANCH   2  12
HETATM   12  C2  UNK     1      18.405  -1.201  35.302  1.00  0.00    -0.015 A 
HETATM   13  C5  UNK     1      18.612  -1.163  33.929  1.00  0.00     0.052 A 
HETATM   14  C3  UNK     1      18.380   0.021  33.229  1.00  0.00     0.102 A 
HETATM   15  C1  UNK     1      17.941   1.157  33.909  1.00  0.00     0.103 A 
HETATM   16  C6  UNK     1      17.735   1.110  35.288  1.00  0.00     0.059 A 
HETATM   17  C7  UNK     1      17.967  -0.074  35.987  1.00  0.00     0.024 A 
HETATM   18 Br1  UNK     1      17.668  -0.071  37.863  1.00  0.00    -0.050 Br
BRANCH  14  19
HETATM   19  O2  UNK     1      18.585   0.055  31.884  1.00  0.00    -0.353 OA
HETATM   20  C22 UNK     1      19.670  -0.717  31.373  1.00  0.00     0.210 C 
ENDBRANCH  14  19
BRANCH  15  21
HETATM   21  O1  UNK     1      17.710   2.319  33.237  1.00  0.00    -0.344 OA
BRANCH  21  22
HETATM   22  C4  UNK     1      18.385   3.485  33.706  1.00  0.00     0.216 C 
BRANCH  22  23
HETATM   23  C8  UNK     1      18.737   4.352  32.533  1.00  0.00    -0.012 A 
HETATM   24  C12 UNK     1      19.172   5.662  32.704  1.00  0.00     0.042 A 
HETATM   25 Cl1  UNK     1      19.332   6.363  34.273  1.00  0.00    -0.084 Cl
HETATM   26  C14 UNK     1      19.490   6.437  31.589  1.00  0.00     0.024 A 
HETATM   27  C18 UNK     1      19.372   5.899  30.308  1.00  0.00     0.002 A 
HETATM   28  C15 UNK     1      18.934   4.586  30.141  1.00  0.00     0.001 A 
HETATM   29  C13 UNK     1      18.616   3.810  31.256  1.00  0.00     0.011 A 
ENDBRANCH  22  23
ENDBRANCH  21  22
ENDBRANCH  15  21
ENDBRANCH   2  12
TORSDOF 6
ENDMDL
MODEL 2
REMARK VINA RESULT:      -9.0      6.201      8.518
REMARK  6 active torsions:
REMARK  status: ('A' for Active; 'I' for Inactive)
REMARK    1  A    between atoms: C1_7  and  O1_4 
REMARK    2  A    between atoms: C4_10  and  O1_4 
REMARK    3  A    between atoms: C3_9  and  O2_5 
REMARK    4  A    between atoms: C2_8  and  C9_15 
REMARK    5  A    between atoms: C4_10  and  C8_14 
REMARK    6  A    between atoms: C10_16  and  C11_17 
ROOT
HETATM    1  N1  UNK     1      17.915   2.529  33.753  1.00  0.00    -0.191 NA
HETATM    2  C9  UNK     1      18.514   4.453  30.956  1.00  0.00     0.036 C 
HETATM    3  C10 UNK     1      18.455   3.136  31.284  1.00  0.00     0.055 C 
HETATM    4  C23 UNK     1      18.156   2.810  32.653  1.00  0.00     0.100 C 
ENDROOT
BRANCH   3   5
HETATM    5  C11 UNK     1      18.668   2.055  30.333  1.00  0.00    -0.014 A 
HETATM    6  C16 UNK     1      19.445   0.954  30.691  1.00  0.00     0.032 A 
HETATM    7  C19 UNK     1      19.649  -0.082  29.779  1.00  0.00     0.011 A 
HETATM    8 Br2  UNK     1      20.701  -1.576  30.263  1.00  0.00    -0.051 Br
HETATM    9  C21 UNK     1      19.075  -0.015  28.510  1.00  0.00     0.019 A 
HETATM   10  C20 UNK     1      18.298   1.085  28.151  1.00  0.00     0.002 A 
HETATM   11  C17 UNK     1      18.095   2.121  29.063  1.00  0.00     0.013 A 
ENDBRANCH   3   5
BRANCH   2  12
HETATM   12  C2  UNK     1      18.299   5.577  31.880  1.00  0.00    -0.015 A 
HETATM   13  C5  UNK     1      16.988   5.857  32.244  1.00  0.00     0.052 A 
HETATM   14  C3  UNK     1      16.726   6.912  33.118  1.00  0.00     0.102 A 
HETATM   15  C1  UNK     1      17.778   7.677  33.623  1.00  0.00     0.103 A 
HETATM   16  C6  UNK     1      19.091   7.388  33.252  1.00  0.00     0.059 A 
HETATM   17  C7  UNK     1      19.353   6.333  32.378  1.00  0.00     0.024 A 
HETATM   18 Br1  UNK     1      21.164   5.992  31.914  1.00  0.00    -0.050 Br
BRANCH  14  19
HETATM   19  O2  UNK     1      15.440   7.185  33.472  1.00  0.00    -0.353 OA
HETATM   20  C22 UNK     1      14.505   7.387  32.414  1.00  0.00     0.210 C 
ENDBRANCH  14  19
BRANCH  15  21
HETATM   21  O1  UNK     1      17.535   8.709  34.478  1.00  0.00    -0.344 OA
BRANCH  21  22
HETATM   22  C4  UNK     1      17.627  10.029  33.944  1.00  0.00     0.216 C 
BRANCH  22  23
HETATM   23  C8  UNK     1      16.486  10.849  34.468  1.00  0.00    -0.012 A 
HETATM   24  C12 UNK     1      16.510  12.240  34.423  1.00  0.00     0.042 A 
HETATM   25 Cl1  UNK     1      17.854  13.098  33.762  1.00  0.00    -0.084 Cl
HETATM   26  C14 UNK     1      15.430  12.968  34.921  1.00  0.00     0.024 A 
HETATM   27  C18 UNK     1      14.329  12.304  35.461  1.00  0.00     0.002 A 
HETATM   28  C15 UNK     1      14.309  10.910  35.505  1.00  0.00     0.001 A 
HETATM   29  C13 UNK     1      15.390  10.181  35.008  1.00  0.00     0.011 A 
ENDBRANCH  22  23
ENDBRANCH  21  22
ENDBRANCH  15  21
ENDBRANCH   2  12
TORSDOF 6
ENDMDL
MODEL 3
REMARK VINA RESULT:      -8.8     12.076     14.054
REMARK  6 active torsions:
REMARK  status: ('A' for Active; 'I' for Inactive)
REMARK    1  A    between atoms: C1_7  and  O1_4 
REMARK    2  A    between atoms: C4_10  and  O1_4 
REMARK    3  A    between atoms: C3_9  and  O2_5 
REMARK    4  A    between atoms: C2_8  and  C9_15 
REMARK    5  A    between atoms: C4_10  and  C8_14 
REMARK    6  A    between atoms: C10_16  and  C11_17 
ROOT
HETATM    1  N1  UNK     1      27.461 -10.610  39.616  1.00  0.00    -0.191 NA
HETATM    2  C9  UNK     1      27.480  -8.927  36.607  1.00  0.00     0.036 C 
HETATM    3  C10 UNK     1      26.692  -9.819  37.262  1.00  0.00     0.055 C 
HETATM    4  C23 UNK     1      27.126 -10.251  38.564  1.00  0.00     0.100 C 
ENDROOT
BRANCH   3   5
HETATM    5  C11 UNK     1      25.447 -10.347  36.724  1.00  0.00    -0.014 A 
HETATM    6  C16 UNK     1      24.310  -9.540  36.677  1.00  0.00     0.032 A 
HETATM    7  C19 UNK     1      23.117 -10.046  36.162  1.00  0.00     0.011 A 
HETATM    8 Br2  UNK     1      21.575  -8.954  36.096  1.00  0.00    -0.051 Br
HETATM    9  C21 UNK     1      23.061 -11.358  35.693  1.00  0.00     0.019 A 
HETATM   10  C20 UNK     1      24.197 -12.165  35.740  1.00  0.00     0.002 A 
HETATM   11  C17 UNK     1      25.391 -11.659  36.256  1.00  0.00     0.013 A 
ENDBRANCH   3   5
BRANCH   2  12
HETATM   12  C2  UNK     1      28.741  -8.364  37.113  1.00  0.00    -0.015 A 
HETATM   13  C5  UNK     1      29.918  -8.982  36.712  1.00  0.00     0.052 A 
HETATM   14  C3  UNK     1      31.143  -8.490  37.162  1.00  0.00     0.102 A 
HETATM   15  C1  UNK     1      31.181  -7.383  38.010  1.00  0.00     0.103 A 
HETATM   16  C6  UNK     1      29.993  -6.768  38.407  1.00  0.00     0.059 A 
HETATM   17  C7  UNK     1      28.768  -7.260  37.957  1.00  0.00     0.024 A 
HETATM   18 Br1  UNK     1      27.189  -6.377  38.535  1.00  0.00    -0.050 Br
BRANCH  14  19
HETATM   19  O2  UNK     1      32.296  -9.099  36.768  1.00  0.00    -0.353 OA
HETATM   20  C22 UNK     1      32.607  -9.059  35.376  1.00  0.00     0.210 C 
ENDBRANCH  14  19
BRANCH  15  21
HETATM   21  O1  UNK     1      32.371  -6.893  38.456  1.00  0.00    -0.344 OA
BRANCH  21  22
HETATM   22  C4  UNK     1      32.609  -5.499  38.268  1.00  0.00     0.216 C 
BRANCH  22  23
HETATM   23  C8  UNK     1      33.397  -5.303  37.007  1.00  0.00    -0.012 A 
HETATM   24  C12 UNK     1      33.114  -4.261  36.128  1.00  0.00     0.042 A 
HETATM   25 Cl1  UNK     1      31.843  -3.137  36.441  1.00  0.00    -0.084 Cl
HETATM   26  C14 UNK     1      33.869  -4.112  34.965  1.00  0.00     0.024 A 
HETATM   27  C18 UNK     1      34.903  -5.004  34.684  1.00  0.00     0.002 A 
HETATM   28  C15 UNK     1      35.183  -6.047  35.567  1.00  0.00     0.001 A 
HETATM   29  C13 UNK     1      34.428  -6.197  36.731  1.00  0.00     0.011 A 
ENDBRANCH  22  23
ENDBRANCH  21  22
ENDBRANCH  15  21
ENDBRANCH   2  12
TORSDOF 6
ENDMDL
MODEL 4
REMARK VINA RESULT:      -8.8      1.665      2.103
REMARK  6 active torsions:
REMARK  status: ('A' for Active; 'I' for Inactive)
REMARK    1  A    between atoms: C1_7  and  O1_4 
REMARK    2  A    between atoms: C4_10  and  O1_4 
REMARK    3  A    between atoms: C3_9  and  O2_5 
REMARK    4  A    between atoms: C2_8  and  C9_15 
REMARK    5  A    between atoms: C4_10  and  C8_14 
REMARK    6  A    between atoms: C10_16  and  C11_17 
ROOT
HETATM    1  N1  UNK     1      21.971  -1.550  35.095  1.00  0.00    -0.191 NA
HETATM    2  C9  UNK     1      18.660  -2.156  35.839  1.00  0.00     0.036 C 
HETATM    3  C10 UNK     1      19.860  -2.777  35.985  1.00  0.00     0.055 C 
HETATM    4  C23 UNK     1      21.023  -2.090  35.489  1.00  0.00     0.100 C 
ENDROOT
BRANCH   3   5
HETATM    5  C11 UNK     1      20.026  -4.079  36.614  1.00  0.00    -0.014 A 
HETATM    6  C16 UNK     1      19.264  -5.165  36.183  1.00  0.00     0.032 A 
HETATM    7  C19 UNK     1      19.425  -6.412  36.787  1.00  0.00     0.011 A 
HETATM    8 Br2  UNK     1      18.394  -7.886  36.203  1.00  0.00    -0.051 Br
HETATM    9  C21 UNK     1      20.347  -6.573  37.821  1.00  0.00     0.019 A 
HETATM   10  C20 UNK     1      21.108  -5.487  38.252  1.00  0.00     0.002 A 
HETATM   11  C17 UNK     1      20.948  -4.240  37.648  1.00  0.00     0.013 A 
ENDBRANCH   3   5
BRANCH   2  12
HETATM   12  C2  UNK     1      18.446  -0.841  35.217  1.00  0.00    -0.015 A 
HETATM   13  C5  UNK     1      18.606  -0.757  33.840  1.00  0.00     0.052 A 
HETATM   14  C3  UNK     1      18.416   0.466  33.197  1.00  0.00     0.102 A 
HETATM   15  C1  UNK     1      18.066   1.595  33.937  1.00  0.00     0.103 A 
HETATM   16  C6  UNK     1      17.906   1.501  35.320  1.00  0.00     0.059 A 
HETATM   17  C7  UNK     1      18.097   0.278  35.962  1.00  0.00     0.024 A 
HETATM   18 Br1  UNK     1      17.864   0.219  37.847  1.00  0.00    -0.050 Br
BRANCH  14  19
HETATM   19  O2  UNK     1      18.574   0.545  31.847  1.00  0.00    -0.353 OA
HETATM   20  C22 UNK     1      19.578  -0.283  31.262  1.00  0.00     0.210 C 
ENDBRANCH  14  19
BRANCH  15  21
HETATM   21  O1  UNK     1      17.876   2.795  33.321  1.00  0.00    -0.344 OA
BRANCH  21  22
HETATM   22  C4  UNK     1      18.572   3.918  33.859  1.00  0.00     0.216 C 
BRANCH  22  23
HETATM   23  C8  UNK     1      18.104   5.162  33.165  1.00  0.00    -0.012 A 
HETATM   24  C12 UNK     1      18.304   5.351  31.800  1.00  0.00     0.042 A 
HETATM   25 Cl1  UNK     1      19.100   4.165  30.832  1.00  0.00    -0.084 Cl
HETATM   26  C14 UNK     1      17.855   6.523  31.191  1.00  0.00     0.024 A 
HETATM   27  C18 UNK     1      17.208   7.500  31.947  1.00  0.00     0.002 A 
HETATM   28  C15 UNK     1      17.011   7.306  33.313  1.00  0.00     0.001 A 
HETATM   29  C13 UNK     1      17.460   6.135  33.924  1.00  0.00     0.011 A 
ENDBRANCH  22  23
ENDBRANCH  21  22
ENDBRANCH  15  21
ENDBRANCH   2  12
TORSDOF 6
ENDMDL
MODEL 5
REMARK VINA RESULT:      -8.4     26.390     28.743
REMARK  6 active torsions:
REMARK  status: ('A' for Active; 'I' for Inactive)
REMARK    1  A    between atoms: C1_7  and  O1_4 
REMARK    2  A    between atoms: C4_10  and  O1_4 
REMARK    3  A    between atoms: C3_9  and  O2_5 
REMARK    4  A    between atoms: C2_8  and  C9_15 
REMARK    5  A    between atoms: C4_10  and  C8_14 
REMARK    6  A    between atoms: C10_16  and  C11_17 
ROOT
HETATM    1  N1  UNK     1      16.551  12.340  11.508  1.00  0.00    -0.191 NA
HETATM    2  C9  UNK     1      17.836  10.153   9.172  1.00  0.00     0.036 C 
HETATM    3  C10 UNK     1      18.250  11.238   9.879  1.00  0.00     0.055 C 
HETATM    4  C23 UNK     1      17.303  11.841  10.778  1.00  0.00     0.100 C 
ENDROOT
BRANCH   3   5
HETATM    5  C11 UNK     1      19.586  11.807   9.778  1.00  0.00    -0.014 A 
HETATM    6  C16 UNK     1      20.017  12.367   8.576  1.00  0.00     0.032 A 
HETATM    7  C19 UNK     1      21.298  12.912   8.482  1.00  0.00     0.011 A 
HETATM    8 Br2  UNK     1      21.885  13.673   6.854  1.00  0.00    -0.051 Br
HETATM    9  C21 UNK     1      22.146  12.896   9.588  1.00  0.00     0.019 A 
HETATM   10  C20 UNK     1      21.716  12.335  10.790  1.00  0.00     0.002 A 
HETATM   11  C17 UNK     1      20.435  11.790  10.885  1.00  0.00     0.013 A 
ENDBRANCH   3   5
BRANCH   2  12
HETATM   12  C2  UNK     1      16.500   9.542   9.247  1.00  0.00    -0.015 A 
HETATM   13  C5  UNK     1      16.369   8.398  10.023  1.00  0.00     0.052 A 
HETATM   14  C3  UNK     1      15.125   7.776  10.130  1.00  0.00     0.102 A 
HETATM   15  C1  UNK     1      14.022   8.304   9.459  1.00  0.00     0.103 A 
HETATM   16  C6  UNK     1      14.163   9.454   8.681  1.00  0.00     0.059 A 
HETATM   17  C7  UNK     1      15.407  10.076   8.575  1.00  0.00     0.024 A 
HETATM   18 Br1  UNK     1      15.531  11.638   7.501  1.00  0.00    -0.050 Br
BRANCH  14  19
HETATM   19  O2  UNK     1      14.999   6.654  10.891  1.00  0.00    -0.353 OA
HETATM   20  C22 UNK     1      15.263   5.405  10.255  1.00  0.00     0.210 C 
ENDBRANCH  14  19
BRANCH  15  21
HETATM   21  O1  UNK     1      12.802   7.707   9.555  1.00  0.00    -0.344 OA
BRANCH  21  22
HETATM   22  C4  UNK     1      11.682   8.435   9.054  1.00  0.00     0.216 C 
BRANCH  22  23
HETATM   23  C8  UNK     1      10.957   7.589   8.051  1.00  0.00    -0.012 A 
HETATM   24  C12 UNK     1       9.605   7.290   8.194  1.00  0.00     0.042 A 
HETATM   25 Cl1  UNK     1       8.688   7.877   9.533  1.00  0.00    -0.084 Cl
HETATM   26  C14 UNK     1       8.965   6.499   7.239  1.00  0.00     0.024 A 
HETATM   27  C18 UNK     1       9.679   6.010   6.146  1.00  0.00     0.002 A 
HETATM   28  C15 UNK     1      11.034   6.312   6.007  1.00  0.00     0.001 A 
HETATM   29  C13 UNK     1      11.674   7.102   6.961  1.00  0.00     0.011 A 
ENDBRANCH  22  23
ENDBRANCH  21  22
ENDBRANCH  15  21
ENDBRANCH   2  12
TORSDOF 6
ENDMDL
MODEL 6
REMARK VINA RESULT:      -8.3     26.744     28.572
REMARK  6 active torsions:
REMARK  status: ('A' for Active; 'I' for Inactive)
REMARK    1  A    between atoms: C1_7  and  O1_4 
REMARK    2  A    between atoms: C4_10  and  O1_4 
REMARK    3  A    between atoms: C3_9  and  O2_5 
REMARK    4  A    between atoms: C2_8  and  C9_15 
REMARK    5  A    between atoms: C4_10  and  C8_14 
REMARK    6  A    between atoms: C10_16  and  C11_17 
ROOT
HETATM    1  N1  UNK     1      15.921  11.732   7.365  1.00  0.00    -0.191 NA
HETATM    2  C9  UNK     1      17.139   9.950  10.054  1.00  0.00     0.036 C 
HETATM    3  C10 UNK     1      17.582  10.890   9.179  1.00  0.00     0.055 C 
HETATM    4  C23 UNK     1      16.655  11.349   8.178  1.00  0.00     0.100 C 
ENDROOT
BRANCH   3   5
HETATM    5  C11 UNK     1      18.925  11.452   9.206  1.00  0.00    -0.014 A 
HETATM    6  C16 UNK     1      19.568  11.662  10.425  1.00  0.00     0.032 A 
HETATM    7  C19 UNK     1      20.855  12.201  10.449  1.00  0.00     0.011 A 
HETATM    8 Br2  UNK     1      21.730  12.486  12.100  1.00  0.00    -0.051 Br
HETATM    9  C21 UNK     1      21.496  12.529   9.255  1.00  0.00     0.019 A 
HETATM   10  C20 UNK     1      20.853  12.319   8.036  1.00  0.00     0.002 A 
HETATM   11  C17 UNK     1      19.566  11.780   8.012  1.00  0.00     0.013 A 
ENDBRANCH   3   5
BRANCH   2  12
HETATM   12  C2  UNK     1      15.792   9.361  10.068  1.00  0.00    -0.015 A 
HETATM   13  C5  UNK     1      15.636   8.121   9.460  1.00  0.00     0.052 A 
HETATM   14  C3  UNK     1      14.380   7.515   9.444  1.00  0.00     0.102 A 
HETATM   15  C1  UNK     1      13.290   8.153  10.036  1.00  0.00     0.103 A 
HETATM   16  C6  UNK     1      13.456   9.397  10.645  1.00  0.00     0.059 A 
HETATM   17  C7  UNK     1      14.712  10.003  10.661  1.00  0.00     0.024 A 
HETATM   18 Br1  UNK     1      14.870  11.698  11.506  1.00  0.00    -0.050 Br
BRANCH  14  19
HETATM   19  O2  UNK     1      14.230   6.300   8.847  1.00  0.00    -0.353 OA
HETATM   20  C22 UNK     1      14.687   5.160   9.572  1.00  0.00     0.210 C 
ENDBRANCH  14  19
BRANCH  15  21
HETATM   21  O1  UNK     1      12.058   7.571  10.027  1.00  0.00    -0.344 OA
BRANCH  21  22
HETATM   22  C4  UNK     1      11.005   8.291   9.389  1.00  0.00     0.216 C 
BRANCH  22  23
HETATM   23  C8  UNK     1      10.501   7.490   8.225  1.00  0.00    -0.012 A 
HETATM   24  C12 UNK     1       9.222   6.939   8.223  1.00  0.00     0.042 A 
HETATM   25 Cl1  UNK     1       8.148   7.146   9.558  1.00  0.00    -0.084 Cl
HETATM   26  C14 UNK     1       8.789   6.201   7.122  1.00  0.00     0.024 A 
HETATM   27  C18 UNK     1       9.634   6.017   6.028  1.00  0.00     0.002 A 
HETATM   28  C15 UNK     1      10.914   6.570   6.035  1.00  0.00     0.001 A 
HETATM   29  C13 UNK     1      11.348   7.308   7.136  1.00  0.00     0.011 A 
ENDBRANCH  22  23
ENDBRANCH  21  22
ENDBRANCH  15  21
ENDBRANCH   2  12
TORSDOF 6
ENDMDL
MODEL 7
REMARK VINA RESULT:      -8.3     11.606     14.099
REMARK  6 active torsions:
REMARK  status: ('A' for Active; 'I' for Inactive)
REMARK    1  A    between atoms: C1_7  and  O1_4 
REMARK    2  A    between atoms: C4_10  and  O1_4 
REMARK    3  A    between atoms: C3_9  and  O2_5 
REMARK    4  A    between atoms: C2_8  and  C9_15 
REMARK    5  A    between atoms: C4_10  and  C8_14 
REMARK    6  A    between atoms: C10_16  and  C11_17 
ROOT
HETATM    1  N1  UNK     1      27.513 -10.321  39.526  1.00  0.00    -0.191 NA
HETATM    2  C9  UNK     1      27.446  -8.838  36.414  1.00  0.00     0.036 C 
HETATM    3  C10 UNK     1      26.689  -9.703  37.139  1.00  0.00     0.055 C 
HETATM    4  C23 UNK     1      27.153 -10.039  38.459  1.00  0.00     0.100 C 
ENDROOT
BRANCH   3   5
HETATM    5  C11 UNK     1      25.448 -10.291  36.658  1.00  0.00    -0.014 A 
HETATM    6  C16 UNK     1      24.287  -9.522  36.603  1.00  0.00     0.032 A 
HETATM    7  C19 UNK     1      23.098 -10.087  36.142  1.00  0.00     0.011 A 
HETATM    8 Br2  UNK     1      21.522  -9.046  36.065  1.00  0.00    -0.051 Br
HETATM    9  C21 UNK     1      23.071 -11.421  35.736  1.00  0.00     0.019 A 
HETATM   10  C20 UNK     1      24.232 -12.191  35.791  1.00  0.00     0.002 A 
HETATM   11  C17 UNK     1      25.421 -11.626  36.253  1.00  0.00     0.013 A 
ENDBRANCH   3   5
BRANCH   2  12
HETATM   12  C2  UNK     1      28.701  -8.215  36.862  1.00  0.00    -0.015 A 
HETATM   13  C5  UNK     1      28.600  -7.158  37.758  1.00  0.00     0.052 A 
HETATM   14  C3  UNK     1      29.758  -6.529  38.216  1.00  0.00     0.102 A 
HETATM   15  C1  UNK     1      31.008  -6.964  37.774  1.00  0.00     0.103 A 
HETATM   16  C6  UNK     1      31.099  -8.027  36.875  1.00  0.00     0.059 A 
HETATM   17  C7  UNK     1      29.941  -8.655  36.417  1.00  0.00     0.024 A 
HETATM   18 Br1  UNK     1      30.136 -10.096  35.194  1.00  0.00    -0.050 Br
BRANCH  14  19
HETATM   19  O2  UNK     1      29.656  -5.493  39.093  1.00  0.00    -0.353 OA
HETATM   20  C22 UNK     1      28.780  -4.425  38.736  1.00  0.00     0.210 C 
ENDBRANCH  14  19
BRANCH  15  21
HETATM   21  O1  UNK     1      32.146  -6.359  38.214  1.00  0.00    -0.344 OA
BRANCH  21  22
HETATM   22  C4  UNK     1      32.553  -5.171  37.538  1.00  0.00     0.216 C 
BRANCH  22  23
HETATM   23  C8  UNK     1      33.520  -5.534  36.450  1.00  0.00    -0.012 A 
HETATM   24  C12 UNK     1      33.139  -5.536  35.112  1.00  0.00     0.042 A 
HETATM   25 Cl1  UNK     1      31.535  -5.121  34.628  1.00  0.00    -0.084 Cl
HETATM   26  C14 UNK     1      34.068  -5.880  34.129  1.00  0.00     0.024 A 
HETATM   27  C18 UNK     1      35.372  -6.219  34.488  1.00  0.00     0.002 A 
HETATM   28  C15 UNK     1      35.748  -6.216  35.830  1.00  0.00     0.001 A 
HETATM   29  C13 UNK     1      34.820  -5.874  36.814  1.00  0.00     0.011 A 
ENDBRANCH  22  23
ENDBRANCH  21  22
ENDBRANCH  15  21
ENDBRANCH   2  12
TORSDOF 6
ENDMDL
MODEL 8
REMARK VINA RESULT:      -8.2      9.546     13.195
REMARK  6 active torsions:
REMARK  status: ('A' for Active; 'I' for Inactive)
REMARK    1  A    between atoms: C1_7  and  O1_4 
REMARK    2  A    between atoms: C4_10  and  O1_4 
REMARK    3  A    between atoms: C3_9  and  O2_5 
REMARK    4  A    between atoms: C2_8  and  C9_15 
REMARK    5  A    between atoms: C4_10  and  C8_14 
REMARK    6  A    between atoms: C10_16  and  C11_17 
ROOT
HETATM    1  N1  UNK     1      29.209  -6.279  34.896  1.00  0.00    -0.191 NA
HETATM    2  C9  UNK     1      30.109  -7.009  38.143  1.00  0.00     0.036 C 
HETATM    3  C10 UNK     1      30.714  -6.633  36.986  1.00  0.00     0.055 C 
HETATM    4  C23 UNK     1      29.873  -6.439  35.835  1.00  0.00     0.100 C 
ENDROOT
BRANCH   3   5
HETATM    5  C11 UNK     1      32.147  -6.411  36.856  1.00  0.00    -0.014 A 
HETATM    6  C16 UNK     1      32.628  -5.482  35.935  1.00  0.00     0.032 A 
HETATM    7  C19 UNK     1      34.002  -5.271  35.812  1.00  0.00     0.011 A 
HETATM    8 Br2  UNK     1      34.658  -4.011  34.565  1.00  0.00    -0.051 Br
HETATM    9  C21 UNK     1      34.892  -5.989  36.610  1.00  0.00     0.019 A 
HETATM   10  C20 UNK     1      34.410  -6.919  37.531  1.00  0.00     0.002 A 
HETATM   11  C17 UNK     1      33.037  -7.130  37.654  1.00  0.00     0.013 A 
ENDBRANCH   3   5
BRANCH   2  12
HETATM   12  C2  UNK     1      28.667  -7.237  38.321  1.00  0.00    -0.015 A 
HETATM   13  C5  UNK     1      28.197  -8.526  38.103  1.00  0.00     0.052 A 
HETATM   14  C3  UNK     1      26.838  -8.799  38.258  1.00  0.00     0.102 A 
HETATM   15  C1  UNK     1      25.960  -7.781  38.630  1.00  0.00     0.103 A 
HETATM   16  C6  UNK     1      26.441  -6.490  38.847  1.00  0.00     0.059 A 
HETATM   17  C7  UNK     1      27.800  -6.216  38.693  1.00  0.00     0.024 A 
HETATM   18 Br1  UNK     1      28.389  -4.437  39.003  1.00  0.00    -0.050 Br
BRANCH  14  19
HETATM   19  O2  UNK     1      26.381 -10.064  38.043  1.00  0.00    -0.353 OA
HETATM   20  C22 UNK     1      26.157 -10.451  36.689  1.00  0.00     0.210 C 
ENDBRANCH  14  19
BRANCH  15  21
HETATM   21  O1  UNK     1      24.631  -8.035  38.784  1.00  0.00    -0.344 OA
BRANCH  21  22
HETATM   22  C4  UNK     1      23.790  -6.926  39.094  1.00  0.00     0.216 C 
BRANCH  22  23
HETATM   23  C8  UNK     1      22.360  -7.380  39.090  1.00  0.00    -0.012 A 
HETATM   24  C12 UNK     1      21.341  -6.563  38.610  1.00  0.00     0.042 A 
HETATM   25 Cl1  UNK     1      21.664  -4.984  37.992  1.00  0.00    -0.084 Cl
HETATM   26  C14 UNK     1      20.023  -7.020  38.624  1.00  0.00     0.024 A 
HETATM   27  C18 UNK     1      19.730  -8.291  39.117  1.00  0.00     0.002 A 
HETATM   28  C15 UNK     1      20.755  -9.106  39.597  1.00  0.00     0.001 A 
HETATM   29  C13 UNK     1      22.073  -8.649  39.584  1.00  0.00     0.011 A 
ENDBRANCH  22  23
ENDBRANCH  21  22
ENDBRANCH  15  21
ENDBRANCH   2  12
TORSDOF 6
ENDMDL
MODEL 9
REMARK VINA RESULT:      -8.2     10.916     12.905
REMARK  6 active torsions:
REMARK  status: ('A' for Active; 'I' for Inactive)
REMARK    1  A    between atoms: C1_7  and  O1_4 
REMARK    2  A    between atoms: C4_10  and  O1_4 
REMARK    3  A    between atoms: C3_9  and  O2_5 
REMARK    4  A    between atoms: C2_8  and  C9_15 
REMARK    5  A    between atoms: C4_10  and  C8_14 
REMARK    6  A    between atoms: C10_16  and  C11_17 
ROOT
HETATM    1  N1  UNK     1      25.436  -6.845  38.621  1.00  0.00    -0.191 NA
HETATM    2  C9  UNK     1      26.091  -9.694  36.792  1.00  0.00     0.036 C 
HETATM    3  C10 UNK     1      25.008  -9.012  37.250  1.00  0.00     0.055 C 
HETATM    4  C23 UNK     1      25.255  -7.814  38.008  1.00  0.00     0.100 C 
ENDROOT
BRANCH   3   5
HETATM    5  C11 UNK     1      23.632  -9.422  37.009  1.00  0.00    -0.014 A 
HETATM    6  C16 UNK     1      22.586  -8.772  37.663  1.00  0.00     0.032 A 
HETATM    7  C19 UNK     1      21.268  -9.165  37.431  1.00  0.00     0.011 A 
HETATM    8 Br2  UNK     1      19.848  -8.285  38.316  1.00  0.00    -0.051 Br
HETATM    9  C21 UNK     1      20.997 -10.208  36.546  1.00  0.00     0.019 A 
HETATM   10  C20 UNK     1      22.043 -10.858  35.892  1.00  0.00     0.002 A 
HETATM   11  C17 UNK     1      23.361 -10.465  36.124  1.00  0.00     0.013 A 
ENDBRANCH   3   5
BRANCH   2  12
HETATM   12  C2  UNK     1      27.495  -9.314  37.006  1.00  0.00    -0.015 A 
HETATM   13  C5  UNK     1      28.158  -8.713  35.943  1.00  0.00     0.052 A 
HETATM   14  C3  UNK     1      29.492  -8.332  36.090  1.00  0.00     0.102 A 
HETATM   15  C1  UNK     1      30.152  -8.555  37.299  1.00  0.00     0.103 A 
HETATM   16  C6  UNK     1      29.478  -9.158  38.361  1.00  0.00     0.059 A 
HETATM   17  C7  UNK     1      28.144  -9.539  38.214  1.00  0.00     0.024 A 
HETATM   18 Br1  UNK     1      27.285 -10.356  39.698  1.00  0.00    -0.050 Br
BRANCH  14  19
HETATM   19  O2  UNK     1      30.140  -7.744  35.046  1.00  0.00    -0.353 OA
HETATM   20  C22 UNK     1      29.758  -6.410  34.715  1.00  0.00     0.210 C 
ENDBRANCH  14  19
BRANCH  15  21
HETATM   21  O1  UNK     1      31.454  -8.187  37.455  1.00  0.00    -0.344 OA
BRANCH  21  22
HETATM   22  C4  UNK     1      31.738  -7.220  38.464  1.00  0.00     0.216 C 
BRANCH  22  23
HETATM   23  C8  UNK     1      31.617  -5.847  37.874  1.00  0.00    -0.012 A 
HETATM   24  C12 UNK     1      30.509  -5.043  38.127  1.00  0.00     0.042 A 
HETATM   25 Cl1  UNK     1      29.215  -5.581  39.134  1.00  0.00    -0.084 Cl
HETATM   26  C14 UNK     1      30.432  -3.771  37.559  1.00  0.00     0.024 A 
HETATM   27  C18 UNK     1      31.463  -3.308  36.742  1.00  0.00     0.002 A 
HETATM   28  C15 UNK     1      32.570  -4.117  36.490  1.00  0.00     0.001 A 
HETATM   29  C13 UNK     1      32.648  -5.389  37.057  1.00  0.00     0.011 A 
ENDBRANCH  22  23
ENDBRANCH  21  22
ENDBRANCH  15  21
ENDBRANCH   2  12
TORSDOF 6
ENDMDL
MODEL 10
REMARK VINA RESULT:      -8.2     26.463     28.346
REMARK  6 active torsions:
REMARK  status: ('A' for Active; 'I' for Inactive)
REMARK    1  A    between atoms: C1_7  and  O1_4 
REMARK    2  A    between atoms: C4_10  and  O1_4 
REMARK    3  A    between atoms: C3_9  and  O2_5 
REMARK    4  A    between atoms: C2_8  and  C9_15 
REMARK    5  A    between atoms: C4_10  and  C8_14 
REMARK    6  A    between atoms: C10_16  and  C11_17 
ROOT
HETATM    1  N1  UNK     1      15.457  11.028   7.514  1.00  0.00    -0.191 NA
HETATM    2  C9  UNK     1      16.867   9.553  10.293  1.00  0.00     0.036 C 
HETATM    3  C10 UNK     1      17.163  10.548   9.416  1.00  0.00     0.055 C 
HETATM    4  C23 UNK     1      16.213  10.806   8.366  1.00  0.00     0.100 C 
ENDROOT
BRANCH   3   5
HETATM    5  C11 UNK     1      18.370  11.358   9.488  1.00  0.00    -0.014 A 
HETATM    6  C16 UNK     1      18.803  11.856  10.716  1.00  0.00     0.032 A 
HETATM    7  C19 UNK     1      19.960  12.632  10.784  1.00  0.00     0.011 A 
HETATM    8 Br2  UNK     1      20.551  13.307  12.448  1.00  0.00    -0.051 Br
HETATM    9  C21 UNK     1      20.683  12.910   9.624  1.00  0.00     0.019 A 
HETATM   10  C20 UNK     1      20.249  12.413   8.395  1.00  0.00     0.002 A 
HETATM   11  C17 UNK     1      19.092  11.637   8.327  1.00  0.00     0.013 A 
ENDBRANCH   3   5
BRANCH   2  12
HETATM   12  C2  UNK     1      15.659   8.715  10.262  1.00  0.00    -0.015 A 
HETATM   13  C5  UNK     1      14.464   9.311  10.644  1.00  0.00     0.052 A 
HETATM   14  C3  UNK     1      13.287   8.563  10.633  1.00  0.00     0.102 A 
HETATM   15  C1  UNK     1      13.314   7.225  10.241  1.00  0.00     0.103 A 
HETATM   16  C6  UNK     1      14.519   6.634   9.859  1.00  0.00     0.059 A 
HETATM   17  C7  UNK     1      15.697   7.383   9.869  1.00  0.00     0.024 A 
HETATM   18 Br1  UNK     1      17.303   6.519   9.337  1.00  0.00    -0.050 Br
BRANCH  14  19
HETATM   19  O2  UNK     1      12.117   9.150  11.009  1.00  0.00    -0.353 OA
HETATM   20  C22 UNK     1      12.128   9.901  12.221  1.00  0.00     0.210 C 
ENDBRANCH  14  19
BRANCH  15  21
HETATM   21  O1  UNK     1      12.172   6.484  10.227  1.00  0.00    -0.344 OA
BRANCH  21  22
HETATM   22  C4  UNK     1      12.130   5.373   9.333  1.00  0.00     0.216 C 
BRANCH  22  23
HETATM   23  C8  UNK     1      11.300   5.739   8.137  1.00  0.00    -0.012 A 
HETATM   24  C12 UNK     1       9.910   5.734   8.190  1.00  0.00     0.042 A 
HETATM   25 Cl1  UNK     1       9.062   5.310   9.632  1.00  0.00    -0.084 Cl
HETATM   26  C14 UNK     1       9.173   6.079   7.057  1.00  0.00     0.024 A 
HETATM   27  C18 UNK     1       9.829   6.428   5.877  1.00  0.00     0.002 A 
HETATM   28  C15 UNK     1      11.222   6.430   5.829  1.00  0.00     0.001 A 
HETATM   29  C13 UNK     1      11.960   6.084   6.961  1.00  0.00     0.011 A 
ENDBRANCH  22  23
ENDBRANCH  21  22
ENDBRANCH  15  21
ENDBRANCH   2  12
TORSDOF 6
ENDMDL
