MODEL 1
REMARK VINA RESULT:      -7.5      0.000      0.000
REMARK  2 active torsions:
REMARK  status: ('A' for Active; 'I' for Inactive)
REMARK    1  A    between atoms: C1_5  and  C4_8 
REMARK    2  A    between atoms: C2_6  and  C6_10 
ROOT
HETATM    1  O1  UNK     1      34.663  -7.303  32.556  1.00  0.00    -0.274 OA
HETATM    2  O2  UNK     1      34.175  -8.675  30.811  1.00  0.00    -0.259 OA
HETATM    3  C1  UNK     1      31.879  -6.791  32.841  1.00  0.00     0.004 A 
HETATM    4  C2  UNK     1      32.324  -7.626  31.870  1.00  0.00     0.063 A 
HETATM    5  C3  UNK     1      32.873  -6.161  33.738  1.00  0.00     0.010 A 
HETATM    6  C5  UNK     1      34.225  -6.437  33.567  1.00  0.00     0.090 A 
HETATM    7  C7  UNK     1      33.776  -7.918  31.690  1.00  0.00     0.300 A 
HETATM    8  C8  UNK     1      32.515  -5.284  34.773  1.00  0.00     0.015 A 
HETATM    9  C9  UNK     1      35.210  -5.874  34.382  1.00  0.00     0.038 A 
HETATM   10  C14 UNK     1      33.489  -4.712  35.599  1.00  0.00     0.001 A 
HETATM   11  C15 UNK     1      34.836  -5.007  35.403  1.00  0.00     0.003 A 
ENDROOT
BRANCH   4  12
HETATM   12  C6  UNK     1      31.387  -8.278  30.953  1.00  0.00     0.003 A 
HETATM   13  C12 UNK     1      31.066  -7.730  29.715  1.00  0.00     0.046 A 
HETATM   14  C18 UNK     1      30.167  -8.392  28.877  1.00  0.00     0.048 A 
HETATM   15 Cl1  UNK     1      31.746  -6.239  29.166  1.00  0.00    -0.083 Cl
HETATM   16  C21 UNK     1      29.595  -9.597  29.281  1.00  0.00     0.035 A 
HETATM   17  C19 UNK     1      29.919 -10.142  30.523  1.00  0.00     0.025 A 
HETATM   18 Cl2  UNK     1      28.487 -10.414  28.247  1.00  0.00    -0.084 Cl
HETATM   19  C13 UNK     1      30.818  -9.481  31.361  1.00  0.00     0.016 A 
ENDBRANCH   4  12
BRANCH   3  20
HETATM   20  C4  UNK     1      30.435  -6.557  32.950  1.00  0.00    -0.024 A 
HETATM   21  C10 UNK     1      29.687  -7.300  33.855  1.00  0.00     0.012 A 
HETATM   22  C16 UNK     1      28.315  -7.077  33.959  1.00  0.00     0.001 A 
HETATM   23  C20 UNK     1      27.702  -6.114  33.158  1.00  0.00     0.000 A 
HETATM   24  C17 UNK     1      28.462  -5.373  32.253  1.00  0.00     0.001 A 
HETATM   25  C11 UNK     1      29.834  -5.595  32.149  1.00  0.00     0.012 A 
ENDBRANCH   3  20
TORSDOF 2
ENDMDL
MODEL 2
REMARK VINA RESULT:      -7.4      3.522      5.956
REMARK  2 active torsions:
REMARK  status: ('A' for Active; 'I' for Inactive)
REMARK    1  A    between atoms: C1_5  and  C4_8 
REMARK    2  A    between atoms: C2_6  and  C6_10 
ROOT
HETATM    1  O1  UNK     1      35.503  -6.450  34.463  1.00  0.00    -0.274 OA
HETATM    2  O2  UNK     1      35.124  -5.481  36.484  1.00  0.00    -0.259 OA
HETATM    3  C1  UNK     1      32.687  -6.698  34.133  1.00  0.00     0.004 A 
HETATM    4  C2  UNK     1      33.196  -6.137  35.257  1.00  0.00     0.063 A 
HETATM    5  C3  UNK     1      33.629  -7.172  33.095  1.00  0.00     0.010 A 
HETATM    6  C5  UNK     1      34.997  -7.033  33.293  1.00  0.00     0.090 A 
HETATM    7  C7  UNK     1      34.666  -5.990  35.465  1.00  0.00     0.300 A 
HETATM    8  C8  UNK     1      33.203  -7.766  31.896  1.00  0.00     0.015 A 
HETATM    9  C9  UNK     1      35.935  -7.460  32.350  1.00  0.00     0.038 A 
HETATM   10  C14 UNK     1      34.129  -8.199  30.941  1.00  0.00     0.001 A 
HETATM   11  C15 UNK     1      35.495  -8.046  31.168  1.00  0.00     0.003 A 
ENDROOT
BRANCH   4  12
HETATM   12  C6  UNK     1      32.313  -5.649  36.319  1.00  0.00     0.003 A 
HETATM   13  C12 UNK     1      31.967  -6.440  37.410  1.00  0.00     0.046 A 
HETATM   14  C18 UNK     1      31.123  -5.928  38.396  1.00  0.00     0.048 A 
HETATM   15 Cl1  UNK     1      32.550  -8.057  37.596  1.00  0.00    -0.083 Cl
HETATM   16  C21 UNK     1      30.629  -4.628  38.286  1.00  0.00     0.035 A 
HETATM   17  C19 UNK     1      30.978  -3.840  37.190  1.00  0.00     0.025 A 
HETATM   18 Cl2  UNK     1      29.588  -3.996  39.502  1.00  0.00    -0.084 Cl
HETATM   19  C13 UNK     1      31.823  -4.352  36.203  1.00  0.00     0.016 A 
ENDBRANCH   4  12
BRANCH   3  20
HETATM   20  C4  UNK     1      31.229  -6.805  34.007  1.00  0.00    -0.024 A 
HETATM   21  C10 UNK     1      30.530  -5.831  33.306  1.00  0.00     0.012 A 
HETATM   22  C16 UNK     1      29.145  -5.932  33.185  1.00  0.00     0.001 A 
HETATM   23  C20 UNK     1      28.471  -7.007  33.766  1.00  0.00     0.000 A 
HETATM   24  C17 UNK     1      29.183  -7.980  34.466  1.00  0.00     0.001 A 
HETATM   25  C11 UNK     1      30.568  -7.879  34.587  1.00  0.00     0.012 A 
ENDBRANCH   3  20
TORSDOF 2
ENDMDL
MODEL 3
REMARK VINA RESULT:      -7.3      3.789      5.697
REMARK  2 active torsions:
REMARK  status: ('A' for Active; 'I' for Inactive)
REMARK    1  A    between atoms: C1_5  and  C4_8 
REMARK    2  A    between atoms: C2_6  and  C6_10 
ROOT
HETATM    1  O1  UNK     1      35.326  -6.401  36.428  1.00  0.00    -0.274 OA
HETATM    2  O2  UNK     1      34.053  -5.823  38.220  1.00  0.00    -0.259 OA
HETATM    3  C1  UNK     1      32.949  -6.529  34.869  1.00  0.00     0.004 A 
HETATM    4  C2  UNK     1      32.888  -6.199  36.182  1.00  0.00     0.063 A 
HETATM    5  C3  UNK     1      34.275  -6.817  34.278  1.00  0.00     0.010 A 
HETATM    6  C5  UNK     1      35.412  -6.744  35.072  1.00  0.00     0.090 A 
HETATM    7  C7  UNK     1      34.112  -6.122  37.032  1.00  0.00     0.300 A 
HETATM    8  C8  UNK     1      34.445  -7.166  32.929  1.00  0.00     0.015 A 
HETATM    9  C9  UNK     1      36.691  -7.004  34.571  1.00  0.00     0.038 A 
HETATM   10  C14 UNK     1      35.719  -7.429  32.411  1.00  0.00     0.001 A 
HETATM   11  C15 UNK     1      36.840  -7.348  33.232  1.00  0.00     0.003 A 
ENDROOT
BRANCH   4  12
HETATM   12  C6  UNK     1      31.604  -5.903  36.823  1.00  0.00     0.003 A 
HETATM   13  C12 UNK     1      31.144  -4.600  36.984  1.00  0.00     0.046 A 
HETATM   14  C18 UNK     1      29.913  -4.371  37.601  1.00  0.00     0.048 A 
HETATM   15 Cl1  UNK     1      32.051  -3.232  36.442  1.00  0.00    -0.083 Cl
HETATM   16  C21 UNK     1      29.150  -5.447  38.055  1.00  0.00     0.035 A 
HETATM   17  C19 UNK     1      29.616  -6.751  37.891  1.00  0.00     0.025 A 
HETATM   18 Cl2  UNK     1      27.632  -5.165  38.815  1.00  0.00    -0.084 Cl
HETATM   19  C13 UNK     1      30.846  -6.980  37.274  1.00  0.00     0.016 A 
ENDBRANCH   4  12
BRANCH   3  20
HETATM   20  C4  UNK     1      31.698  -6.582  34.105  1.00  0.00    -0.024 A 
HETATM   21  C10 UNK     1      31.002  -7.780  34.013  1.00  0.00     0.012 A 
HETATM   22  C16 UNK     1      29.812  -7.831  33.288  1.00  0.00     0.001 A 
HETATM   23  C20 UNK     1      29.329  -6.683  32.660  1.00  0.00     0.000 A 
HETATM   24  C17 UNK     1      30.035  -5.484  32.759  1.00  0.00     0.001 A 
HETATM   25  C11 UNK     1      31.225  -5.433  33.485  1.00  0.00     0.012 A 
ENDBRANCH   3  20
TORSDOF 2
ENDMDL
MODEL 4
REMARK VINA RESULT:      -7.3     31.649     34.079
REMARK  2 active torsions:
REMARK  status: ('A' for Active; 'I' for Inactive)
REMARK    1  A    between atoms: C1_5  and  C4_8 
REMARK    2  A    between atoms: C2_6  and  C6_10 
ROOT
HETATM    1  O1  UNK     1      11.785   6.542   6.826  1.00  0.00    -0.274 OA
HETATM    2  O2  UNK     1      14.027   6.846   6.603  1.00  0.00    -0.259 OA
HETATM    3  C1  UNK     1      11.830   8.348   9.025  1.00  0.00     0.004 A 
HETATM    4  C2  UNK     1      12.973   8.053   8.360  1.00  0.00     0.063 A 
HETATM    5  C3  UNK     1      10.572   7.710   8.578  1.00  0.00     0.010 A 
HETATM    6  C5  UNK     1      10.591   6.834   7.499  1.00  0.00     0.090 A 
HETATM    7  C7  UNK     1      12.989   7.111   7.203  1.00  0.00     0.300 A 
HETATM    8  C8  UNK     1       9.336   7.951   9.198  1.00  0.00     0.015 A 
HETATM    9  C9  UNK     1       9.436   6.202   7.031  1.00  0.00     0.038 A 
HETATM   10  C14 UNK     1       8.170   7.326   8.741  1.00  0.00     0.001 A 
HETATM   11  C15 UNK     1       8.221   6.452   7.657  1.00  0.00     0.003 A 
ENDROOT
BRANCH   4  12
HETATM   12  C6  UNK     1      14.249   8.653   8.757  1.00  0.00     0.003 A 
HETATM   13  C12 UNK     1      15.160   7.981   9.565  1.00  0.00     0.046 A 
HETATM   14  C18 UNK     1      16.363   8.597   9.914  1.00  0.00     0.048 A 
HETATM   15 Cl1  UNK     1      14.857   6.387  10.163  1.00  0.00    -0.083 Cl
HETATM   16  C21 UNK     1      16.647   9.882   9.454  1.00  0.00     0.035 A 
HETATM   17  C19 UNK     1      15.730  10.553   8.645  1.00  0.00     0.025 A 
HETATM   18 Cl2  UNK     1      18.130  10.642   9.884  1.00  0.00    -0.084 Cl
HETATM   19  C13 UNK     1      14.528   9.936   8.296  1.00  0.00     0.016 A 
ENDBRANCH   4  12
BRANCH   3  20
HETATM   20  C4  UNK     1      11.901   9.285  10.152  1.00  0.00    -0.024 A 
HETATM   21  C10 UNK     1      11.362  10.558  10.019  1.00  0.00     0.012 A 
HETATM   22  C16 UNK     1      11.429  11.448  11.090  1.00  0.00     0.001 A 
HETATM   23  C20 UNK     1      12.035  11.057  12.285  1.00  0.00     0.000 A 
HETATM   24  C17 UNK     1      12.572   9.776  12.408  1.00  0.00     0.001 A 
HETATM   25  C11 UNK     1      12.505   8.886  11.337  1.00  0.00     0.012 A 
ENDBRANCH   3  20
TORSDOF 2
ENDMDL
MODEL 5
REMARK VINA RESULT:      -7.3      3.738      6.126
REMARK  2 active torsions:
REMARK  status: ('A' for Active; 'I' for Inactive)
REMARK    1  A    between atoms: C1_5  and  C4_8 
REMARK    2  A    between atoms: C2_6  and  C6_10 
ROOT
HETATM    1  O1  UNK     1      36.202  -6.658  34.995  1.00  0.00    -0.274 OA
HETATM    2  O2  UNK     1      35.442  -5.081  36.445  1.00  0.00    -0.259 OA
HETATM    3  C1  UNK     1      33.606  -7.824  35.013  1.00  0.00     0.004 A 
HETATM    4  C2  UNK     1      33.864  -6.720  35.756  1.00  0.00     0.063 A 
HETATM    5  C3  UNK     1      34.703  -8.398  34.202  1.00  0.00     0.010 A 
HETATM    6  C5  UNK     1      35.956  -7.799  34.219  1.00  0.00     0.090 A 
HETATM    7  C7  UNK     1      35.212  -6.081  35.771  1.00  0.00     0.300 A 
HETATM    8  C8  UNK     1      34.538  -9.537  33.399  1.00  0.00     0.015 A 
HETATM    9  C9  UNK     1      37.030  -8.294  33.474  1.00  0.00     0.038 A 
HETATM   10  C14 UNK     1      35.602 -10.045  32.646  1.00  0.00     0.001 A 
HETATM   11  C15 UNK     1      36.848  -9.423  32.684  1.00  0.00     0.003 A 
ENDROOT
BRANCH   4  12
HETATM   12  C6  UNK     1      32.819  -6.107  36.579  1.00  0.00     0.003 A 
HETATM   13  C12 UNK     1      32.025  -5.066  36.107  1.00  0.00     0.046 A 
HETATM   14  C18 UNK     1      31.042  -4.516  36.931  1.00  0.00     0.048 A 
HETATM   15 Cl1  UNK     1      32.212  -4.416  34.516  1.00  0.00    -0.083 Cl
HETATM   16  C21 UNK     1      30.858  -5.010  38.222  1.00  0.00     0.035 A 
HETATM   17  C19 UNK     1      31.656  -6.054  38.691  1.00  0.00     0.025 A 
HETATM   18 Cl2  UNK     1      29.646  -4.333  39.239  1.00  0.00    -0.084 Cl
HETATM   19  C13 UNK     1      32.640  -6.604  37.867  1.00  0.00     0.016 A 
ENDBRANCH   4  12
BRANCH   3  20
HETATM   20  C4  UNK     1      32.253  -8.390  35.054  1.00  0.00    -0.024 A 
HETATM   21  C10 UNK     1      31.291  -7.929  34.165  1.00  0.00     0.012 A 
HETATM   22  C16 UNK     1      30.006  -8.467  34.202  1.00  0.00     0.001 A 
HETATM   23  C20 UNK     1      29.693  -9.462  35.129  1.00  0.00     0.000 A 
HETATM   24  C17 UNK     1      30.667  -9.919  36.017  1.00  0.00     0.001 A 
HETATM   25  C11 UNK     1      31.953  -9.381  35.979  1.00  0.00     0.012 A 
ENDBRANCH   3  20
TORSDOF 2
ENDMDL
MODEL 6
REMARK VINA RESULT:      -7.3      1.068      1.755
REMARK  2 active torsions:
REMARK  status: ('A' for Active; 'I' for Inactive)
REMARK    1  A    between atoms: C1_5  and  C4_8 
REMARK    2  A    between atoms: C2_6  and  C6_10 
ROOT
HETATM    1  O1  UNK     1      34.708  -7.215  32.671  1.00  0.00    -0.274 OA
HETATM    2  O2  UNK     1      34.280  -8.590  30.912  1.00  0.00    -0.259 OA
HETATM    3  C1  UNK     1      31.911  -6.748  32.897  1.00  0.00     0.004 A 
HETATM    4  C2  UNK     1      32.390  -7.572  31.934  1.00  0.00     0.063 A 
HETATM    5  C3  UNK     1      32.875  -6.105  33.816  1.00  0.00     0.010 A 
HETATM    6  C5  UNK     1      34.234  -6.359  33.674  1.00  0.00     0.090 A 
HETATM    7  C7  UNK     1      33.850  -7.842  31.785  1.00  0.00     0.300 A 
HETATM    8  C8  UNK     1      32.481  -5.236  34.846  1.00  0.00     0.015 A 
HETATM    9  C9  UNK     1      35.193  -5.783  34.512  1.00  0.00     0.038 A 
HETATM   10  C14 UNK     1      33.428  -4.651  35.694  1.00  0.00     0.001 A 
HETATM   11  C15 UNK     1      34.783  -4.925  35.526  1.00  0.00     0.003 A 
ENDROOT
BRANCH   4  12
HETATM   12  C6  UNK     1      31.483  -8.237  30.994  1.00  0.00     0.003 A 
HETATM   13  C12 UNK     1      30.943  -9.492  31.255  1.00  0.00     0.046 A 
HETATM   14  C18 UNK     1      30.084 -10.083  30.327  1.00  0.00     0.048 A 
HETATM   15 Cl1  UNK     1      31.300 -10.363  32.705  1.00  0.00    -0.083 Cl
HETATM   16  C21 UNK     1      29.770  -9.415  29.144  1.00  0.00     0.035 A 
HETATM   17  C19 UNK     1      30.315  -8.157  28.887  1.00  0.00     0.025 A 
HETATM   18 Cl2  UNK     1      28.710 -10.143  28.000  1.00  0.00    -0.084 Cl
HETATM   19  C13 UNK     1      31.174  -7.567  29.815  1.00  0.00     0.016 A 
ENDBRANCH   4  12
BRANCH   3  20
HETATM   20  C4  UNK     1      30.461  -6.537  32.975  1.00  0.00    -0.024 A 
HETATM   21  C10 UNK     1      29.869  -5.551  32.195  1.00  0.00     0.012 A 
HETATM   22  C16 UNK     1      28.492  -5.351  32.268  1.00  0.00     0.001 A 
HETATM   23  C20 UNK     1      27.717  -6.138  33.120  1.00  0.00     0.000 A 
HETATM   24  C17 UNK     1      28.321  -7.126  33.898  1.00  0.00     0.001 A 
HETATM   25  C11 UNK     1      29.699  -7.326  33.825  1.00  0.00     0.012 A 
ENDBRANCH   3  20
TORSDOF 2
ENDMDL
MODEL 7
REMARK VINA RESULT:      -7.3      2.818      5.890
REMARK  2 active torsions:
REMARK  status: ('A' for Active; 'I' for Inactive)
REMARK    1  A    between atoms: C1_5  and  C4_8 
REMARK    2  A    between atoms: C2_6  and  C6_10 
ROOT
HETATM    1  O1  UNK     1      31.459 -10.439  29.080  1.00  0.00    -0.274 OA
HETATM    2  O2  UNK     1      33.651 -10.592  29.662  1.00  0.00    -0.259 OA
HETATM    3  C1  UNK     1      31.072  -8.669  31.274  1.00  0.00     0.004 A 
HETATM    4  C2  UNK     1      32.298  -9.191  31.026  1.00  0.00     0.063 A 
HETATM    5  C3  UNK     1      29.954  -9.044  30.380  1.00  0.00     0.010 A 
HETATM    6  C5  UNK     1      30.183  -9.911  29.319  1.00  0.00     0.090 A 
HETATM    7  C7  UNK     1      32.539 -10.122  29.885  1.00  0.00     0.300 A 
HETATM    8  C8  UNK     1      28.649  -8.557  30.551  1.00  0.00     0.015 A 
HETATM    9  C9  UNK     1      29.169 -10.300  28.441  1.00  0.00     0.038 A 
HETATM   10  C14 UNK     1      27.621  -8.937  29.681  1.00  0.00     0.001 A 
HETATM   11  C15 UNK     1      27.881  -9.808  28.626  1.00  0.00     0.003 A 
ENDROOT
BRANCH   4  12
HETATM   12  C6  UNK     1      33.443  -8.857  31.876  1.00  0.00     0.003 A 
HETATM   13  C12 UNK     1      33.793  -9.631  32.977  1.00  0.00     0.046 A 
HETATM   14  C18 UNK     1      34.894  -9.271  33.756  1.00  0.00     0.048 A 
HETATM   15 Cl1  UNK     1      32.905 -11.045  33.427  1.00  0.00    -0.083 Cl
HETATM   16  C21 UNK     1      35.638  -8.137  33.429  1.00  0.00     0.035 A 
HETATM   17  C19 UNK     1      35.282  -7.364  32.324  1.00  0.00     0.025 A 
HETATM   18 Cl2  UNK     1      36.996  -7.692  34.388  1.00  0.00    -0.084 Cl
HETATM   19  C13 UNK     1      34.182  -7.725  31.545  1.00  0.00     0.016 A 
ENDBRANCH   4  12
BRANCH   3  20
HETATM   20  C4  UNK     1      30.920  -7.761  32.416  1.00  0.00    -0.024 A 
HETATM   21  C10 UNK     1      31.089  -6.395  32.231  1.00  0.00     0.012 A 
HETATM   22  C16 UNK     1      30.944  -5.531  33.316  1.00  0.00     0.001 A 
HETATM   23  C20 UNK     1      30.631  -6.041  34.577  1.00  0.00     0.000 A 
HETATM   24  C17 UNK     1      30.463  -7.415  34.751  1.00  0.00     0.001 A 
HETATM   25  C11 UNK     1      30.608  -8.279  33.666  1.00  0.00     0.012 A 
ENDBRANCH   3  20
TORSDOF 2
ENDMDL
MODEL 8
REMARK VINA RESULT:      -7.2      4.588      7.336
REMARK  2 active torsions:
REMARK  status: ('A' for Active; 'I' for Inactive)
REMARK    1  A    between atoms: C1_5  and  C4_8 
REMARK    2  A    between atoms: C2_6  and  C6_10 
ROOT
HETATM    1  O1  UNK     1      28.973  -6.345  39.268  1.00  0.00    -0.274 OA
HETATM    2  O2  UNK     1      30.522  -4.735  38.850  1.00  0.00    -0.259 OA
HETATM    3  C1  UNK     1      29.946  -7.770  37.006  1.00  0.00     0.004 A 
HETATM    4  C2  UNK     1      30.501  -6.584  37.356  1.00  0.00     0.063 A 
HETATM    5  C3  UNK     1      28.833  -8.295  37.827  1.00  0.00     0.010 A 
HETATM    6  C5  UNK     1      28.385  -7.570  38.924  1.00  0.00     0.090 A 
HETATM    7  C7  UNK     1      30.017  -5.808  38.536  1.00  0.00     0.300 A 
HETATM    8  C8  UNK     1      28.193  -9.513  37.548  1.00  0.00     0.015 A 
HETATM    9  C9  UNK     1      27.339  -8.014  39.736  1.00  0.00     0.038 A 
HETATM   10  C14 UNK     1      27.143  -9.973  38.352  1.00  0.00     0.001 A 
HETATM   11  C15 UNK     1      26.717  -9.223  39.445  1.00  0.00     0.003 A 
ENDROOT
BRANCH   4  12
HETATM   12  C6  UNK     1      31.607  -6.014  36.583  1.00  0.00     0.003 A 
HETATM   13  C12 UNK     1      32.935  -6.317  36.863  1.00  0.00     0.046 A 
HETATM   14  C18 UNK     1      33.952  -5.748  36.096  1.00  0.00     0.048 A 
HETATM   15 Cl1  UNK     1      33.383  -7.388  38.144  1.00  0.00    -0.083 Cl
HETATM   16  C21 UNK     1      33.635  -4.877  35.053  1.00  0.00     0.035 A 
HETATM   17  C19 UNK     1      32.302  -4.576  34.777  1.00  0.00     0.025 A 
HETATM   18 Cl2  UNK     1      34.889  -4.175  34.107  1.00  0.00    -0.084 Cl
HETATM   19  C13 UNK     1      31.285  -5.146  35.544  1.00  0.00     0.016 A 
ENDBRANCH   4  12
BRANCH   3  20
HETATM   20  C4  UNK     1      30.482  -8.470  35.833  1.00  0.00    -0.024 A 
HETATM   21  C10 UNK     1      31.497  -9.404  35.996  1.00  0.00     0.012 A 
HETATM   22  C16 UNK     1      32.005 -10.069  34.882  1.00  0.00     0.001 A 
HETATM   23  C20 UNK     1      31.494  -9.795  33.613  1.00  0.00     0.000 A 
HETATM   24  C17 UNK     1      30.474  -8.856  33.460  1.00  0.00     0.001 A 
HETATM   25  C11 UNK     1      29.966  -8.190  34.575  1.00  0.00     0.012 A 
ENDBRANCH   3  20
TORSDOF 2
ENDMDL
MODEL 9
REMARK VINA RESULT:      -7.2      4.287      6.213
REMARK  2 active torsions:
REMARK  status: ('A' for Active; 'I' for Inactive)
REMARK    1  A    between atoms: C1_5  and  C4_8 
REMARK    2  A    between atoms: C2_6  and  C6_10 
ROOT
HETATM    1  O1  UNK     1      31.729  -3.857  36.526  1.00  0.00    -0.274 OA
HETATM    2  O2  UNK     1      29.792  -4.005  37.707  1.00  0.00    -0.259 OA
HETATM    3  C1  UNK     1      31.504  -6.634  35.945  1.00  0.00     0.004 A 
HETATM    4  C2  UNK     1      30.562  -6.015  36.699  1.00  0.00     0.063 A 
HETATM    5  C3  UNK     1      32.639  -5.830  35.439  1.00  0.00     0.010 A 
HETATM    6  C5  UNK     1      32.713  -4.477  35.745  1.00  0.00     0.090 A 
HETATM    7  C7  UNK     1      30.647  -4.561  37.025  1.00  0.00     0.300 A 
HETATM    8  C8  UNK     1      33.663  -6.376  34.650  1.00  0.00     0.015 A 
HETATM    9  C9  UNK     1      33.759  -3.667  35.296  1.00  0.00     0.038 A 
HETATM   10  C14 UNK     1      34.718  -5.579  34.192  1.00  0.00     0.001 A 
HETATM   11  C15 UNK     1      34.766  -4.225  34.515  1.00  0.00     0.003 A 
ENDROOT
BRANCH   4  12
HETATM   12  C6  UNK     1      29.416  -6.758  37.228  1.00  0.00     0.003 A 
HETATM   13  C12 UNK     1      28.294  -7.032  36.452  1.00  0.00     0.046 A 
HETATM   14  C18 UNK     1      27.228  -7.744  37.003  1.00  0.00     0.048 A 
HETATM   15 Cl1  UNK     1      28.166  -6.516  34.807  1.00  0.00    -0.083 Cl
HETATM   16  C21 UNK     1      27.289  -8.178  38.327  1.00  0.00     0.035 A 
HETATM   17  C19 UNK     1      28.416  -7.901  39.101  1.00  0.00     0.025 A 
HETATM   18 Cl2  UNK     1      25.974  -9.057  39.007  1.00  0.00    -0.084 Cl
HETATM   19  C13 UNK     1      29.482  -7.189  38.550  1.00  0.00     0.016 A 
ENDBRANCH   4  12
BRANCH   3  20
HETATM   20  C4  UNK     1      31.346  -8.066  35.671  1.00  0.00    -0.024 A 
HETATM   21  C10 UNK     1      30.812  -8.476  34.456  1.00  0.00     0.012 A 
HETATM   22  C16 UNK     1      30.663  -9.837  34.195  1.00  0.00     0.001 A 
HETATM   23  C20 UNK     1      31.048 -10.777  35.151  1.00  0.00     0.000 A 
HETATM   24  C17 UNK     1      31.583 -10.355  36.368  1.00  0.00     0.001 A 
HETATM   25  C11 UNK     1      31.733  -8.994  36.629  1.00  0.00     0.012 A 
ENDBRANCH   3  20
TORSDOF 2
ENDMDL
MODEL 10
REMARK VINA RESULT:      -7.2      4.210      6.689
REMARK  2 active torsions:
REMARK  status: ('A' for Active; 'I' for Inactive)
REMARK    1  A    between atoms: C1_5  and  C4_8 
REMARK    2  A    between atoms: C2_6  and  C6_10 
ROOT
HETATM    1  O1  UNK     1      29.567  -6.362  38.660  1.00  0.00    -0.274 OA
HETATM    2  O2  UNK     1      31.297  -5.169  37.793  1.00  0.00    -0.259 OA
HETATM    3  C1  UNK     1      30.121  -8.410  36.764  1.00  0.00     0.004 A 
HETATM    4  C2  UNK     1      30.874  -7.283  36.791  1.00  0.00     0.063 A 
HETATM    5  C3  UNK     1      29.016  -8.541  37.739  1.00  0.00     0.010 A 
HETATM    6  C5  UNK     1      28.777  -7.519  38.649  1.00  0.00     0.090 A 
HETATM    7  C7  UNK     1      30.613  -6.187  37.771  1.00  0.00     0.300 A 
HETATM    8  C8  UNK     1      28.180  -9.668  37.793  1.00  0.00     0.015 A 
HETATM    9  C9  UNK     1      27.749  -7.585  39.593  1.00  0.00     0.038 A 
HETATM   10  C14 UNK     1      27.147  -9.751  38.732  1.00  0.00     0.001 A 
HETATM   11  C15 UNK     1      26.932  -8.709  39.632  1.00  0.00     0.003 A 
ENDROOT
BRANCH   4  12
HETATM   12  C6  UNK     1      31.982  -7.096  35.851  1.00  0.00     0.003 A 
HETATM   13  C12 UNK     1      31.798  -6.507  34.604  1.00  0.00     0.046 A 
HETATM   14  C18 UNK     1      32.887  -6.351  33.745  1.00  0.00     0.048 A 
HETATM   15 Cl1  UNK     1      30.251  -5.952  34.068  1.00  0.00    -0.083 Cl
HETATM   16  C21 UNK     1      34.153  -6.786  34.137  1.00  0.00     0.035 A 
HETATM   17  C19 UNK     1      34.331  -7.376  35.388  1.00  0.00     0.025 A 
HETATM   18 Cl2  UNK     1      35.496  -6.594  33.078  1.00  0.00    -0.084 Cl
HETATM   19  C13 UNK     1      33.242  -7.532  36.247  1.00  0.00     0.016 A 
ENDBRANCH   4  12
BRANCH   3  20
HETATM   20  C4  UNK     1      30.444  -9.438  35.769  1.00  0.00    -0.024 A 
HETATM   21  C10 UNK     1      31.411 -10.393  36.060  1.00  0.00     0.012 A 
HETATM   22  C16 UNK     1      31.717 -11.371  35.115  1.00  0.00     0.001 A 
HETATM   23  C20 UNK     1      31.055 -11.387  33.888  1.00  0.00     0.000 A 
HETATM   24  C17 UNK     1      30.085 -10.425  33.606  1.00  0.00     0.001 A 
HETATM   25  C11 UNK     1      29.778  -9.447  34.551  1.00  0.00     0.012 A 
ENDBRANCH   3  20
TORSDOF 2
ENDMDL
