MODEL 1
REMARK VINA RESULT:      -8.2      0.000      0.000
REMARK  2 active torsions:
REMARK  status: ('A' for Active; 'I' for Inactive)
REMARK    1  A    between atoms: C15_18  and  O3_3 
REMARK    2  A    between atoms: C1_4  and  C3_6 
ROOT
HETATM    1  O1  UNK     1      19.061   0.263  32.536  1.00  0.00    -0.340 OA
HETATM    2  O2  UNK     1      20.944  -3.310  31.824  1.00  0.00    -0.292 OA
HETATM    3  C1  UNK     1      18.861  -0.858  33.411  1.00  0.00     0.169 C 
HETATM    4  C2  UNK     1      20.098  -1.754  33.442  1.00  0.00     0.121 C 
HETATM    5  C4  UNK     1      20.387  -2.242  32.046  1.00  0.00     0.165 C 
HETATM    6  C5  UNK     1      20.021  -1.320  30.950  1.00  0.00     0.043 A 
HETATM    7  C6  UNK     1      19.398  -0.108  31.261  1.00  0.00     0.083 A 
HETATM    8  C9  UNK     1      20.334  -1.635  29.625  1.00  0.00     0.018 A 
HETATM    9  C10 UNK     1      19.117   0.806  30.245  1.00  0.00     0.038 A 
HETATM   10  C13 UNK     1      20.031  -0.725  28.612  1.00  0.00     0.001 A 
HETATM   11  C14 UNK     1      19.429   0.495  28.921  1.00  0.00     0.003 A 
ENDROOT
BRANCH   3  12
HETATM   12  C3  UNK     1      18.532  -0.335  34.793  1.00  0.00    -0.028 A 
HETATM   13  C7  UNK     1      18.455   1.039  35.017  1.00  0.00     0.012 A 
HETATM   14  C11 UNK     1      18.152   1.521  36.291  1.00  0.00     0.037 A 
HETATM   15  C15 UNK     1      17.927   0.629  37.339  1.00  0.00     0.065 A 
HETATM   16  C12 UNK     1      18.004  -0.745  37.114  1.00  0.00     0.037 A 
HETATM   17  C8  UNK     1      18.306  -1.227  35.841  1.00  0.00     0.012 A 
BRANCH  15  18
HETATM   18  O3  UNK     1      17.631   1.100  38.582  1.00  0.00    -0.361 OA
HETATM   19  H12 UNK     1      17.986   2.002  38.669  1.00  0.00     0.217 HD
ENDBRANCH  15  18
ENDBRANCH   3  12
TORSDOF 2
ENDMDL
MODEL 2
REMARK VINA RESULT:      -8.1      7.652     10.150
REMARK  2 active torsions:
REMARK  status: ('A' for Active; 'I' for Inactive)
REMARK    1  A    between atoms: C15_18  and  O3_3 
REMARK    2  A    between atoms: C1_4  and  C3_6 
ROOT
HETATM    1  O1  UNK     1      17.710   8.641  33.023  1.00  0.00    -0.340 OA
HETATM    2  O2  UNK     1      14.200   6.956  31.732  1.00  0.00    -0.292 OA
HETATM    3  C1  UNK     1      17.641   7.242  32.706  1.00  0.00     0.169 C 
HETATM    4  C2  UNK     1      16.596   6.977  31.623  1.00  0.00     0.121 C 
HETATM    5  C4  UNK     1      15.253   7.458  32.108  1.00  0.00     0.165 C 
HETATM    6  C5  UNK     1      15.272   8.623  33.017  1.00  0.00     0.043 A 
HETATM    7  C6  UNK     1      16.502   9.162  33.405  1.00  0.00     0.083 A 
HETATM    8  C9  UNK     1      14.077   9.205  33.448  1.00  0.00     0.018 A 
HETATM    9  C10 UNK     1      16.535  10.309  34.200  1.00  0.00     0.038 A 
HETATM   10  C13 UNK     1      14.118  10.338  34.260  1.00  0.00     0.001 A 
HETATM   11  C14 UNK     1      15.343  10.893  34.631  1.00  0.00     0.003 A 
ENDROOT
BRANCH   3  12
HETATM   12  C3  UNK     1      19.015   6.783  32.263  1.00  0.00    -0.028 A 
HETATM   13  C7  UNK     1      20.101   6.901  33.129  1.00  0.00     0.012 A 
HETATM   14  C11 UNK     1      21.366   6.479  32.720  1.00  0.00     0.037 A 
HETATM   15  C15 UNK     1      21.544   5.938  31.447  1.00  0.00     0.065 A 
HETATM   16  C12 UNK     1      20.456   5.820  30.582  1.00  0.00     0.037 A 
HETATM   17  C8  UNK     1      19.191   6.242  30.990  1.00  0.00     0.012 A 
BRANCH  15  18
HETATM   18  O3  UNK     1      22.779   5.526  31.049  1.00  0.00    -0.361 OA
HETATM   19  H12 UNK     1      23.350   6.305  30.937  1.00  0.00     0.217 HD
ENDBRANCH  15  18
ENDBRANCH   3  12
TORSDOF 2
ENDMDL
MODEL 3
REMARK VINA RESULT:      -7.9      3.857      5.237
REMARK  2 active torsions:
REMARK  status: ('A' for Active; 'I' for Inactive)
REMARK    1  A    between atoms: C15_18  and  O3_3 
REMARK    2  A    between atoms: C1_4  and  C3_6 
ROOT
HETATM    1  O1  UNK     1      19.181   2.084  31.307  1.00  0.00    -0.340 OA
HETATM    2  O2  UNK     1      17.698   1.925  27.486  1.00  0.00    -0.292 OA
HETATM    3  C1  UNK     1      18.915   3.289  30.573  1.00  0.00     0.169 C 
HETATM    4  C2  UNK     1      17.768   3.086  29.584  1.00  0.00     0.121 C 
HETATM    5  C4  UNK     1      18.132   1.977  28.631  1.00  0.00     0.165 C 
HETATM    6  C5  UNK     1      18.993   0.909  29.179  1.00  0.00     0.043 A 
HETATM    7  C6  UNK     1      19.450   1.013  30.496  1.00  0.00     0.083 A 
HETATM    8  C9  UNK     1      19.311  -0.212  28.407  1.00  0.00     0.018 A 
HETATM    9  C10 UNK     1      20.200  -0.025  31.052  1.00  0.00     0.038 A 
HETATM   10  C13 UNK     1      20.078  -1.236  28.963  1.00  0.00     0.001 A 
HETATM   11  C14 UNK     1      20.517  -1.146  30.284  1.00  0.00     0.003 A 
ENDROOT
BRANCH   3  12
HETATM   12  C3  UNK     1      18.594   4.391  31.561  1.00  0.00    -0.028 A 
HETATM   13  C7  UNK     1      18.648   5.724  31.159  1.00  0.00     0.012 A 
HETATM   14  C11 UNK     1      18.354   6.739  32.069  1.00  0.00     0.037 A 
HETATM   15  C15 UNK     1      18.006   6.420  33.381  1.00  0.00     0.065 A 
HETATM   16  C12 UNK     1      17.951   5.086  33.783  1.00  0.00     0.037 A 
HETATM   17  C8  UNK     1      18.246   4.071  32.873  1.00  0.00     0.012 A 
BRANCH  15  18
HETATM   18  O3  UNK     1      17.718   7.411  34.269  1.00  0.00    -0.361 OA
HETATM   19  H12 UNK     1      18.088   7.174  35.136  1.00  0.00     0.217 HD
ENDBRANCH  15  18
ENDBRANCH   3  12
TORSDOF 2
ENDMDL
MODEL 4
REMARK VINA RESULT:      -7.8     24.622     26.643
REMARK  2 active torsions:
REMARK  status: ('A' for Active; 'I' for Inactive)
REMARK    1  A    between atoms: C15_18  and  O3_3 
REMARK    2  A    between atoms: C1_4  and  C3_6 
ROOT
HETATM    1  O1  UNK     1      13.381   7.716   8.992  1.00  0.00    -0.340 OA
HETATM    2  O2  UNK     1      15.319   4.176   9.726  1.00  0.00    -0.292 OA
HETATM    3  C1  UNK     1      12.968   6.505   8.341  1.00  0.00     0.169 C 
HETATM    4  C2  UNK     1      13.254   5.287   9.218  1.00  0.00     0.121 C 
HETATM    5  C4  UNK     1      14.731   5.230   9.511  1.00  0.00     0.165 C 
HETATM    6  C5  UNK     1      15.425   6.532   9.595  1.00  0.00     0.043 A 
HETATM    7  C6  UNK     1      14.704   7.704   9.353  1.00  0.00     0.083 A 
HETATM    8  C9  UNK     1      16.774   6.594   9.956  1.00  0.00     0.018 A 
HETATM    9  C10 UNK     1      15.326   8.944   9.504  1.00  0.00     0.038 A 
HETATM   10  C13 UNK     1      17.395   7.836  10.085  1.00  0.00     0.001 A 
HETATM   11  C14 UNK     1      16.672   9.009   9.865  1.00  0.00     0.003 A 
ENDROOT
BRANCH   3  12
HETATM   12  C3  UNK     1      11.491   6.613   8.023  1.00  0.00    -0.028 A 
HETATM   13  C7  UNK     1      10.627   7.227   8.928  1.00  0.00     0.012 A 
HETATM   14  C11 UNK     1       9.266   7.326   8.636  1.00  0.00     0.037 A 
HETATM   15  C15 UNK     1       8.771   6.810   7.438  1.00  0.00     0.065 A 
HETATM   16  C12 UNK     1       9.636   6.196   6.533  1.00  0.00     0.037 A 
HETATM   17  C8  UNK     1      10.997   6.097   6.826  1.00  0.00     0.012 A 
BRANCH  15  18
HETATM   18  O3  UNK     1       7.444   6.907   7.154  1.00  0.00    -0.361 OA
HETATM   19  H12 UNK     1       7.292   6.588   6.247  1.00  0.00     0.217 HD
ENDBRANCH  15  18
ENDBRANCH   3  12
TORSDOF 2
ENDMDL
MODEL 5
REMARK VINA RESULT:      -7.8      3.587      5.465
REMARK  2 active torsions:
REMARK  status: ('A' for Active; 'I' for Inactive)
REMARK    1  A    between atoms: C15_18  and  O3_3 
REMARK    2  A    between atoms: C1_4  and  C3_6 
ROOT
HETATM    1  O1  UNK     1      19.293   1.440  31.312  1.00  0.00    -0.340 OA
HETATM    2  O2  UNK     1      18.821   0.082  27.470  1.00  0.00    -0.292 OA
HETATM    3  C1  UNK     1      19.318   2.352  30.203  1.00  0.00     0.169 C 
HETATM    4  C2  UNK     1      18.447   1.843  29.056  1.00  0.00     0.121 C 
HETATM    5  C4  UNK     1      18.953   0.493  28.617  1.00  0.00     0.165 C 
HETATM    6  C5  UNK     1      19.561  -0.344  29.672  1.00  0.00     0.043 A 
HETATM    7  C6  UNK     1      19.676   0.170  30.967  1.00  0.00     0.083 A 
HETATM    8  C9  UNK     1      19.975  -1.649  29.391  1.00  0.00     0.018 A 
HETATM    9  C10 UNK     1      20.176  -0.636  31.990  1.00  0.00     0.038 A 
HETATM   10  C13 UNK     1      20.494  -2.442  30.414  1.00  0.00     0.001 A 
HETATM   11  C14 UNK     1      20.589  -1.940  31.712  1.00  0.00     0.003 A 
ENDROOT
BRANCH   3  12
HETATM   12  C3  UNK     1      18.844   3.707  30.688  1.00  0.00    -0.028 A 
HETATM   13  C7  UNK     1      18.109   3.807  31.867  1.00  0.00     0.012 A 
HETATM   14  C11 UNK     1      17.671   5.054  32.313  1.00  0.00     0.037 A 
HETATM   15  C15 UNK     1      17.970   6.201  31.578  1.00  0.00     0.065 A 
HETATM   16  C12 UNK     1      18.706   6.101  30.398  1.00  0.00     0.037 A 
HETATM   17  C8  UNK     1      19.144   4.853  29.952  1.00  0.00     0.012 A 
BRANCH  15  18
HETATM   18  O3  UNK     1      17.544   7.418  32.013  1.00  0.00    -0.361 OA
HETATM   19  H12 UNK     1      17.263   7.946  31.247  1.00  0.00     0.217 HD
ENDBRANCH  15  18
ENDBRANCH   3  12
TORSDOF 2
ENDMDL
MODEL 6
REMARK VINA RESULT:      -7.6      1.725      2.445
REMARK  2 active torsions:
REMARK  status: ('A' for Active; 'I' for Inactive)
REMARK    1  A    between atoms: C15_18  and  O3_3 
REMARK    2  A    between atoms: C1_4  and  C3_6 
ROOT
HETATM    1  O1  UNK     1      19.042   0.359  32.759  1.00  0.00    -0.340 OA
HETATM    2  O2  UNK     1      20.371  -1.831  29.555  1.00  0.00    -0.292 OA
HETATM    3  C1  UNK     1      19.026  -1.077  32.794  1.00  0.00     0.169 C 
HETATM    4  C2  UNK     1      20.149  -1.658  31.937  1.00  0.00     0.121 C 
HETATM    5  C4  UNK     1      19.982  -1.181  30.518  1.00  0.00     0.165 C 
HETATM    6  C5  UNK     1      19.381   0.159  30.353  1.00  0.00     0.043 A 
HETATM    7  C6  UNK     1      18.966   0.863  31.487  1.00  0.00     0.083 A 
HETATM    8  C9  UNK     1      19.269   0.735  29.084  1.00  0.00     0.018 A 
HETATM    9  C10 UNK     1      18.468   2.160  31.353  1.00  0.00     0.038 A 
HETATM   10  C13 UNK     1      18.752   2.023  28.956  1.00  0.00     0.001 A 
HETATM   11  C14 UNK     1      18.357   2.737  30.088  1.00  0.00     0.003 A 
ENDROOT
BRANCH   3  12
HETATM   12  C3  UNK     1      19.153  -1.522  34.236  1.00  0.00    -0.028 A 
HETATM   13  C7  UNK     1      18.285  -1.014  35.201  1.00  0.00     0.012 A 
HETATM   14  C11 UNK     1      18.403  -1.424  36.529  1.00  0.00     0.037 A 
HETATM   15  C15 UNK     1      19.388  -2.341  36.891  1.00  0.00     0.065 A 
HETATM   16  C12 UNK     1      20.256  -2.849  35.925  1.00  0.00     0.037 A 
HETATM   17  C8  UNK     1      20.138  -2.440  34.597  1.00  0.00     0.012 A 
BRANCH  15  18
HETATM   18  O3  UNK     1      19.502  -2.741  38.187  1.00  0.00    -0.361 OA
HETATM   19  H12 UNK     1      20.195  -3.422  38.247  1.00  0.00     0.217 HD
ENDBRANCH  15  18
ENDBRANCH   3  12
TORSDOF 2
ENDMDL
MODEL 7
REMARK VINA RESULT:      -7.6     24.425     26.523
REMARK  2 active torsions:
REMARK  status: ('A' for Active; 'I' for Inactive)
REMARK    1  A    between atoms: C15_18  and  O3_3 
REMARK    2  A    between atoms: C1_4  and  C3_6 
ROOT
HETATM    1  O1  UNK     1      12.654   6.560   7.795  1.00  0.00    -0.340 OA
HETATM    2  O2  UNK     1       9.872   4.751  10.207  1.00  0.00    -0.292 OA
HETATM    3  C1  UNK     1      12.771   6.623   9.225  1.00  0.00     0.169 C 
HETATM    4  C2  UNK     1      12.163   5.383   9.879  1.00  0.00     0.121 C 
HETATM    5  C4  UNK     1      10.711   5.285   9.490  1.00  0.00     0.165 C 
HETATM    6  C5  UNK     1      10.362   5.811   8.153  1.00  0.00     0.043 A 
HETATM    7  C6  UNK     1      11.361   6.399   7.372  1.00  0.00     0.083 A 
HETATM    8  C9  UNK     1       9.062   5.682   7.658  1.00  0.00     0.018 A 
HETATM    9  C10 UNK     1      11.064   6.829   6.078  1.00  0.00     0.038 A 
HETATM   10  C13 UNK     1       8.767   6.133   6.372  1.00  0.00     0.001 A 
HETATM   11  C14 UNK     1       9.766   6.701   5.581  1.00  0.00     0.003 A 
ENDROOT
BRANCH   3  12
HETATM   12  C3  UNK     1      14.237   6.763   9.580  1.00  0.00    -0.028 A 
HETATM   13  C7  UNK     1      15.144   5.778   9.193  1.00  0.00     0.012 A 
HETATM   14  C11 UNK     1      16.494   5.906   9.520  1.00  0.00     0.037 A 
HETATM   15  C15 UNK     1      16.936   7.020  10.235  1.00  0.00     0.065 A 
HETATM   16  C12 UNK     1      16.028   8.005  10.621  1.00  0.00     0.037 A 
HETATM   17  C8  UNK     1      14.678   7.876  10.293  1.00  0.00     0.012 A 
BRANCH  15  18
HETATM   18  O3  UNK     1      18.253   7.145  10.553  1.00  0.00    -0.361 OA
HETATM   19  H12 UNK     1      18.704   7.630   9.841  1.00  0.00     0.217 HD
ENDBRANCH  15  18
ENDBRANCH   3  12
TORSDOF 2
ENDMDL
MODEL 8
REMARK VINA RESULT:      -7.5     14.001     18.039
REMARK  2 active torsions:
REMARK  status: ('A' for Active; 'I' for Inactive)
REMARK    1  A    between atoms: C15_18  and  O3_3 
REMARK    2  A    between atoms: C1_4  and  C3_6 
ROOT
HETATM    1  O1  UNK     1      19.210  -1.010  17.271  1.00  0.00    -0.340 OA
HETATM    2  O2  UNK     1      19.284   2.713  15.550  1.00  0.00    -0.292 OA
HETATM    3  C1  UNK     1      18.713  -0.808  15.940  1.00  0.00     0.169 C 
HETATM    4  C2  UNK     1      19.450   0.339  15.249  1.00  0.00     0.121 C 
HETATM    5  C4  UNK     1      19.269   1.597  16.057  1.00  0.00     0.165 C 
HETATM    6  C5  UNK     1      19.141   1.415  17.518  1.00  0.00     0.043 A 
HETATM    7  C6  UNK     1      19.142   0.120  18.044  1.00  0.00     0.083 A 
HETATM    8  C9  UNK     1      19.064   2.523  18.366  1.00  0.00     0.018 A 
HETATM    9  C10 UNK     1      19.099  -0.065  19.426  1.00  0.00     0.038 A 
HETATM   10  C13 UNK     1      19.001   2.330  19.746  1.00  0.00     0.001 A 
HETATM   11  C14 UNK     1      19.024   1.040  20.276  1.00  0.00     0.003 A 
ENDROOT
BRANCH   3  12
HETATM   12  C3  UNK     1      18.871  -2.102  15.168  1.00  0.00    -0.028 A 
HETATM   13  C7  UNK     1      17.988  -3.157  15.390  1.00  0.00     0.012 A 
HETATM   14  C11 UNK     1      18.134  -4.349  14.680  1.00  0.00     0.037 A 
HETATM   15  C15 UNK     1      19.163  -4.484  13.749  1.00  0.00     0.065 A 
HETATM   16  C12 UNK     1      20.046  -3.428  13.527  1.00  0.00     0.037 A 
HETATM   17  C8  UNK     1      19.900  -2.236  14.236  1.00  0.00     0.012 A 
BRANCH  15  18
HETATM   18  O3  UNK     1      19.304  -5.647  13.056  1.00  0.00    -0.361 OA
HETATM   19  H12 UNK     1      18.904  -6.370  13.569  1.00  0.00     0.217 HD
ENDBRANCH  15  18
ENDBRANCH   3  12
TORSDOF 2
ENDMDL
MODEL 9
REMARK VINA RESULT:      -7.5      1.761      6.569
REMARK  2 active torsions:
REMARK  status: ('A' for Active; 'I' for Inactive)
REMARK    1  A    between atoms: C15_18  and  O3_3 
REMARK    2  A    between atoms: C1_4  and  C3_6 
ROOT
HETATM    1  O1  UNK     1      19.638  -1.439  34.164  1.00  0.00    -0.340 OA
HETATM    2  O2  UNK     1      16.972   1.291  35.669  1.00  0.00    -0.292 OA
HETATM    3  C1  UNK     1      18.684  -0.796  33.306  1.00  0.00     0.169 C 
HETATM    4  C2  UNK     1      18.337   0.600  33.821  1.00  0.00     0.121 C 
HETATM    5  C4  UNK     1      17.773   0.483  35.214  1.00  0.00     0.165 C 
HETATM    6  C5  UNK     1      18.297  -0.630  36.032  1.00  0.00     0.043 A 
HETATM    7  C6  UNK     1      19.219  -1.515  35.466  1.00  0.00     0.083 A 
HETATM    8  C9  UNK     1      17.911  -0.770  37.368  1.00  0.00     0.018 A 
HETATM    9  C10 UNK     1      19.780  -2.525  36.250  1.00  0.00     0.038 A 
HETATM   10  C13 UNK     1      18.461  -1.794  38.140  1.00  0.00     0.001 A 
HETATM   11  C14 UNK     1      19.398  -2.666  37.584  1.00  0.00     0.003 A 
ENDROOT
BRANCH   3  12
HETATM   12  C3  UNK     1      19.263  -0.732  31.908  1.00  0.00    -0.028 A 
HETATM   13  C7  UNK     1      19.208   0.458  31.184  1.00  0.00     0.012 A 
HETATM   14  C11 UNK     1      19.741   0.516  29.897  1.00  0.00     0.037 A 
HETATM   15  C15 UNK     1      20.329  -0.616  29.333  1.00  0.00     0.065 A 
HETATM   16  C12 UNK     1      20.385  -1.807  30.058  1.00  0.00     0.037 A 
HETATM   17  C8  UNK     1      19.852  -1.865  31.346  1.00  0.00     0.012 A 
BRANCH  15  18
HETATM   18  O3  UNK     1      20.850  -0.559  28.077  1.00  0.00    -0.361 OA
HETATM   19  H12 UNK     1      21.809  -0.712  28.127  1.00  0.00     0.217 HD
ENDBRANCH  15  18
ENDBRANCH   3  12
TORSDOF 2
ENDMDL
MODEL 10
REMARK VINA RESULT:      -7.5     26.455     27.873
REMARK  2 active torsions:
REMARK  status: ('A' for Active; 'I' for Inactive)
REMARK    1  A    between atoms: C15_18  and  O3_3 
REMARK    2  A    between atoms: C1_4  and  C3_6 
ROOT
HETATM    1  O1  UNK     1       7.654   4.376   9.278  1.00  0.00    -0.340 OA
HETATM    2  O2  UNK     1       6.244   7.403  11.660  1.00  0.00    -0.292 OA
HETATM    3  C1  UNK     1       7.773   5.747   8.869  1.00  0.00     0.169 C 
HETATM    4  C2  UNK     1       7.894   6.670  10.080  1.00  0.00     0.121 C 
HETATM    5  C4  UNK     1       6.675   6.502  10.950  1.00  0.00     0.165 C 
HETATM    6  C5  UNK     1       6.064   5.157  10.953  1.00  0.00     0.043 A 
HETATM    7  C6  UNK     1       6.604   4.162  10.132  1.00  0.00     0.083 A 
HETATM    8  C9  UNK     1       4.988   4.869  11.797  1.00  0.00     0.018 A 
HETATM    9  C10 UNK     1       6.086   2.867  10.181  1.00  0.00     0.038 A 
HETATM   10  C13 UNK     1       4.462   3.577  11.826  1.00  0.00     0.001 A 
HETATM   11  C14 UNK     1       5.013   2.577  11.025  1.00  0.00     0.003 A 
ENDROOT
BRANCH   3  12
HETATM   12  C3  UNK     1       8.982   5.873   7.964  1.00  0.00    -0.028 A 
HETATM   13  C7  UNK     1       8.809   6.116   6.603  1.00  0.00     0.012 A 
HETATM   14  C11 UNK     1       9.922   6.231   5.769  1.00  0.00     0.037 A 
HETATM   15  C15 UNK     1      11.206   6.105   6.298  1.00  0.00     0.065 A 
HETATM   16  C12 UNK     1      11.378   5.862   7.661  1.00  0.00     0.037 A 
HETATM   17  C8  UNK     1      10.265   5.747   8.495  1.00  0.00     0.012 A 
BRANCH  15  18
HETATM   18  O3  UNK     1      12.291   6.218   5.485  1.00  0.00    -0.361 OA
HETATM   19  H12 UNK     1      13.074   5.887   5.957  1.00  0.00     0.217 HD
ENDBRANCH  15  18
ENDBRANCH   3  12
TORSDOF 2
ENDMDL
