MODEL 1
REMARK VINA RESULT:      -7.9      0.000      0.000
REMARK  7 active torsions:
REMARK  status: ('A' for Active; 'I' for Inactive)
REMARK    1  A    between atoms: C4_10  and  O1_2 
REMARK    2  A    between atoms: C20_26  and  O3_4 
REMARK    3  A    between atoms: C1_7  and  N1_5 
REMARK    4  A    between atoms: C1_7  and  C2_8 
REMARK    5  A    between atoms: C13_19  and  C8_14 
REMARK    6  A    between atoms: C14_20  and  C15_21 
REMARK    7  A    between atoms: C15_21  and  C17_23 
ROOT
HETATM    1  C2  UNK     1      12.681   7.083   9.478  1.00  0.00    -0.004 A 
HETATM    2  C4  UNK     1      13.337   5.853   9.468  1.00  0.00     0.076 A 
HETATM    3  C5  UNK     1      11.628   7.319   8.595  1.00  0.00     0.023 A 
HETATM    4  C8  UNK     1      11.230   6.324   7.702  1.00  0.00    -0.035 A 
HETATM    5  C10 UNK     1      12.940   4.858   8.575  1.00  0.00     0.038 A 
HETATM    6  C11 UNK     1      11.887   5.094   7.691  1.00  0.00     0.014 A 
ENDROOT
BRANCH   4   7
HETATM    7  C13 UNK     1      10.118   6.573   6.768  1.00  0.00     0.015 C 
HETATM    8  C14 UNK     1       8.822   6.393   7.064  1.00  0.00     0.056 C 
BRANCH   8   9
HETATM    9  C15 UNK     1       8.409   5.905   8.425  1.00  0.00     0.182 C 
HETATM   10  O2  UNK     1       8.492   4.702   8.714  1.00  0.00    -0.288 OA
BRANCH   9  11
HETATM   11  C17 UNK     1       7.940   6.877   9.400  1.00  0.00     0.014 A 
HETATM   12  C19 UNK     1       8.521   8.143   9.458  1.00  0.00     0.018 A 
HETATM   13  C22 UNK     1       8.070   9.076  10.392  1.00  0.00     0.037 A 
HETATM   14  C20 UNK     1       7.038   8.742  11.269  1.00  0.00     0.068 A 
HETATM   15  C21 UNK     1       6.458   7.474  11.212  1.00  0.00     0.037 A 
HETATM   16  C18 UNK     1       6.908   6.542  10.277  1.00  0.00     0.018 A 
BRANCH  14  17
HETATM   17  O3  UNK     1       6.599   9.651  12.181  1.00  0.00    -0.356 OA
HETATM   18  C23 UNK     1       6.889  11.024  11.921  1.00  0.00     0.210 C 
ENDBRANCH  14  17
ENDBRANCH   9  11
ENDBRANCH   8   9
ENDBRANCH   4   7
BRANCH   1  19
HETATM   19  C1  UNK     1      13.094   8.160  10.427  1.00  0.00     0.192 C 
BRANCH  19  20
HETATM   20  N1  UNK     1      14.241   9.012   9.926  1.00  0.00    -0.268 N 
HETATM   21  C3  UNK     1      15.472   9.149  10.498  1.00  0.00     0.046 A 
HETATM   22  C6  UNK     1      16.167  10.016   9.692  1.00  0.00     0.060 A 
HETATM   23  C9  UNK     1      15.855   8.447  11.739  1.00  0.00     0.071 C 
HETATM   24 Br1  UNK     1      17.913  10.646   9.880  1.00  0.00    -0.047 Br
HETATM   25  C7  UNK     1      15.263  10.342   8.664  1.00  0.00     0.070 A 
HETATM   26  C12 UNK     1      15.474  11.240   7.514  1.00  0.00     0.074 C 
HETATM   27  N2  UNK     1      14.083   9.731   8.802  1.00  0.00    -0.176 NA
ENDBRANCH  19  20
ENDBRANCH   1  19
BRANCH   2  28
HETATM   28  O1  UNK     1      14.369   5.606  10.323  1.00  0.00    -0.355 OA
HETATM   29  C16 UNK     1      15.637   5.313   9.740  1.00  0.00     0.210 C 
ENDBRANCH   2  28
TORSDOF 7
ENDMDL
MODEL 2
REMARK VINA RESULT:      -7.9     34.381     36.612
REMARK  7 active torsions:
REMARK  status: ('A' for Active; 'I' for Inactive)
REMARK    1  A    between atoms: C4_10  and  O1_2 
REMARK    2  A    between atoms: C20_26  and  O3_4 
REMARK    3  A    between atoms: C1_7  and  N1_5 
REMARK    4  A    between atoms: C1_7  and  C2_8 
REMARK    5  A    between atoms: C13_19  and  C8_14 
REMARK    6  A    between atoms: C14_20  and  C15_21 
REMARK    7  A    between atoms: C15_21  and  C17_23 
ROOT
HETATM    1  C2  UNK     1      30.293  -9.808  35.970  1.00  0.00    -0.004 A 
HETATM    2  C4  UNK     1      29.331  -9.888  34.964  1.00  0.00     0.076 A 
HETATM    3  C5  UNK     1      29.911  -9.514  37.279  1.00  0.00     0.023 A 
HETATM    4  C8  UNK     1      28.566  -9.300  37.581  1.00  0.00    -0.035 A 
HETATM    5  C10 UNK     1      27.985  -9.674  35.267  1.00  0.00     0.038 A 
HETATM    6  C11 UNK     1      27.603  -9.379  36.575  1.00  0.00     0.014 A 
ENDROOT
BRANCH   4   7
HETATM    7  C13 UNK     1      28.162  -8.988  38.963  1.00  0.00     0.015 C 
HETATM    8  C14 UNK     1      27.740  -7.784  39.380  1.00  0.00     0.056 C 
BRANCH   8   9
HETATM    9  C15 UNK     1      27.651  -6.631  38.420  1.00  0.00     0.182 C 
HETATM   10  O2  UNK     1      26.551  -6.256  37.986  1.00  0.00    -0.288 OA
BRANCH   9  11
HETATM   11  C17 UNK     1      28.877  -5.948  38.036  1.00  0.00     0.014 A 
HETATM   12  C19 UNK     1      29.355  -6.053  36.730  1.00  0.00     0.018 A 
HETATM   13  C22 UNK     1      30.529  -5.397  36.362  1.00  0.00     0.037 A 
HETATM   14  C20 UNK     1      31.226  -4.636  37.300  1.00  0.00     0.068 A 
HETATM   15  C21 UNK     1      30.749  -4.532  38.607  1.00  0.00     0.037 A 
HETATM   16  C18 UNK     1      29.574  -5.188  38.975  1.00  0.00     0.018 A 
BRANCH  14  17
HETATM   17  O3  UNK     1      32.372  -3.996  36.941  1.00  0.00    -0.356 OA
HETATM   18  C23 UNK     1      32.237  -2.713  36.332  1.00  0.00     0.210 C 
ENDBRANCH  14  17
ENDBRANCH   9  11
ENDBRANCH   8   9
ENDBRANCH   4   7
BRANCH   1  19
HETATM   19  C1  UNK     1      31.737 -10.034  35.664  1.00  0.00     0.192 C 
BRANCH  19  20
HETATM   20  N1  UNK     1      32.584  -8.781  35.744  1.00  0.00    -0.268 N 
HETATM   21  C3  UNK     1      32.941  -7.964  34.711  1.00  0.00     0.046 A 
HETATM   22  C6  UNK     1      33.703  -6.966  35.267  1.00  0.00     0.060 A 
HETATM   23  C9  UNK     1      32.525  -8.216  33.318  1.00  0.00     0.071 C 
HETATM   24 Br1  UNK     1      34.519  -5.512  34.431  1.00  0.00    -0.047 Br
HETATM   25  C7  UNK     1      33.742  -7.277  36.639  1.00  0.00     0.070 A 
HETATM   26  C12 UNK     1      34.423  -6.543  37.721  1.00  0.00     0.074 C 
HETATM   27  N2  UNK     1      33.060  -8.386  36.937  1.00  0.00    -0.176 NA
ENDBRANCH  19  20
ENDBRANCH   1  19
BRANCH   2  28
HETATM   28  O1  UNK     1      29.687 -10.174  33.681  1.00  0.00    -0.355 OA
HETATM   29  C16 UNK     1      29.041  -9.431  32.649  1.00  0.00     0.210 C 
ENDBRANCH   2  28
TORSDOF 7
ENDMDL
MODEL 3
REMARK VINA RESULT:      -7.8     22.486     24.756
REMARK  7 active torsions:
REMARK  status: ('A' for Active; 'I' for Inactive)
REMARK    1  A    between atoms: C4_10  and  O1_2 
REMARK    2  A    between atoms: C20_26  and  O3_4 
REMARK    3  A    between atoms: C1_7  and  N1_5 
REMARK    4  A    between atoms: C1_7  and  C2_8 
REMARK    5  A    between atoms: C13_19  and  C8_14 
REMARK    6  A    between atoms: C14_20  and  C15_21 
REMARK    7  A    between atoms: C15_21  and  C17_23 
ROOT
HETATM    1  C2  UNK     1      17.978   6.367  33.119  1.00  0.00    -0.004 A 
HETATM    2  C4  UNK     1      19.272   6.718  33.499  1.00  0.00     0.076 A 
HETATM    3  C5  UNK     1      17.755   5.749  31.889  1.00  0.00     0.023 A 
HETATM    4  C8  UNK     1      18.828   5.483  31.038  1.00  0.00    -0.035 A 
HETATM    5  C10 UNK     1      20.346   6.451  32.649  1.00  0.00     0.038 A 
HETATM    6  C11 UNK     1      20.123   5.834  31.418  1.00  0.00     0.014 A 
ENDROOT
BRANCH   4   7
HETATM    7  C13 UNK     1      18.594   4.831  29.738  1.00  0.00     0.015 C 
HETATM    8  C14 UNK     1      18.408   3.513  29.570  1.00  0.00     0.056 C 
BRANCH   8   9
HETATM    9  C15 UNK     1      18.429   2.581  30.750  1.00  0.00     0.182 C 
HETATM   10  O2  UNK     1      17.920   2.920  31.829  1.00  0.00    -0.288 OA
BRANCH   9  11
HETATM   11  C17 UNK     1      19.031   1.267  30.588  1.00  0.00     0.014 A 
HETATM   12  C19 UNK     1      19.083   0.386  31.669  1.00  0.00     0.018 A 
HETATM   13  C22 UNK     1      19.658  -0.875  31.514  1.00  0.00     0.037 A 
HETATM   14  C20 UNK     1      20.182  -1.256  30.278  1.00  0.00     0.068 A 
HETATM   15  C21 UNK     1      20.130  -0.374  29.198  1.00  0.00     0.037 A 
HETATM   16  C18 UNK     1      19.554   0.887  29.353  1.00  0.00     0.018 A 
BRANCH  14  17
HETATM   17  O3  UNK     1      20.743  -2.486  30.127  1.00  0.00    -0.356 OA
HETATM   18  C23 UNK     1      20.981  -3.241  31.313  1.00  0.00     0.210 C 
ENDBRANCH  14  17
ENDBRANCH   9  11
ENDBRANCH   8   9
ENDBRANCH   4   7
BRANCH   1  19
HETATM   19  C1  UNK     1      16.817   6.645  34.017  1.00  0.00     0.192 C 
BRANCH  19  20
HETATM   20  N1  UNK     1      16.242   8.037  33.862  1.00  0.00    -0.268 N 
HETATM   21  C3  UNK     1      15.120   8.389  33.169  1.00  0.00     0.046 A 
HETATM   22  C6  UNK     1      15.001   9.749  33.315  1.00  0.00     0.060 A 
HETATM   23  C9  UNK     1      14.289   7.406  32.448  1.00  0.00     0.071 C 
HETATM   24 Br1  UNK     1      13.694  10.890  32.628  1.00  0.00    -0.047 Br
HETATM   25  C7  UNK     1      16.100  10.116  34.112  1.00  0.00     0.070 A 
HETATM   26  C12 UNK     1      16.475  11.461  34.586  1.00  0.00     0.074 C 
HETATM   27  N2  UNK     1      16.863   9.073  34.450  1.00  0.00    -0.176 NA
ENDBRANCH  19  20
ENDBRANCH   1  19
BRANCH   2  28
HETATM   28  O1  UNK     1      19.507   7.322  34.698  1.00  0.00    -0.355 OA
HETATM   29  C16 UNK     1      20.022   8.653  34.662  1.00  0.00     0.210 C 
ENDBRANCH   2  28
TORSDOF 7
ENDMDL
MODEL 4
REMARK VINA RESULT:      -7.6     32.864     36.325
REMARK  7 active torsions:
REMARK  status: ('A' for Active; 'I' for Inactive)
REMARK    1  A    between atoms: C4_10  and  O1_2 
REMARK    2  A    between atoms: C20_26  and  O3_4 
REMARK    3  A    between atoms: C1_7  and  N1_5 
REMARK    4  A    between atoms: C1_7  and  C2_8 
REMARK    5  A    between atoms: C13_19  and  C8_14 
REMARK    6  A    between atoms: C14_20  and  C15_21 
REMARK    7  A    between atoms: C15_21  and  C17_23 
ROOT
HETATM    1  C2  UNK     1      33.377  -7.013  34.446  1.00  0.00    -0.004 A 
HETATM    2  C4  UNK     1      34.736  -6.751  34.612  1.00  0.00     0.076 A 
HETATM    3  C5  UNK     1      32.429  -6.103  34.914  1.00  0.00     0.023 A 
HETATM    4  C8  UNK     1      32.841  -4.931  35.548  1.00  0.00    -0.035 A 
HETATM    5  C10 UNK     1      35.148  -5.578  35.246  1.00  0.00     0.038 A 
HETATM    6  C11 UNK     1      34.200  -4.669  35.715  1.00  0.00     0.014 A 
ENDROOT
BRANCH   4   7
HETATM    7  C13 UNK     1      31.840  -3.970  36.043  1.00  0.00     0.015 C 
HETATM    8  C14 UNK     1      31.269  -4.023  37.256  1.00  0.00     0.056 C 
BRANCH   8   9
HETATM    9  C15 UNK     1      31.631  -5.114  38.224  1.00  0.00     0.182 C 
HETATM   10  O2  UNK     1      32.622  -4.999  38.960  1.00  0.00    -0.288 OA
BRANCH   9  11
HETATM   11  C17 UNK     1      30.777  -6.290  38.300  1.00  0.00     0.014 A 
HETATM   12  C19 UNK     1      29.452  -6.164  38.717  1.00  0.00     0.018 A 
HETATM   13  C22 UNK     1      28.634  -7.291  38.787  1.00  0.00     0.037 A 
HETATM   14  C20 UNK     1      29.140  -8.544  38.442  1.00  0.00     0.068 A 
HETATM   15  C21 UNK     1      30.466  -8.669  38.026  1.00  0.00     0.037 A 
HETATM   16  C18 UNK     1      31.285  -7.542  37.954  1.00  0.00     0.018 A 
BRANCH  14  17
HETATM   17  O3  UNK     1      28.342  -9.644  38.511  1.00  0.00    -0.356 OA
HETATM   18  C23 UNK     1      27.582  -9.821  39.705  1.00  0.00     0.210 C 
ENDBRANCH  14  17
ENDBRANCH   9  11
ENDBRANCH   8   9
ENDBRANCH   4   7
BRANCH   1  19
HETATM   19  C1  UNK     1      32.918  -8.263  33.770  1.00  0.00     0.192 C 
BRANCH  19  20
HETATM   20  N1  UNK     1      31.825  -8.039  32.745  1.00  0.00    -0.268 N 
HETATM   21  C3  UNK     1      30.525  -8.443  32.831  1.00  0.00     0.046 A 
HETATM   22  C6  UNK     1      29.922  -8.015  31.674  1.00  0.00     0.060 A 
HETATM   23  C9  UNK     1      29.997  -9.186  33.992  1.00  0.00     0.071 C 
HETATM   24 Br1  UNK     1      28.150  -8.226  31.129  1.00  0.00    -0.047 Br
HETATM   25  C7  UNK     1      30.947  -7.367  30.961  1.00  0.00     0.070 A 
HETATM   26  C12 UNK     1      30.869  -6.712  29.643  1.00  0.00     0.074 C 
HETATM   27  N2  UNK     1      32.114  -7.378  31.611  1.00  0.00    -0.176 NA
ENDBRANCH  19  20
ENDBRANCH   1  19
BRANCH   2  28
HETATM   28  O1  UNK     1      35.675  -7.629  34.161  1.00  0.00    -0.355 OA
HETATM   29  C16 UNK     1      37.021  -7.409  34.581  1.00  0.00     0.210 C 
ENDBRANCH   2  28
TORSDOF 7
ENDMDL
MODEL 5
REMARK VINA RESULT:      -7.6     31.780     35.121
REMARK  7 active torsions:
REMARK  status: ('A' for Active; 'I' for Inactive)
REMARK    1  A    between atoms: C4_10  and  O1_2 
REMARK    2  A    between atoms: C20_26  and  O3_4 
REMARK    3  A    between atoms: C1_7  and  N1_5 
REMARK    4  A    between atoms: C1_7  and  C2_8 
REMARK    5  A    between atoms: C13_19  and  C8_14 
REMARK    6  A    between atoms: C14_20  and  C15_21 
REMARK    7  A    between atoms: C15_21  and  C17_23 
ROOT
HETATM    1  C2  UNK     1      31.073  -7.790  33.846  1.00  0.00    -0.004 A 
HETATM    2  C4  UNK     1      32.203  -8.506  33.454  1.00  0.00     0.076 A 
HETATM    3  C5  UNK     1      31.189  -6.451  34.218  1.00  0.00     0.023 A 
HETATM    4  C8  UNK     1      32.438  -5.828  34.197  1.00  0.00    -0.035 A 
HETATM    5  C10 UNK     1      33.451  -7.883  33.433  1.00  0.00     0.038 A 
HETATM    6  C11 UNK     1      33.568  -6.544  33.806  1.00  0.00     0.014 A 
ENDROOT
BRANCH   4   7
HETATM    7  C13 UNK     1      32.562  -4.413  34.590  1.00  0.00     0.015 C 
HETATM    8  C14 UNK     1      32.646  -3.981  35.858  1.00  0.00     0.056 C 
BRANCH   8   9
HETATM    9  C15 UNK     1      32.616  -4.955  37.002  1.00  0.00     0.182 C 
HETATM   10  O2  UNK     1      33.664  -5.480  37.409  1.00  0.00    -0.288 OA
BRANCH   9  11
HETATM   11  C17 UNK     1      31.340  -5.244  37.638  1.00  0.00     0.014 A 
HETATM   12  C19 UNK     1      30.472  -4.202  37.963  1.00  0.00     0.018 A 
HETATM   13  C22 UNK     1      29.247  -4.479  38.572  1.00  0.00     0.037 A 
HETATM   14  C20 UNK     1      28.892  -5.797  38.856  1.00  0.00     0.068 A 
HETATM   15  C21 UNK     1      29.762  -6.839  38.532  1.00  0.00     0.037 A 
HETATM   16  C18 UNK     1      30.986  -6.562  37.922  1.00  0.00     0.018 A 
BRANCH  14  17
HETATM   17  O3  UNK     1      27.698  -6.067  39.450  1.00  0.00    -0.356 OA
HETATM   18  C23 UNK     1      26.792  -6.905  38.735  1.00  0.00     0.210 C 
ENDBRANCH  14  17
ENDBRANCH   9  11
ENDBRANCH   8   9
ENDBRANCH   4   7
BRANCH   1  19
HETATM   19  C1  UNK     1      29.729  -8.441  33.874  1.00  0.00     0.192 C 
BRANCH  19  20
HETATM   20  N1  UNK     1      28.928  -8.250  32.603  1.00  0.00    -0.268 N 
HETATM   21  C3  UNK     1      28.024  -7.261  32.344  1.00  0.00     0.046 A 
HETATM   22  C6  UNK     1      27.561  -7.500  31.073  1.00  0.00     0.060 A 
HETATM   23  C9  UNK     1      27.699  -6.204  33.321  1.00  0.00     0.071 C 
HETATM   24 Br1  UNK     1      26.305  -6.539  30.085  1.00  0.00    -0.047 Br
HETATM   25  C7  UNK     1      28.249  -8.655  30.659  1.00  0.00     0.070 A 
HETATM   26  C12 UNK     1      28.146  -9.367  29.372  1.00  0.00     0.074 C 
HETATM   27  N2  UNK     1      29.087  -9.119  31.590  1.00  0.00    -0.176 NA
ENDBRANCH  19  20
ENDBRANCH   1  19
BRANCH   2  28
HETATM   28  O1  UNK     1      32.106  -9.815  33.088  1.00  0.00    -0.355 OA
HETATM   29  C16 UNK     1      32.579 -10.160  31.787  1.00  0.00     0.210 C 
ENDBRANCH   2  28
TORSDOF 7
ENDMDL
MODEL 6
REMARK VINA RESULT:      -7.6     31.370     34.138
REMARK  7 active torsions:
REMARK  status: ('A' for Active; 'I' for Inactive)
REMARK    1  A    between atoms: C4_10  and  O1_2 
REMARK    2  A    between atoms: C20_26  and  O3_4 
REMARK    3  A    between atoms: C1_7  and  N1_5 
REMARK    4  A    between atoms: C1_7  and  C2_8 
REMARK    5  A    between atoms: C13_19  and  C8_14 
REMARK    6  A    between atoms: C14_20  and  C15_21 
REMARK    7  A    between atoms: C15_21  and  C17_23 
ROOT
HETATM    1  C2  UNK     1      30.988  -8.080  28.950  1.00  0.00    -0.004 A 
HETATM    2  C4  UNK     1      29.907  -8.961  28.925  1.00  0.00     0.076 A 
HETATM    3  C5  UNK     1      30.842  -6.813  29.513  1.00  0.00     0.023 A 
HETATM    4  C8  UNK     1      29.613  -6.426  30.051  1.00  0.00    -0.035 A 
HETATM    5  C10 UNK     1      28.679  -8.575  29.462  1.00  0.00     0.038 A 
HETATM    6  C11 UNK     1      28.532  -7.307  30.025  1.00  0.00     0.014 A 
ENDROOT
BRANCH   4   7
HETATM    7  C13 UNK     1      29.458  -5.087  30.645  1.00  0.00     0.015 C 
HETATM    8  C14 UNK     1      29.603  -4.812  31.951  1.00  0.00     0.056 C 
BRANCH   8   9
HETATM    9  C15 UNK     1      29.948  -5.902  32.927  1.00  0.00     0.182 C 
HETATM   10  O2  UNK     1      29.087  -6.716  33.293  1.00  0.00    -0.288 OA
BRANCH   9  11
HETATM   11  C17 UNK     1      31.318  -5.997  33.409  1.00  0.00     0.014 A 
HETATM   12  C19 UNK     1      31.819  -5.033  34.283  1.00  0.00     0.018 A 
HETATM   13  C22 UNK     1      33.131  -5.125  34.746  1.00  0.00     0.037 A 
HETATM   14  C20 UNK     1      33.943  -6.182  34.334  1.00  0.00     0.068 A 
HETATM   15  C21 UNK     1      33.442  -7.146  33.459  1.00  0.00     0.037 A 
HETATM   16  C18 UNK     1      32.129  -7.054  32.996  1.00  0.00     0.018 A 
BRANCH  14  17
HETATM   17  O3  UNK     1      35.223  -6.272  34.786  1.00  0.00    -0.356 OA
HETATM   18  C23 UNK     1      35.476  -5.829  36.118  1.00  0.00     0.210 C 
ENDBRANCH  14  17
ENDBRANCH   9  11
ENDBRANCH   8   9
ENDBRANCH   4   7
BRANCH   1  19
HETATM   19  C1  UNK     1      32.309  -8.477  28.379  1.00  0.00     0.192 C 
BRANCH  19  20
HETATM   20  N1  UNK     1      33.275  -9.040  29.402  1.00  0.00    -0.268 N 
HETATM   21  C3  UNK     1      34.297  -8.378  30.016  1.00  0.00     0.046 A 
HETATM   22  C6  UNK     1      34.887  -9.292  30.854  1.00  0.00     0.060 A 
HETATM   23  C9  UNK     1      34.603  -6.959  29.746  1.00  0.00     0.071 C 
HETATM   24 Br1  UNK     1      36.343  -9.064  31.997  1.00  0.00    -0.047 Br
HETATM   25  C7  UNK     1      34.144 -10.472  30.666  1.00  0.00     0.070 A 
HETATM   26  C12 UNK     1      34.334 -11.783  31.314  1.00  0.00     0.074 C 
HETATM   27  N2  UNK     1      33.156 -10.324  29.779  1.00  0.00    -0.176 NA
ENDBRANCH  19  20
ENDBRANCH   1  19
BRANCH   2  28
HETATM   28  O1  UNK     1      30.033 -10.203  28.378  1.00  0.00    -0.355 OA
HETATM   29  C16 UNK     1      29.853 -11.316  29.252  1.00  0.00     0.210 C 
ENDBRANCH   2  28
TORSDOF 7
ENDMDL
MODEL 7
REMARK VINA RESULT:      -7.6     30.901     34.284
REMARK  7 active torsions:
REMARK  status: ('A' for Active; 'I' for Inactive)
REMARK    1  A    between atoms: C4_10  and  O1_2 
REMARK    2  A    between atoms: C20_26  and  O3_4 
REMARK    3  A    between atoms: C1_7  and  N1_5 
REMARK    4  A    between atoms: C1_7  and  C2_8 
REMARK    5  A    between atoms: C13_19  and  C8_14 
REMARK    6  A    between atoms: C14_20  and  C15_21 
REMARK    7  A    between atoms: C15_21  and  C17_23 
ROOT
HETATM    1  C2  UNK     1      28.863  -7.526  34.494  1.00  0.00    -0.004 A 
HETATM    2  C4  UNK     1      29.196  -8.875  34.380  1.00  0.00     0.076 A 
HETATM    3  C5  UNK     1      28.267  -6.861  33.423  1.00  0.00     0.023 A 
HETATM    4  C8  UNK     1      28.004  -7.547  32.237  1.00  0.00    -0.035 A 
HETATM    5  C10 UNK     1      28.932  -9.561  33.194  1.00  0.00     0.038 A 
HETATM    6  C11 UNK     1      28.336  -8.896  32.122  1.00  0.00     0.014 A 
ENDROOT
BRANCH   4   7
HETATM    7  C13 UNK     1      27.374  -6.845  31.104  1.00  0.00     0.015 C 
HETATM    8  C14 UNK     1      28.025  -6.035  30.255  1.00  0.00     0.056 C 
BRANCH   8   9
HETATM    9  C15 UNK     1      29.498  -5.785  30.414  1.00  0.00     0.182 C 
HETATM   10  O2  UNK     1      29.911  -4.682  30.804  1.00  0.00    -0.288 OA
BRANCH   9  11
HETATM   11  C17 UNK     1      30.424  -6.871  30.131  1.00  0.00     0.014 A 
HETATM   12  C19 UNK     1      31.465  -7.149  31.017  1.00  0.00     0.018 A 
HETATM   13  C22 UNK     1      32.351  -8.191  30.747  1.00  0.00     0.037 A 
HETATM   14  C20 UNK     1      32.197  -8.956  29.591  1.00  0.00     0.068 A 
HETATM   15  C21 UNK     1      31.156  -8.677  28.704  1.00  0.00     0.037 A 
HETATM   16  C18 UNK     1      30.269  -7.635  28.974  1.00  0.00     0.018 A 
BRANCH  14  17
HETATM   17  O3  UNK     1      33.062  -9.972  29.327  1.00  0.00    -0.356 OA
HETATM   18  C23 UNK     1      32.945 -11.149  30.125  1.00  0.00     0.210 C 
ENDBRANCH  14  17
ENDBRANCH   9  11
ENDBRANCH   8   9
ENDBRANCH   4   7
BRANCH   1  19
HETATM   19  C1  UNK     1      29.139  -6.777  35.756  1.00  0.00     0.192 C 
BRANCH  19  20
HETATM   20  N1  UNK     1      30.590  -6.378  35.928  1.00  0.00    -0.268 N 
HETATM   21  C3  UNK     1      31.428  -6.747  36.940  1.00  0.00     0.046 A 
HETATM   22  C6  UNK     1      32.632  -6.145  36.669  1.00  0.00     0.060 A 
HETATM   23  C9  UNK     1      31.000  -7.624  38.048  1.00  0.00     0.071 C 
HETATM   24 Br1  UNK     1      34.224  -6.221  37.638  1.00  0.00    -0.047 Br
HETATM   25  C7  UNK     1      32.410  -5.438  35.473  1.00  0.00     0.070 A 
HETATM   26  C12 UNK     1      33.362  -4.606  34.715  1.00  0.00     0.074 C 
HETATM   27  N2  UNK     1      31.163  -5.577  35.015  1.00  0.00    -0.176 NA
ENDBRANCH  19  20
ENDBRANCH   1  19
BRANCH   2  28
HETATM   28  O1  UNK     1      29.779  -9.539  35.417  1.00  0.00    -0.355 OA
HETATM   29  C16 UNK     1      31.072 -10.095  35.184  1.00  0.00     0.210 C 
ENDBRANCH   2  28
TORSDOF 7
ENDMDL
MODEL 8
REMARK VINA RESULT:      -7.6     31.177     33.836
REMARK  7 active torsions:
REMARK  status: ('A' for Active; 'I' for Inactive)
REMARK    1  A    between atoms: C4_10  and  O1_2 
REMARK    2  A    between atoms: C20_26  and  O3_4 
REMARK    3  A    between atoms: C1_7  and  N1_5 
REMARK    4  A    between atoms: C1_7  and  C2_8 
REMARK    5  A    between atoms: C13_19  and  C8_14 
REMARK    6  A    between atoms: C14_20  and  C15_21 
REMARK    7  A    between atoms: C15_21  and  C17_23 
ROOT
HETATM    1  C2  UNK     1      31.655  -9.563  30.481  1.00  0.00    -0.004 A 
HETATM    2  C4  UNK     1      32.143  -8.935  29.336  1.00  0.00     0.076 A 
HETATM    3  C5  UNK     1      30.282  -9.595  30.728  1.00  0.00     0.023 A 
HETATM    4  C8  UNK     1      29.398  -8.997  29.829  1.00  0.00    -0.035 A 
HETATM    5  C10 UNK     1      31.259  -8.337  28.437  1.00  0.00     0.038 A 
HETATM    6  C11 UNK     1      29.887  -8.368  28.684  1.00  0.00     0.014 A 
ENDROOT
BRANCH   4   7
HETATM    7  C13 UNK     1      27.948  -9.029  30.089  1.00  0.00     0.015 C 
HETATM    8  C14 UNK     1      27.223  -7.972  30.484  1.00  0.00     0.056 C 
BRANCH   8   9
HETATM    9  C15 UNK     1      27.873  -6.633  30.694  1.00  0.00     0.182 C 
HETATM   10  O2  UNK     1      27.751  -5.735  29.848  1.00  0.00    -0.288 OA
BRANCH   9  11
HETATM   11  C17 UNK     1      28.621  -6.407  31.922  1.00  0.00     0.014 A 
HETATM   12  C19 UNK     1      28.054  -6.733  33.153  1.00  0.00     0.018 A 
HETATM   13  C22 UNK     1      28.771  -6.518  34.330  1.00  0.00     0.037 A 
HETATM   14  C20 UNK     1      30.055  -5.976  34.275  1.00  0.00     0.068 A 
HETATM   15  C21 UNK     1      30.621  -5.648  33.043  1.00  0.00     0.037 A 
HETATM   16  C18 UNK     1      29.904  -5.864  31.866  1.00  0.00     0.018 A 
BRANCH  14  17
HETATM   17  O3  UNK     1      30.754  -5.765  35.423  1.00  0.00    -0.356 OA
HETATM   18  C23 UNK     1      30.004  -5.669  36.633  1.00  0.00     0.210 C 
ENDBRANCH  14  17
ENDBRANCH   9  11
ENDBRANCH   8   9
ENDBRANCH   4   7
BRANCH   1  19
HETATM   19  C1  UNK     1      32.586 -10.208  31.454  1.00  0.00     0.192 C 
BRANCH  19  20
HETATM   20  N1  UNK     1      32.785  -9.415  32.730  1.00  0.00    -0.268 N 
HETATM   21  C3  UNK     1      32.381  -9.766  33.985  1.00  0.00     0.046 A 
HETATM   22  C6  UNK     1      32.782  -8.743  34.808  1.00  0.00     0.060 A 
HETATM   23  C9  UNK     1      31.663 -11.024  34.267  1.00  0.00     0.071 C 
HETATM   24 Br1  UNK     1      32.556  -8.565  36.651  1.00  0.00    -0.047 Br
HETATM   25  C7  UNK     1      33.417  -7.827  33.948  1.00  0.00     0.070 A 
HETATM   26  C12 UNK     1      34.042  -6.537  34.290  1.00  0.00     0.074 C 
HETATM   27  N2  UNK     1      33.422  -8.233  32.675  1.00  0.00    -0.176 NA
ENDBRANCH  19  20
ENDBRANCH   1  19
BRANCH   2  28
HETATM   28  O1  UNK     1      33.481  -8.895  29.081  1.00  0.00    -0.355 OA
HETATM   29  C16 UNK     1      34.109  -7.614  29.121  1.00  0.00     0.210 C 
ENDBRANCH   2  28
TORSDOF 7
ENDMDL
MODEL 9
REMARK VINA RESULT:      -7.5     32.283     35.805
REMARK  7 active torsions:
REMARK  status: ('A' for Active; 'I' for Inactive)
REMARK    1  A    between atoms: C4_10  and  O1_2 
REMARK    2  A    between atoms: C20_26  and  O3_4 
REMARK    3  A    between atoms: C1_7  and  N1_5 
REMARK    4  A    between atoms: C1_7  and  C2_8 
REMARK    5  A    between atoms: C13_19  and  C8_14 
REMARK    6  A    between atoms: C14_20  and  C15_21 
REMARK    7  A    between atoms: C15_21  and  C17_23 
ROOT
HETATM    1  C2  UNK     1      30.546  -7.329  33.802  1.00  0.00    -0.004 A 
HETATM    2  C4  UNK     1      30.528  -5.992  33.405  1.00  0.00     0.076 A 
HETATM    3  C5  UNK     1      31.602  -7.814  34.572  1.00  0.00     0.023 A 
HETATM    4  C8  UNK     1      32.641  -6.961  34.947  1.00  0.00    -0.035 A 
HETATM    5  C10 UNK     1      31.567  -5.139  33.780  1.00  0.00     0.038 A 
HETATM    6  C11 UNK     1      32.623  -5.624  34.550  1.00  0.00     0.014 A 
ENDROOT
BRANCH   4   7
HETATM    7  C13 UNK     1      33.757  -7.473  35.761  1.00  0.00     0.015 C 
HETATM    8  C14 UNK     1      33.812  -7.414  37.101  1.00  0.00     0.056 C 
BRANCH   8   9
HETATM    9  C15 UNK     1      32.689  -6.796  37.885  1.00  0.00     0.182 C 
HETATM   10  O2  UNK     1      32.787  -5.638  38.319  1.00  0.00    -0.288 OA
BRANCH   9  11
HETATM   11  C17 UNK     1      31.477  -7.572  38.096  1.00  0.00     0.014 A 
HETATM   12  C19 UNK     1      30.246  -6.926  38.216  1.00  0.00     0.018 A 
HETATM   13  C22 UNK     1      29.084  -7.671  38.416  1.00  0.00     0.037 A 
HETATM   14  C20 UNK     1      29.152  -9.061  38.498  1.00  0.00     0.068 A 
HETATM   15  C21 UNK     1      30.383  -9.707  38.379  1.00  0.00     0.037 A 
HETATM   16  C18 UNK     1      31.545  -8.963  38.178  1.00  0.00     0.018 A 
BRANCH  14  17
HETATM   17  O3  UNK     1      28.018  -9.788  38.694  1.00  0.00    -0.356 OA
HETATM   18  C23 UNK     1      27.661 -10.082  40.043  1.00  0.00     0.210 C 
ENDBRANCH  14  17
ENDBRANCH   9  11
ENDBRANCH   8   9
ENDBRANCH   4   7
BRANCH   1  19
HETATM   19  C1  UNK     1      29.443  -8.256  33.409  1.00  0.00     0.192 C 
BRANCH  19  20
HETATM   20  N1  UNK     1      29.665  -8.944  32.078  1.00  0.00    -0.268 N 
HETATM   21  C3  UNK     1      28.853  -8.893  30.983  1.00  0.00     0.046 A 
HETATM   22  C6  UNK     1      29.464  -9.667  30.027  1.00  0.00     0.060 A 
HETATM   23  C9  UNK     1      27.595  -8.122  30.960  1.00  0.00     0.071 C 
HETATM   24 Br1  UNK     1      28.903 -10.037  28.287  1.00  0.00    -0.047 Br
HETATM   25  C7  UNK     1      30.634 -10.137  30.649  1.00  0.00     0.070 A 
HETATM   26  C12 UNK     1      31.676 -11.016  30.088  1.00  0.00     0.074 C 
HETATM   27  N2  UNK     1      30.763  -9.699  31.905  1.00  0.00    -0.176 NA
ENDBRANCH  19  20
ENDBRANCH   1  19
BRANCH   2  28
HETATM   28  O1  UNK     1      29.504  -5.503  32.652  1.00  0.00    -0.355 OA
HETATM   29  C16 UNK     1      29.814  -5.112  31.315  1.00  0.00     0.210 C 
ENDBRANCH   2  28
TORSDOF 7
ENDMDL
MODEL 10
REMARK VINA RESULT:      -7.5     30.760     34.188
REMARK  7 active torsions:
REMARK  status: ('A' for Active; 'I' for Inactive)
REMARK    1  A    between atoms: C4_10  and  O1_2 
REMARK    2  A    between atoms: C20_26  and  O3_4 
REMARK    3  A    between atoms: C1_7  and  N1_5 
REMARK    4  A    between atoms: C1_7  and  C2_8 
REMARK    5  A    between atoms: C13_19  and  C8_14 
REMARK    6  A    between atoms: C14_20  and  C15_21 
REMARK    7  A    between atoms: C15_21  and  C17_23 
ROOT
HETATM    1  C2  UNK     1      32.722  -6.693  33.983  1.00  0.00    -0.004 A 
HETATM    2  C4  UNK     1      33.341  -5.560  34.509  1.00  0.00     0.076 A 
HETATM    3  C5  UNK     1      33.461  -7.607  33.233  1.00  0.00     0.023 A 
HETATM    4  C8  UNK     1      34.821  -7.387  33.008  1.00  0.00    -0.035 A 
HETATM    5  C10 UNK     1      34.700  -5.340  34.285  1.00  0.00     0.038 A 
HETATM    6  C11 UNK     1      35.440  -6.253  33.533  1.00  0.00     0.014 A 
ENDROOT
BRANCH   4   7
HETATM    7  C13 UNK     1      35.602  -8.352  32.215  1.00  0.00     0.015 C 
HETATM    8  C14 UNK     1      35.651  -8.372  30.874  1.00  0.00     0.056 C 
BRANCH   8   9
HETATM    9  C15 UNK     1      34.877  -7.369  30.066  1.00  0.00     0.182 C 
HETATM   10  O2  UNK     1      35.396  -6.293  29.733  1.00  0.00    -0.288 OA
BRANCH   9  11
HETATM   11  C17 UNK     1      33.520  -7.701  29.658  1.00  0.00     0.014 A 
HETATM   12  C19 UNK     1      32.626  -6.686  29.318  1.00  0.00     0.018 A 
HETATM   13  C22 UNK     1      31.326  -7.005  28.925  1.00  0.00     0.037 A 
HETATM   14  C20 UNK     1      30.920  -8.338  28.874  1.00  0.00     0.068 A 
HETATM   15  C21 UNK     1      31.814  -9.353  29.216  1.00  0.00     0.037 A 
HETATM   16  C18 UNK     1      33.114  -9.035  29.608  1.00  0.00     0.018 A 
BRANCH  14  17
HETATM   17  O3  UNK     1      29.651  -8.648  28.491  1.00  0.00    -0.356 OA
HETATM   18  C23 UNK     1      29.138  -9.913  28.908  1.00  0.00     0.210 C 
ENDBRANCH  14  17
ENDBRANCH   9  11
ENDBRANCH   8   9
ENDBRANCH   4   7
BRANCH   1  19
HETATM   19  C1  UNK     1      31.268  -6.944  34.213  1.00  0.00     0.192 C 
BRANCH  19  20
HETATM   20  N1  UNK     1      30.380  -6.490  33.074  1.00  0.00    -0.268 N 
HETATM   21  C3  UNK     1      29.293  -7.143  32.570  1.00  0.00     0.046 A 
HETATM   22  C6  UNK     1      28.816  -6.351  31.556  1.00  0.00     0.060 A 
HETATM   23  C9  UNK     1      28.827  -8.439  33.101  1.00  0.00     0.071 C 
HETATM   24 Br1  UNK     1      27.350  -6.636  30.438  1.00  0.00    -0.047 Br
HETATM   25  C7  UNK     1      29.687  -5.246  31.531  1.00  0.00     0.070 A 
HETATM   26  C12 UNK     1      29.651  -4.075  30.637  1.00  0.00     0.074 C 
HETATM   27  N2  UNK     1      30.646  -5.326  32.458  1.00  0.00    -0.176 NA
ENDBRANCH  19  20
ENDBRANCH   1  19
BRANCH   2  28
HETATM   28  O1  UNK     1      32.633  -4.657  35.244  1.00  0.00    -0.355 OA
HETATM   29  C16 UNK     1      32.796  -4.705  36.660  1.00  0.00     0.210 C 
ENDBRANCH   2  28
TORSDOF 7
ENDMDL
