MODEL 1
REMARK VINA RESULT:      -9.3      0.000      0.000
REMARK  3 active torsions:
REMARK  status: ('A' for Active; 'I' for Inactive)
REMARK    1  A    between atoms: C5_11  and  N1_5 
REMARK       I    between atoms: C8_14  and  N2_6 
REMARK    2  A    between atoms: C5_11  and  C6_12 
REMARK    3  A    between atoms: C12_18  and  C8_14 
ROOT
HETATM    1  C5  UNK     1      18.496   6.287  32.942  1.00  0.00     0.312 C 
ENDROOT
BRANCH   1   2
HETATM    2  N1  UNK     1      18.132   4.985  32.386  1.00  0.00     0.095 N 
HETATM    3  C1  UNK     1      18.179   3.948  33.428  1.00  0.00     0.292 C 
HETATM    4  C3  UNK     1      17.756   2.595  32.857  1.00  0.00     0.156 C 
HETATM    5  N2  UNK     1      18.556   2.238  31.687  1.00  0.00    -0.343 N 
HETATM    6  C4  UNK     1      18.633   3.284  30.659  1.00  0.00     0.156 C 
HETATM    7  C8  UNK     1      19.123   0.956  31.597  1.00  0.00     0.277 C 
HETATM    8  C2  UNK     1      19.023   4.631  31.271  1.00  0.00     0.292 C 
HETATM    9  O2  UNK     1      19.466   0.294  32.576  1.00  0.00    -0.265 OA
BRANCH   7  10
HETATM   10  C12 UNK     1      19.307   0.398  30.261  1.00  0.00     0.142 A 
HETATM   11  O3  UNK     1      18.376   0.688  29.317  1.00  0.00    -0.317 OA
HETATM   12  C21 UNK     1      18.769   0.060  28.178  1.00  0.00     0.143 A 
HETATM   13  C20 UNK     1      19.942  -0.628  28.385  1.00  0.00     0.027 A 
HETATM   14  C18 UNK     1      20.292  -0.408  29.738  1.00  0.00     0.045 A 
ENDBRANCH   7  10
ENDBRANCH   1   2
BRANCH   1  15
HETATM   15  C6  UNK     1      17.270   7.126  32.877  1.00  0.00    -0.011 A 
HETATM   16  C7  UNK     1      17.223   8.515  33.354  1.00  0.00     0.012 A 
HETATM   17  C10 UNK     1      18.320   9.185  33.911  1.00  0.00    -0.048 A 
HETATM   18  C11 UNK     1      16.021   9.216  33.252  1.00  0.00     0.091 A 
HETATM   19  C13 UNK     1      18.204  10.510  34.345  1.00  0.00     0.014 A 
HETATM   20  C17 UNK     1      19.680   8.588  34.092  1.00  0.00     0.049 C 
HETATM   21  C15 UNK     1      16.991  11.185  34.231  1.00  0.00    -0.059 A 
HETATM   22  C14 UNK     1      15.889  10.538  33.681  1.00  0.00     0.045 A 
HETATM   23  C19 UNK     1      16.873  12.598  34.694  1.00  0.00     0.048 C 
HETATM   24  O1  UNK     1      14.870   8.614  32.703  1.00  0.00    -0.275 OA
HETATM   25  C16 UNK     1      14.886   7.305  32.245  1.00  0.00     0.288 A 
HETATM   26  O4  UNK     1      13.891   6.772  31.766  1.00  0.00    -0.260 OA
HETATM   27  C9  UNK     1      16.161   6.579  32.360  1.00  0.00     0.092 A 
ENDBRANCH   1  15
TORSDOF 3
ENDMDL
MODEL 2
REMARK VINA RESULT:      -9.0      8.035     13.614
REMARK  3 active torsions:
REMARK  status: ('A' for Active; 'I' for Inactive)
REMARK    1  A    between atoms: C5_11  and  N1_5 
REMARK       I    between atoms: C8_14  and  N2_6 
REMARK    2  A    between atoms: C5_11  and  C6_12 
REMARK    3  A    between atoms: C12_18  and  C8_14 
ROOT
HETATM    1  C5  UNK     1      19.631  -5.131  37.329  1.00  0.00     0.312 C 
ENDROOT
BRANCH   1   2
HETATM    2  N1  UNK     1      19.972  -3.973  36.504  1.00  0.00     0.095 N 
HETATM    3  C1  UNK     1      19.002  -2.888  36.709  1.00  0.00     0.292 C 
HETATM    4  C3  UNK     1      19.383  -1.662  35.880  1.00  0.00     0.156 C 
HETATM    5  N2  UNK     1      19.538  -2.003  34.467  1.00  0.00    -0.343 N 
HETATM    6  C4  UNK     1      20.414  -3.153  34.210  1.00  0.00     0.156 C 
HETATM    7  C8  UNK     1      18.916  -1.211  33.489  1.00  0.00     0.277 C 
HETATM    8  C2  UNK     1      20.027  -4.348  35.083  1.00  0.00     0.292 C 
HETATM    9  O2  UNK     1      17.864  -0.601  33.676  1.00  0.00    -0.265 OA
BRANCH   7  10
HETATM   10  C12 UNK     1      19.568  -1.121  32.186  1.00  0.00     0.142 A 
HETATM   11  O3  UNK     1      19.964   0.106  31.757  1.00  0.00    -0.317 OA
HETATM   12  C21 UNK     1      20.534  -0.075  30.537  1.00  0.00     0.143 A 
HETATM   13  C20 UNK     1      20.508  -1.404  30.183  1.00  0.00     0.027 A 
HETATM   14  C18 UNK     1      19.880  -2.083  31.254  1.00  0.00     0.045 A 
ENDBRANCH   7  10
ENDBRANCH   1   2
BRANCH   1  15
HETATM   15  C6  UNK     1      20.900  -5.874  37.549  1.00  0.00    -0.011 A 
HETATM   16  C7  UNK     1      21.133  -7.231  37.035  1.00  0.00     0.012 A 
HETATM   17  C10 UNK     1      20.194  -7.953  36.288  1.00  0.00    -0.048 A 
HETATM   18  C11 UNK     1      22.359  -7.844  37.299  1.00  0.00     0.091 A 
HETATM   19  C13 UNK     1      20.483  -9.242  35.828  1.00  0.00     0.014 A 
HETATM   20  C17 UNK     1      18.836  -7.449  35.911  1.00  0.00     0.049 C 
HETATM   21  C15 UNK     1      21.715  -9.830  36.109  1.00  0.00    -0.059 A 
HETATM   22  C14 UNK     1      22.662  -9.130  36.848  1.00  0.00     0.045 A 
HETATM   23  C19 UNK     1      22.019 -11.204  35.615  1.00  0.00     0.048 C 
HETATM   24  O1  UNK     1      23.358  -7.184  38.043  1.00  0.00    -0.275 OA
HETATM   25  C16 UNK     1      23.166  -5.905  38.541  1.00  0.00     0.288 A 
HETATM   26  O4  UNK     1      24.028  -5.323  39.190  1.00  0.00    -0.260 OA
HETATM   27  C9  UNK     1      21.868  -5.271  38.254  1.00  0.00     0.092 A 
ENDBRANCH   1  15
TORSDOF 3
ENDMDL
MODEL 3
REMARK VINA RESULT:      -8.9      2.077      8.965
REMARK  3 active torsions:
REMARK  status: ('A' for Active; 'I' for Inactive)
REMARK    1  A    between atoms: C5_11  and  N1_5 
REMARK       I    between atoms: C8_14  and  N2_6 
REMARK    2  A    between atoms: C5_11  and  C6_12 
REMARK    3  A    between atoms: C12_18  and  C8_14 
ROOT
HETATM    1  C5  UNK     1      18.900   6.154  32.906  1.00  0.00     0.312 C 
ENDROOT
BRANCH   1   2
HETATM    2  N1  UNK     1      17.756   6.803  33.546  1.00  0.00     0.095 N 
HETATM    3  C1  UNK     1      16.664   6.994  32.579  1.00  0.00     0.292 C 
HETATM    4  C3  UNK     1      15.452   7.631  33.258  1.00  0.00     0.156 C 
HETATM    5  N2  UNK     1      15.815   8.876  33.934  1.00  0.00    -0.343 N 
HETATM    6  C4  UNK     1      16.972   8.767  34.832  1.00  0.00     0.156 C 
HETATM    7  C8  UNK     1      15.035  10.027  33.737  1.00  0.00     0.277 C 
HETATM    8  C2  UNK     1      18.153   8.091  34.131  1.00  0.00     0.292 C 
HETATM    9  O2  UNK     1      14.418  10.260  32.698  1.00  0.00    -0.265 OA
BRANCH   7  10
HETATM   10  C12 UNK     1      14.966  10.985  34.835  1.00  0.00     0.142 A 
HETATM   11  O3  UNK     1      15.833  12.031  34.821  1.00  0.00    -0.317 OA
HETATM   12  C21 UNK     1      15.572  12.767  35.933  1.00  0.00     0.143 A 
HETATM   13  C20 UNK     1      14.547  12.203  36.657  1.00  0.00     0.027 A 
HETATM   14  C18 UNK     1      14.154  11.045  35.943  1.00  0.00     0.045 A 
ENDBRANCH   7  10
ENDBRANCH   1   2
BRANCH   1  15
HETATM   15  C6  UNK     1      18.624   4.693  32.940  1.00  0.00    -0.011 A 
HETATM   16  C7  UNK     1      18.548   3.865  31.729  1.00  0.00     0.012 A 
HETATM   17  C10 UNK     1      18.731   4.362  30.432  1.00  0.00    -0.048 A 
HETATM   18  C11 UNK     1      18.279   2.502  31.867  1.00  0.00     0.091 A 
HETATM   19  C13 UNK     1      18.645   3.514  29.322  1.00  0.00     0.014 A 
HETATM   20  C17 UNK     1      19.029   5.790  30.101  1.00  0.00     0.049 C 
HETATM   21  C15 UNK     1      18.374   2.158  29.490  1.00  0.00    -0.059 A 
HETATM   22  C14 UNK     1      18.190   1.644  30.770  1.00  0.00     0.045 A 
HETATM   23  C19 UNK     1      18.286   1.259  28.304  1.00  0.00     0.048 C 
HETATM   24  O1  UNK     1      18.083   1.924  33.138  1.00  0.00    -0.275 OA
HETATM   25  C16 UNK     1      18.149   2.681  34.297  1.00  0.00     0.288 A 
HETATM   26  O4  UNK     1      17.979   2.188  35.407  1.00  0.00    -0.260 OA
HETATM   27  C9  UNK     1      18.433   4.116  34.134  1.00  0.00     0.092 A 
ENDBRANCH   1  15
TORSDOF 3
ENDMDL
MODEL 4
REMARK VINA RESULT:      -8.6     17.341     19.691
REMARK  3 active torsions:
REMARK  status: ('A' for Active; 'I' for Inactive)
REMARK    1  A    between atoms: C5_11  and  N1_5 
REMARK       I    between atoms: C8_14  and  N2_6 
REMARK    2  A    between atoms: C5_11  and  C6_12 
REMARK    3  A    between atoms: C12_18  and  C8_14 
ROOT
HETATM    1  C5  UNK     1      29.970  -5.920  35.664  1.00  0.00     0.312 C 
ENDROOT
BRANCH   1   2
HETATM    2  N1  UNK     1      31.417  -6.132  35.703  1.00  0.00     0.095 N 
HETATM    3  C1  UNK     1      32.130  -4.893  35.357  1.00  0.00     0.292 C 
HETATM    4  C3  UNK     1      33.641  -5.102  35.442  1.00  0.00     0.156 C 
HETATM    5  N2  UNK     1      34.068  -6.233  34.619  1.00  0.00    -0.343 N 
HETATM    6  C4  UNK     1      33.313  -7.472  34.847  1.00  0.00     0.156 C 
HETATM    7  C8  UNK     1      35.160  -6.086  33.748  1.00  0.00     0.277 C 
HETATM    8  C2  UNK     1      31.806  -7.218  34.792  1.00  0.00     0.292 C 
HETATM    9  O2  UNK     1      35.464  -5.019  33.214  1.00  0.00    -0.265 OA
BRANCH   7  10
HETATM   10  C12 UNK     1      35.963  -7.273  33.474  1.00  0.00     0.142 A 
HETATM   11  O3  UNK     1      35.726  -7.948  32.319  1.00  0.00    -0.317 OA
HETATM   12  C21 UNK     1      36.590  -8.997  32.298  1.00  0.00     0.143 A 
HETATM   13  C20 UNK     1      37.376  -8.998  33.427  1.00  0.00     0.027 A 
HETATM   14  C18 UNK     1      36.968  -7.879  34.191  1.00  0.00     0.045 A 
ENDBRANCH   7  10
ENDBRANCH   1   2
BRANCH   1  15
HETATM   15  C6  UNK     1      29.514  -5.894  37.079  1.00  0.00    -0.011 A 
HETATM   16  C7  UNK     1      28.829  -7.024  37.721  1.00  0.00     0.012 A 
HETATM   17  C10 UNK     1      28.543  -8.232  37.072  1.00  0.00    -0.048 A 
HETATM   18  C11 UNK     1      28.437  -6.897  39.054  1.00  0.00     0.091 A 
HETATM   19  C13 UNK     1      27.888  -9.268  37.746  1.00  0.00     0.014 A 
HETATM   20  C17 UNK     1      28.893  -8.539  35.651  1.00  0.00     0.049 C 
HETATM   21  C15 UNK     1      27.507  -9.113  39.078  1.00  0.00    -0.059 A 
HETATM   22  C14 UNK     1      27.782  -7.921  39.740  1.00  0.00     0.045 A 
HETATM   23  C19 UNK     1      26.810 -10.221  39.791  1.00  0.00     0.048 C 
HETATM   24  O1  UNK     1      28.689  -5.714  39.779  1.00  0.00    -0.275 OA
HETATM   25  C16 UNK     1      29.333  -4.632  39.198  1.00  0.00     0.288 A 
HETATM   26  O4  UNK     1      29.556  -3.598  39.819  1.00  0.00    -0.260 OA
HETATM   27  C9  UNK     1      29.740  -4.781  37.791  1.00  0.00     0.092 A 
ENDBRANCH   1  15
TORSDOF 3
ENDMDL
MODEL 5
REMARK VINA RESULT:      -8.5      8.425     13.910
REMARK  3 active torsions:
REMARK  status: ('A' for Active; 'I' for Inactive)
REMARK    1  A    between atoms: C5_11  and  N1_5 
REMARK       I    between atoms: C8_14  and  N2_6 
REMARK    2  A    between atoms: C5_11  and  C6_12 
REMARK    3  A    between atoms: C12_18  and  C8_14 
ROOT
HETATM    1  C5  UNK     1      20.682  -4.907  37.258  1.00  0.00     0.312 C 
ENDROOT
BRANCH   1   2
HETATM    2  N1  UNK     1      19.820  -3.929  36.595  1.00  0.00     0.095 N 
HETATM    3  C1  UNK     1      20.626  -2.960  35.838  1.00  0.00     0.292 C 
HETATM    4  C3  UNK     1      19.725  -1.964  35.110  1.00  0.00     0.156 C 
HETATM    5  N2  UNK     1      18.800  -1.310  36.034  1.00  0.00    -0.343 N 
HETATM    6  C4  UNK     1      18.046  -2.230  36.895  1.00  0.00     0.156 C 
HETATM    7  C8  UNK     1      18.655   0.086  36.000  1.00  0.00     0.277 C 
HETATM    8  C2  UNK     1      18.976  -3.235  37.578  1.00  0.00     0.292 C 
HETATM    9  O2  UNK     1      19.558   0.855  35.670  1.00  0.00    -0.265 OA
BRANCH   7  10
HETATM   10  C12 UNK     1      17.358   0.635  36.381  1.00  0.00     0.142 A 
HETATM   11  O3  UNK     1      16.265   0.222  35.688  1.00  0.00    -0.317 OA
HETATM   12  C21 UNK     1      15.197   0.867  36.226  1.00  0.00     0.143 A 
HETATM   13  C20 UNK     1      15.596   1.687  37.255  1.00  0.00     0.027 A 
HETATM   14  C18 UNK     1      17.000   1.536  37.356  1.00  0.00     0.045 A 
ENDBRANCH   7  10
ENDBRANCH   1   2
BRANCH   1  15
HETATM   15  C6  UNK     1      20.519  -6.181  36.509  1.00  0.00    -0.011 A 
HETATM   16  C7  UNK     1      20.229  -7.464  37.164  1.00  0.00     0.012 A 
HETATM   17  C10 UNK     1      20.075  -7.615  38.549  1.00  0.00    -0.048 A 
HETATM   18  C11 UNK     1      20.098  -8.605  36.371  1.00  0.00     0.091 A 
HETATM   19  C13 UNK     1      19.799  -8.868  39.106  1.00  0.00     0.014 A 
HETATM   20  C17 UNK     1      20.179  -6.502  39.543  1.00  0.00     0.049 C 
HETATM   21  C15 UNK     1      19.675  -9.990  38.289  1.00  0.00    -0.059 A 
HETATM   22  C14 UNK     1      19.824  -9.862  36.912  1.00  0.00     0.045 A 
HETATM   23  C19 UNK     1      19.379 -11.324  38.888  1.00  0.00     0.048 C 
HETATM   24  O1  UNK     1      20.238  -8.538  34.970  1.00  0.00    -0.275 OA
HETATM   25  C16 UNK     1      20.512  -7.342  34.325  1.00  0.00     0.288 A 
HETATM   26  O4  UNK     1      20.635  -7.273  33.107  1.00  0.00    -0.260 OA
HETATM   27  C9  UNK     1      20.647  -6.148  35.175  1.00  0.00     0.092 A 
ENDBRANCH   1  15
TORSDOF 3
ENDMDL
MODEL 6
REMARK VINA RESULT:      -8.3     22.761     25.315
REMARK  3 active torsions:
REMARK  status: ('A' for Active; 'I' for Inactive)
REMARK    1  A    between atoms: C5_11  and  N1_5 
REMARK       I    between atoms: C8_14  and  N2_6 
REMARK    2  A    between atoms: C5_11  and  C6_12 
REMARK    3  A    between atoms: C12_18  and  C8_14 
ROOT
HETATM    1  C5  UNK     1      14.005   8.838  10.561  1.00  0.00     0.312 C 
ENDROOT
BRANCH   1   2
HETATM    2  N1  UNK     1      15.183   9.549  10.066  1.00  0.00     0.095 N 
HETATM    3  C1  UNK     1      15.643  10.537  11.053  1.00  0.00     0.292 C 
HETATM    4  C3  UNK     1      16.899  11.250  10.555  1.00  0.00     0.156 C 
HETATM    5  N2  UNK     1      16.686  11.845   9.237  1.00  0.00    -0.343 N 
HETATM    6  C4  UNK     1      16.124  10.928   8.238  1.00  0.00     0.156 C 
HETATM    7  C8  UNK     1      17.070  13.176   9.005  1.00  0.00     0.277 C 
HETATM    8  C2  UNK     1      14.890  10.206   8.784  1.00  0.00     0.292 C 
HETATM    9  O2  UNK     1      17.077  14.043   9.879  1.00  0.00    -0.265 OA
BRANCH   7  10
HETATM   10  C12 UNK     1      17.477  13.529   7.649  1.00  0.00     0.142 A 
HETATM   11  O3  UNK     1      16.659  14.340   6.931  1.00  0.00    -0.317 OA
HETATM   12  C21 UNK     1      17.252  14.517   5.721  1.00  0.00     0.143 A 
HETATM   13  C20 UNK     1      18.440  13.827   5.659  1.00  0.00     0.027 A 
HETATM   14  C18 UNK     1      18.586  13.185   6.912  1.00  0.00     0.045 A 
ENDBRANCH   7  10
ENDBRANCH   1   2
BRANCH   1  15
HETATM   15  C6  UNK     1      13.948   7.555   9.811  1.00  0.00    -0.011 A 
HETATM   16  C7  UNK     1      12.825   7.187   8.937  1.00  0.00     0.012 A 
HETATM   17  C10 UNK     1      11.707   8.003   8.720  1.00  0.00    -0.048 A 
HETATM   18  C11 UNK     1      12.865   5.957   8.280  1.00  0.00     0.091 A 
HETATM   19  C13 UNK     1      10.674   7.590   7.872  1.00  0.00     0.014 A 
HETATM   20  C17 UNK     1      11.503   9.350   9.338  1.00  0.00     0.049 C 
HETATM   21  C15 UNK     1      10.740   6.355   7.230  1.00  0.00    -0.059 A 
HETATM   22  C14 UNK     1      11.842   5.530   7.432  1.00  0.00     0.045 A 
HETATM   23  C19 UNK     1       9.636   5.920   6.327  1.00  0.00     0.048 C 
HETATM   24  O1  UNK     1      13.955   5.078   8.445  1.00  0.00    -0.275 OA
HETATM   25  C16 UNK     1      15.028   5.398   9.263  1.00  0.00     0.288 A 
HETATM   26  O4  UNK     1      15.980   4.641   9.414  1.00  0.00    -0.260 OA
HETATM   27  C9  UNK     1      14.971   6.699   9.949  1.00  0.00     0.092 A 
ENDBRANCH   1  15
TORSDOF 3
ENDMDL
MODEL 7
REMARK VINA RESULT:      -8.2     13.707     17.224
REMARK  3 active torsions:
REMARK  status: ('A' for Active; 'I' for Inactive)
REMARK    1  A    between atoms: C5_11  and  N1_5 
REMARK       I    between atoms: C8_14  and  N2_6 
REMARK    2  A    between atoms: C5_11  and  C6_12 
REMARK    3  A    between atoms: C12_18  and  C8_14 
ROOT
HETATM    1  C5  UNK     1      25.386  -8.780  38.673  1.00  0.00     0.312 C 
ENDROOT
BRANCH   1   2
HETATM    2  N1  UNK     1      24.127  -8.044  38.563  1.00  0.00     0.095 N 
HETATM    3  C1  UNK     1      23.351  -8.160  39.806  1.00  0.00     0.292 C 
HETATM    4  C3  UNK     1      22.056  -7.355  39.708  1.00  0.00     0.156 C 
HETATM    5  N2  UNK     1      21.277  -7.741  38.533  1.00  0.00    -0.343 N 
HETATM    6  C4  UNK     1      22.035  -7.748  37.275  1.00  0.00     0.156 C 
HETATM    7  C8  UNK     1      19.906  -8.011  38.666  1.00  0.00     0.277 C 
HETATM    8  C2  UNK     1      23.341  -8.531  37.421  1.00  0.00     0.292 C 
HETATM    9  O2  UNK     1      19.398  -8.463  39.692  1.00  0.00    -0.265 OA
BRANCH   7  10
HETATM   10  C12 UNK     1      19.054  -7.734  37.513  1.00  0.00     0.142 A 
HETATM   11  O3  UNK     1      18.375  -6.558  37.492  1.00  0.00    -0.317 OA
HETATM   12  C21 UNK     1      17.666  -6.539  36.334  1.00  0.00     0.143 A 
HETATM   13  C20 UNK     1      17.884  -7.691  35.614  1.00  0.00     0.027 A 
HETATM   14  C18 UNK     1      18.786  -8.467  36.381  1.00  0.00     0.045 A 
ENDBRANCH   7  10
ENDBRANCH   1   2
BRANCH   1  15
HETATM   15  C6  UNK     1      26.446  -7.874  38.157  1.00  0.00    -0.011 A 
HETATM   16  C7  UNK     1      27.307  -8.216  37.016  1.00  0.00     0.012 A 
HETATM   17  C10 UNK     1      27.215  -9.419  36.304  1.00  0.00    -0.048 A 
HETATM   18  C11 UNK     1      28.275  -7.297  36.611  1.00  0.00     0.091 A 
HETATM   19  C13 UNK     1      28.068  -9.679  35.226  1.00  0.00     0.014 A 
HETATM   20  C17 UNK     1      26.235 -10.511  36.599  1.00  0.00     0.049 C 
HETATM   21  C15 UNK     1      29.027  -8.743  34.844  1.00  0.00    -0.059 A 
HETATM   22  C14 UNK     1      29.134  -7.542  35.538  1.00  0.00     0.045 A 
HETATM   23  C19 UNK     1      29.932  -9.025  33.693  1.00  0.00     0.048 C 
HETATM   24  O1  UNK     1      28.432  -6.063  37.275  1.00  0.00    -0.275 OA
HETATM   25  C16 UNK     1      27.634  -5.714  38.354  1.00  0.00     0.288 A 
HETATM   26  O4  UNK     1      27.763  -4.644  38.938  1.00  0.00    -0.260 OA
HETATM   27  C9  UNK     1      26.618  -6.694  38.769  1.00  0.00     0.092 A 
ENDBRANCH   1  15
TORSDOF 3
ENDMDL
MODEL 8
REMARK VINA RESULT:      -8.2     17.290     20.885
REMARK  3 active torsions:
REMARK  status: ('A' for Active; 'I' for Inactive)
REMARK    1  A    between atoms: C5_11  and  N1_5 
REMARK       I    between atoms: C8_14  and  N2_6 
REMARK    2  A    between atoms: C5_11  and  C6_12 
REMARK    3  A    between atoms: C12_18  and  C8_14 
ROOT
HETATM    1  C5  UNK     1      33.604  -8.593  33.139  1.00  0.00     0.312 C 
ENDROOT
BRANCH   1   2
HETATM    2  N1  UNK     1      33.098  -7.437  33.879  1.00  0.00     0.095 N 
HETATM    3  C1  UNK     1      34.143  -6.887  34.755  1.00  0.00     0.292 C 
HETATM    4  C3  UNK     1      33.629  -5.653  35.495  1.00  0.00     0.156 C 
HETATM    5  N2  UNK     1      32.396  -5.946  36.224  1.00  0.00    -0.343 N 
HETATM    6  C4  UNK     1      31.353  -6.598  35.421  1.00  0.00     0.156 C 
HETATM    7  C8  UNK     1      32.270  -5.550  37.565  1.00  0.00     0.277 C 
HETATM    8  C2  UNK     1      31.912  -7.805  34.666  1.00  0.00     0.292 C 
HETATM    9  O2  UNK     1      33.223  -5.462  38.339  1.00  0.00    -0.265 OA
BRANCH   7  10
HETATM   10  C12 UNK     1      30.930  -5.232  38.047  1.00  0.00     0.142 A 
HETATM   11  O3  UNK     1      30.229  -6.214  38.671  1.00  0.00    -0.317 OA
HETATM   12  C21 UNK     1      29.032  -5.675  39.020  1.00  0.00     0.143 A 
HETATM   13  C20 UNK     1      28.961  -4.359  38.625  1.00  0.00     0.027 A 
HETATM   14  C18 UNK     1      30.194  -4.071  37.993  1.00  0.00     0.045 A 
ENDBRANCH   7  10
ENDBRANCH   1   2
BRANCH   1  15
HETATM   15  C6  UNK     1      33.640  -8.189  31.708  1.00  0.00    -0.011 A 
HETATM   16  C7  UNK     1      32.671  -8.671  30.715  1.00  0.00     0.012 A 
HETATM   17  C10 UNK     1      31.621  -9.550  31.013  1.00  0.00    -0.048 A 
HETATM   18  C11 UNK     1      32.794  -8.234  29.395  1.00  0.00     0.091 A 
HETATM   19  C13 UNK     1      30.734  -9.968  30.016  1.00  0.00     0.014 A 
HETATM   20  C17 UNK     1      31.341 -10.112  32.371  1.00  0.00     0.049 C 
HETATM   21  C15 UNK     1      30.881  -9.517  28.706  1.00  0.00    -0.059 A 
HETATM   22  C14 UNK     1      31.917  -8.643  28.389  1.00  0.00     0.045 A 
HETATM   23  C19 UNK     1      29.931  -9.965  27.648  1.00  0.00     0.048 C 
HETATM   24  O1  UNK     1      33.823  -7.349  29.013  1.00  0.00    -0.275 OA
HETATM   25  C16 UNK     1      34.751  -6.878  29.929  1.00  0.00     0.288 A 
HETATM   26  O4  UNK     1      35.650  -6.108  29.607  1.00  0.00    -0.260 OA
HETATM   27  C9  UNK     1      34.608  -7.348  31.317  1.00  0.00     0.092 A 
ENDBRANCH   1  15
TORSDOF 3
ENDMDL
MODEL 9
REMARK VINA RESULT:      -8.1     17.711     19.858
REMARK  3 active torsions:
REMARK  status: ('A' for Active; 'I' for Inactive)
REMARK    1  A    between atoms: C5_11  and  N1_5 
REMARK       I    between atoms: C8_14  and  N2_6 
REMARK    2  A    between atoms: C5_11  and  C6_12 
REMARK    3  A    between atoms: C12_18  and  C8_14 
ROOT
HETATM    1  C5  UNK     1      33.184  -7.785  35.026  1.00  0.00     0.312 C 
ENDROOT
BRANCH   1   2
HETATM    2  N1  UNK     1      32.753  -8.730  33.997  1.00  0.00     0.095 N 
HETATM    3  C1  UNK     1      33.883  -9.105  33.134  1.00  0.00     0.292 C 
HETATM    4  C3  UNK     1      33.443 -10.126  32.086  1.00  0.00     0.156 C 
HETATM    5  N2  UNK     1      32.300  -9.638  31.316  1.00  0.00    -0.343 N 
HETATM    6  C4  UNK     1      31.181  -9.147  32.131  1.00  0.00     0.156 C 
HETATM    7  C8  UNK     1      32.320  -9.721  29.915  1.00  0.00     0.277 C 
HETATM    8  C2  UNK     1      31.664  -8.157  33.193  1.00  0.00     0.292 C 
HETATM    9  O2  UNK     1      33.351  -9.665  29.245  1.00  0.00    -0.265 OA
BRANCH   7  10
HETATM   10  C12 UNK     1      31.038  -9.880  29.235  1.00  0.00     0.142 A 
HETATM   11  O3  UNK     1      30.356 -11.039  29.428  1.00  0.00    -0.317 OA
HETATM   12  C21 UNK     1      29.213 -10.942  28.699  1.00  0.00     0.143 A 
HETATM   13  C20 UNK     1      29.158  -9.734  28.043  1.00  0.00     0.027 A 
HETATM   14  C18 UNK     1      30.344  -9.045  28.392  1.00  0.00     0.045 A 
ENDBRANCH   7  10
ENDBRANCH   1   2
BRANCH   1  15
HETATM   15  C6  UNK     1      32.293  -8.009  36.196  1.00  0.00    -0.011 A 
HETATM   16  C7  UNK     1      31.599  -6.918  36.895  1.00  0.00     0.012 A 
HETATM   17  C10 UNK     1      31.701  -5.570  36.529  1.00  0.00    -0.048 A 
HETATM   18  C11 UNK     1      30.788  -7.234  37.986  1.00  0.00     0.091 A 
HETATM   19  C13 UNK     1      31.010  -4.582  37.240  1.00  0.00     0.014 A 
HETATM   20  C17 UNK     1      32.520  -5.056  35.388  1.00  0.00     0.049 C 
HETATM   21  C15 UNK     1      30.208  -4.926  38.326  1.00  0.00    -0.059 A 
HETATM   22  C14 UNK     1      30.093  -6.259  38.705  1.00  0.00     0.045 A 
HETATM   23  C19 UNK     1      29.472  -3.869  39.079  1.00  0.00     0.048 C 
HETATM   24  O1  UNK     1      30.631  -8.567  38.416  1.00  0.00    -0.275 OA
HETATM   25  C16 UNK     1      31.275  -9.615  37.777  1.00  0.00     0.288 A 
HETATM   26  O4  UNK     1      31.146 -10.778  38.144  1.00  0.00    -0.260 OA
HETATM   27  C9  UNK     1      32.127  -9.267  36.628  1.00  0.00     0.092 A 
ENDBRANCH   1  15
TORSDOF 3
ENDMDL
MODEL 10
REMARK VINA RESULT:      -8.1      2.070      3.467
REMARK  3 active torsions:
REMARK  status: ('A' for Active; 'I' for Inactive)
REMARK    1  A    between atoms: C5_11  and  N1_5 
REMARK       I    between atoms: C8_14  and  N2_6 
REMARK    2  A    between atoms: C5_11  and  C6_12 
REMARK    3  A    between atoms: C12_18  and  C8_14 
ROOT
HETATM    1  C5  UNK     1      16.842   7.457  33.251  1.00  0.00     0.312 C 
ENDROOT
BRANCH   1   2
HETATM    2  N1  UNK     1      17.794   6.515  32.664  1.00  0.00     0.095 N 
HETATM    3  C1  UNK     1      17.808   6.641  31.199  1.00  0.00     0.292 C 
HETATM    4  C3  UNK     1      18.835   5.688  30.587  1.00  0.00     0.156 C 
HETATM    5  N2  UNK     1      18.605   4.311  31.020  1.00  0.00    -0.343 N 
HETATM    6  C4  UNK     1      18.473   4.143  32.473  1.00  0.00     0.156 C 
HETATM    7  C8  UNK     1      18.586   3.278  30.070  1.00  0.00     0.277 C 
HETATM    8  C2  UNK     1      17.467   5.137  33.055  1.00  0.00     0.292 C 
HETATM    9  O2  UNK     1      18.223   3.434  28.904  1.00  0.00    -0.265 OA
BRANCH   7  10
HETATM   10  C12 UNK     1      19.021   1.956  30.508  1.00  0.00     0.142 A 
HETATM   11  O3  UNK     1      18.515   1.474  31.672  1.00  0.00    -0.317 OA
HETATM   12  C21 UNK     1      19.067   0.246  31.857  1.00  0.00     0.143 A 
HETATM   13  C20 UNK     1      19.920  -0.061  30.822  1.00  0.00     0.027 A 
HETATM   14  C18 UNK     1      19.890   1.050  29.946  1.00  0.00     0.045 A 
ENDBRANCH   7  10
ENDBRANCH   1   2
BRANCH   1  15
HETATM   15  C6  UNK     1      17.630   8.656  33.643  1.00  0.00    -0.011 A 
HETATM   16  C7  UNK     1      17.036   9.992  33.790  1.00  0.00     0.012 A 
HETATM   17  C10 UNK     1      15.679  10.268  33.581  1.00  0.00    -0.048 A 
HETATM   18  C11 UNK     1      17.863  11.053  34.159  1.00  0.00     0.091 A 
HETATM   19  C13 UNK     1      15.180  11.566  33.740  1.00  0.00     0.014 A 
HETATM   20  C17 UNK     1      14.654   9.252  33.186  1.00  0.00     0.049 C 
HETATM   21  C15 UNK     1      16.030  12.607  34.108  1.00  0.00    -0.059 A 
HETATM   22  C14 UNK     1      17.381  12.354  34.321  1.00  0.00     0.045 A 
HETATM   23  C19 UNK     1      15.493  13.988  34.277  1.00  0.00     0.048 C 
HETATM   24  O1  UNK     1      19.241  10.859  34.389  1.00  0.00    -0.275 OA
HETATM   25  C16 UNK     1      19.828   9.609  34.258  1.00  0.00     0.288 A 
HETATM   26  O4  UNK     1      21.025   9.430  34.455  1.00  0.00    -0.260 OA
HETATM   27  C9  UNK     1      18.943   8.500  33.868  1.00  0.00     0.092 A 
ENDBRANCH   1  15
TORSDOF 3
ENDMDL
