MODEL 1
REMARK VINA RESULT:      -9.0      0.000      0.000
REMARK  4 active torsions:
REMARK  status: ('A' for Active; 'I' for Inactive)
REMARK    1  A    between atoms: C3_8  and  N1_4 
REMARK       I    between atoms: C8_13  and  N2_5 
REMARK    2  A    between atoms: C3_8  and  C6_11 
REMARK    3  A    between atoms: C3_8  and  C7_12 
REMARK    4  A    between atoms: C13_18  and  C8_13 
ROOT
HETATM    1  O1  UNK     1      28.290  -9.541  38.966  1.00  0.00    -0.267 OA
HETATM    2  N1  UNK     1      30.490  -6.934  35.307  1.00  0.00     0.105 N 
HETATM    3  N2  UNK     1      28.648  -8.088  37.185  1.00  0.00    -0.344 N 
HETATM    4  C1  UNK     1      30.961  -7.884  36.323  1.00  0.00     0.293 C 
HETATM    5  C2  UNK     1      29.124  -7.276  34.888  1.00  0.00     0.293 C 
HETATM    6  C4  UNK     1      30.047  -7.856  37.546  1.00  0.00     0.156 C 
HETATM    7  C5  UNK     1      28.158  -7.259  36.076  1.00  0.00     0.156 C 
HETATM    8  C8  UNK     1      27.879  -8.945  37.969  1.00  0.00     0.260 C 
ENDROOT
BRANCH   2   9
HETATM    9  C3  UNK     1      31.392  -6.924  34.156  1.00  0.00     0.289 C 
BRANCH   9  10
HETATM   10  C6  UNK     1      32.586  -6.008  34.361  1.00  0.00    -0.021 A 
HETATM   11  C11 UNK     1      33.806  -6.366  33.818  1.00  0.00     0.010 A 
HETATM   12  C16 UNK     1      34.902  -5.524  34.007  1.00  0.00     0.001 A 
HETATM   13  C19 UNK     1      34.758  -4.343  34.735  1.00  0.00     0.000 A 
HETATM   14  C14 UNK     1      33.518  -4.003  35.273  1.00  0.00     0.001 A 
HETATM   15  C9  UNK     1      32.421  -4.844  35.085  1.00  0.00     0.010 A 
ENDBRANCH   9  10
BRANCH   9  16
HETATM   16  C7  UNK     1      30.667  -6.632  32.852  1.00  0.00    -0.021 A 
HETATM   17  C10 UNK     1      30.191  -5.356  32.622  1.00  0.00     0.010 A 
HETATM   18  C15 UNK     1      29.526  -5.088  31.426  1.00  0.00     0.001 A 
HETATM   19  C20 UNK     1      29.349  -6.101  30.484  1.00  0.00     0.000 A 
HETATM   20  C17 UNK     1      29.838  -7.383  30.738  1.00  0.00     0.001 A 
HETATM   21  C12 UNK     1      30.504  -7.651  31.933  1.00  0.00     0.010 A 
ENDBRANCH   9  16
ENDBRANCH   2   9
BRANCH   8  22
HETATM   22  C13 UNK     1      26.469  -9.151  37.583  1.00  0.00     0.108 A 
HETATM   23  C18 UNK     1      26.198 -10.276  36.909  1.00  0.00     0.037 A 
HETATM   24  C22 UNK     1      24.837 -10.567  36.485  1.00  0.00    -0.001 A 
HETATM   25  C23 UNK     1      23.828  -9.659  36.791  1.00  0.00     0.089 A 
HETATM   26  C24 UNK     1      24.510 -11.727  35.780  1.00  0.00     0.014 A 
HETATM   27  O2  UNK     1      24.120  -8.477  37.500  1.00  0.00    -0.274 OA
HETATM   28  C25 UNK     1      22.505  -9.878  36.413  1.00  0.00     0.038 A 
HETATM   29  C21 UNK     1      25.411  -8.172  37.919  1.00  0.00     0.304 A 
HETATM   30  O3  UNK     1      25.656  -7.140  38.535  1.00  0.00    -0.259 OA
HETATM   31  C27 UNK     1      22.187 -11.038  35.711  1.00  0.00     0.003 A 
HETATM   32  C26 UNK     1      23.186 -11.961  35.394  1.00  0.00     0.001 A 
ENDBRANCH   8  22
TORSDOF 4
ENDMDL
MODEL 2
REMARK VINA RESULT:      -8.9     32.695     34.876
REMARK  4 active torsions:
REMARK  status: ('A' for Active; 'I' for Inactive)
REMARK    1  A    between atoms: C3_8  and  N1_4 
REMARK       I    between atoms: C8_13  and  N2_5 
REMARK    2  A    between atoms: C3_8  and  C6_11 
REMARK    3  A    between atoms: C3_8  and  C7_12 
REMARK    4  A    between atoms: C13_18  and  C8_13 
ROOT
HETATM    1  O1  UNK     1      15.513   6.410   9.966  1.00  0.00    -0.267 OA
HETATM    2  N1  UNK     1      16.992  11.086   8.980  1.00  0.00     0.105 N 
HETATM    3  N2  UNK     1      15.507   8.709   9.607  1.00  0.00    -0.344 N 
HETATM    4  C1  UNK     1      17.676   9.793   9.105  1.00  0.00     0.293 C 
HETATM    5  C2  UNK     1      15.640  10.893   8.437  1.00  0.00     0.293 C 
HETATM    6  C4  UNK     1      16.898   8.864  10.034  1.00  0.00     0.156 C 
HETATM    7  C5  UNK     1      14.808   9.971   9.332  1.00  0.00     0.156 C 
HETATM    8  C8  UNK     1      14.932   7.440   9.619  1.00  0.00     0.260 C 
ENDROOT
BRANCH   2   9
HETATM    9  C3  UNK     1      17.762  11.994   8.130  1.00  0.00     0.289 C 
BRANCH   9  10
HETATM   10  C6  UNK     1      19.210  12.116   8.571  1.00  0.00    -0.021 A 
HETATM   11  C11 UNK     1      19.504  12.080   9.921  1.00  0.00     0.010 A 
HETATM   12  C16 UNK     1      20.835  12.192  10.325  1.00  0.00     0.001 A 
HETATM   13  C19 UNK     1      21.844  12.337   9.373  1.00  0.00     0.000 A 
HETATM   14  C14 UNK     1      21.523  12.370   8.017  1.00  0.00     0.001 A 
HETATM   15  C9  UNK     1      20.192  12.259   7.611  1.00  0.00     0.010 A 
ENDBRANCH   9  10
BRANCH   9  16
HETATM   16  C7  UNK     1      17.096  13.352   7.978  1.00  0.00    -0.021 A 
HETATM   17  C10 UNK     1      16.869  13.848   6.709  1.00  0.00     0.010 A 
HETATM   18  C15 UNK     1      16.259  15.095   6.570  1.00  0.00     0.001 A 
HETATM   19  C20 UNK     1      15.888  15.820   7.702  1.00  0.00     0.000 A 
HETATM   20  C17 UNK     1      16.127  15.299   8.974  1.00  0.00     0.001 A 
HETATM   21  C12 UNK     1      16.737  14.053   9.113  1.00  0.00     0.010 A 
ENDBRANCH   9  16
ENDBRANCH   2   9
BRANCH   8  22
HETATM   22  C13 UNK     1      13.524   7.319   9.192  1.00  0.00     0.108 A 
HETATM   23  C18 UNK     1      13.320   6.862   7.950  1.00  0.00     0.037 A 
HETATM   24  C22 UNK     1      11.966   6.709   7.438  1.00  0.00    -0.001 A 
HETATM   25  C23 UNK     1      10.894   7.044   8.259  1.00  0.00     0.089 A 
HETATM   26  C24 UNK     1      11.707   6.237   6.149  1.00  0.00     0.014 A 
HETATM   27  O2  UNK     1      11.116   7.524   9.565  1.00  0.00    -0.274 OA
HETATM   28  C25 UNK     1       9.575   6.922   7.829  1.00  0.00     0.038 A 
HETATM   29  C21 UNK     1      12.399   7.681  10.082  1.00  0.00     0.304 A 
HETATM   30  O3  UNK     1      12.582   8.101  11.220  1.00  0.00    -0.259 OA
HETATM   31  C27 UNK     1       9.325   6.449   6.543  1.00  0.00     0.003 A 
HETATM   32  C26 UNK     1      10.388   6.108   5.704  1.00  0.00     0.001 A 
ENDBRANCH   8  22
TORSDOF 4
ENDMDL
MODEL 3
REMARK VINA RESULT:      -8.8      1.477      2.524
REMARK  4 active torsions:
REMARK  status: ('A' for Active; 'I' for Inactive)
REMARK    1  A    between atoms: C3_8  and  N1_4 
REMARK       I    between atoms: C8_13  and  N2_5 
REMARK    2  A    between atoms: C3_8  and  C6_11 
REMARK    3  A    between atoms: C3_8  and  C7_12 
REMARK    4  A    between atoms: C13_18  and  C8_13 
ROOT
HETATM    1  O1  UNK     1      27.717  -9.046  39.639  1.00  0.00    -0.267 OA
HETATM    2  N1  UNK     1      30.160  -6.754  35.925  1.00  0.00     0.105 N 
HETATM    3  N2  UNK     1      28.216  -7.672  37.830  1.00  0.00    -0.344 N 
HETATM    4  C1  UNK     1      30.533  -7.730  36.957  1.00  0.00     0.293 C 
HETATM    5  C2  UNK     1      28.763  -6.956  35.517  1.00  0.00     0.293 C 
HETATM    6  C4  UNK     1      29.634  -7.583  38.182  1.00  0.00     0.156 C 
HETATM    7  C5  UNK     1      27.810  -6.816  36.708  1.00  0.00     0.156 C 
HETATM    8  C8  UNK     1      27.365  -8.429  38.632  1.00  0.00     0.260 C 
ENDROOT
BRANCH   2   9
HETATM    9  C3  UNK     1      31.052  -6.860  34.770  1.00  0.00     0.289 C 
BRANCH   9  10
HETATM   10  C6  UNK     1      32.235  -5.911  34.861  1.00  0.00    -0.021 A 
HETATM   11  C11 UNK     1      32.102  -4.743  35.587  1.00  0.00     0.010 A 
HETATM   12  C16 UNK     1      33.189  -3.872  35.670  1.00  0.00     0.001 A 
HETATM   13  C19 UNK     1      34.385  -4.186  35.024  1.00  0.00     0.000 A 
HETATM   14  C14 UNK     1      34.495  -5.370  34.298  1.00  0.00     0.001 A 
HETATM   15  C9  UNK     1      33.409  -6.241  34.214  1.00  0.00     0.010 A 
ENDBRANCH   9  10
BRANCH   9  16
HETATM   16  C7  UNK     1      30.312  -6.724  33.450  1.00  0.00    -0.021 A 
HETATM   17  C10 UNK     1      29.979  -7.867  32.749  1.00  0.00     0.010 A 
HETATM   18  C15 UNK     1      29.300  -7.743  31.537  1.00  0.00     0.001 A 
HETATM   19  C20 UNK     1      28.969  -6.479  31.050  1.00  0.00     0.000 A 
HETATM   20  C17 UNK     1      29.316  -5.339  31.774  1.00  0.00     0.001 A 
HETATM   21  C12 UNK     1      29.994  -5.463  32.986  1.00  0.00     0.010 A 
ENDBRANCH   9  16
ENDBRANCH   2   9
BRANCH   8  22
HETATM   22  C13 UNK     1      25.939  -8.491  38.255  1.00  0.00     0.108 A 
HETATM   23  C18 UNK     1      25.099  -7.758  38.996  1.00  0.00     0.037 A 
HETATM   24  C22 UNK     1      23.674  -7.755  38.701  1.00  0.00    -0.001 A 
HETATM   25  C23 UNK     1      23.204  -8.523  37.641  1.00  0.00     0.089 A 
HETATM   26  C24 UNK     1      22.761  -7.006  39.448  1.00  0.00     0.014 A 
HETATM   27  O2  UNK     1      24.093  -9.292  36.865  1.00  0.00    -0.274 OA
HETATM   28  C25 UNK     1      21.852  -8.565  37.308  1.00  0.00     0.038 A 
HETATM   29  C21 UNK     1      25.461  -9.315  37.123  1.00  0.00     0.304 A 
HETATM   30  O3  UNK     1      26.228  -9.989  36.442  1.00  0.00    -0.259 OA
HETATM   31  C27 UNK     1      20.948  -7.814  38.057  1.00  0.00     0.003 A 
HETATM   32  C26 UNK     1      21.401  -7.037  39.125  1.00  0.00     0.001 A 
ENDBRANCH   8  22
TORSDOF 4
ENDMDL
MODEL 4
REMARK VINA RESULT:      -8.7     32.304     34.654
REMARK  4 active torsions:
REMARK  status: ('A' for Active; 'I' for Inactive)
REMARK    1  A    between atoms: C3_8  and  N1_4 
REMARK       I    between atoms: C8_13  and  N2_5 
REMARK    2  A    between atoms: C3_8  and  C6_11 
REMARK    3  A    between atoms: C3_8  and  C7_12 
REMARK    4  A    between atoms: C13_18  and  C8_13 
ROOT
HETATM    1  O1  UNK     1      14.669   6.501  10.955  1.00  0.00    -0.267 OA
HETATM    2  N1  UNK     1      16.552  10.884   9.449  1.00  0.00     0.105 N 
HETATM    3  N2  UNK     1      14.888   8.605   9.987  1.00  0.00    -0.344 N 
HETATM    4  C1  UNK     1      17.067   9.757  10.237  1.00  0.00     0.293 C 
HETATM    5  C2  UNK     1      15.607  10.401   8.433  1.00  0.00     0.293 C 
HETATM    6  C4  UNK     1      15.921   9.025  10.934  1.00  0.00     0.156 C 
HETATM    7  C5  UNK     1      14.431   9.661   9.074  1.00  0.00     0.156 C 
HETATM    8  C8  UNK     1      14.343   7.328  10.101  1.00  0.00     0.260 C 
ENDROOT
BRANCH   2   9
HETATM    9  C3  UNK     1      17.652  11.615   8.821  1.00  0.00     0.289 C 
BRANCH   9  10
HETATM   10  C6  UNK     1      18.732  12.007   9.814  1.00  0.00    -0.021 A 
HETATM   11  C11 UNK     1      18.360  12.552  11.028  1.00  0.00     0.010 A 
HETATM   12  C16 UNK     1      19.352  12.911  11.940  1.00  0.00     0.001 A 
HETATM   13  C19 UNK     1      20.696  12.719  11.621  1.00  0.00     0.000 A 
HETATM   14  C14 UNK     1      21.048  12.167  10.391  1.00  0.00     0.001 A 
HETATM   15  C9  UNK     1      20.056  11.808   9.477  1.00  0.00     0.010 A 
ENDBRANCH   9  10
BRANCH   9  16
HETATM   16  C7  UNK     1      17.169  12.804   8.006  1.00  0.00    -0.021 A 
HETATM   17  C10 UNK     1      17.793  13.091   6.807  1.00  0.00     0.010 A 
HETATM   18  C15 UNK     1      17.350  14.182   6.059  1.00  0.00     0.001 A 
HETATM   19  C20 UNK     1      16.293  14.964   6.525  1.00  0.00     0.000 A 
HETATM   20  C17 UNK     1      15.679  14.655   7.739  1.00  0.00     0.001 A 
HETATM   21  C12 UNK     1      16.121  13.564   8.486  1.00  0.00     0.010 A 
ENDBRANCH   9  16
ENDBRANCH   2   9
BRANCH   8  22
HETATM   22  C13 UNK     1      13.296   6.939   9.136  1.00  0.00     0.108 A 
HETATM   23  C18 UNK     1      12.053   7.352   9.412  1.00  0.00     0.037 A 
HETATM   24  C22 UNK     1      10.954   7.018   8.520  1.00  0.00    -0.001 A 
HETATM   25  C23 UNK     1      11.217   6.264   7.380  1.00  0.00     0.089 A 
HETATM   26  C24 UNK     1       9.642   7.427   8.770  1.00  0.00     0.014 A 
HETATM   27  O2  UNK     1      12.527   5.833   7.095  1.00  0.00    -0.274 OA
HETATM   28  C25 UNK     1      10.209   5.910   6.487  1.00  0.00     0.038 A 
HETATM   29  C21 UNK     1      13.599   6.138   7.929  1.00  0.00     0.304 A 
HETATM   30  O3  UNK     1      14.737   5.757   7.672  1.00  0.00    -0.259 OA
HETATM   31  C27 UNK     1       8.903   6.322   6.742  1.00  0.00     0.003 A 
HETATM   32  C26 UNK     1       8.619   7.079   7.881  1.00  0.00     0.001 A 
ENDBRANCH   8  22
TORSDOF 4
ENDMDL
MODEL 5
REMARK VINA RESULT:      -8.4     32.569     34.373
REMARK  4 active torsions:
REMARK  status: ('A' for Active; 'I' for Inactive)
REMARK    1  A    between atoms: C3_8  and  N1_4 
REMARK       I    between atoms: C8_13  and  N2_5 
REMARK    2  A    between atoms: C3_8  and  C6_11 
REMARK    3  A    between atoms: C3_8  and  C7_12 
REMARK    4  A    between atoms: C13_18  and  C8_13 
ROOT
HETATM    1  O1  UNK     1      15.513   5.585   8.709  1.00  0.00    -0.267 OA
HETATM    2  N1  UNK     1      16.157  10.399   9.908  1.00  0.00     0.105 N 
HETATM    3  N2  UNK     1      15.142   7.745   9.492  1.00  0.00    -0.344 N 
HETATM    4  C1  UNK     1      17.013   9.359   9.323  1.00  0.00     0.293 C 
HETATM    5  C2  UNK     1      14.761  10.197   9.498  1.00  0.00     0.293 C 
HETATM    6  C4  UNK     1      16.558   7.974   9.779  1.00  0.00     0.156 C 
HETATM    7  C5  UNK     1      14.247   8.822   9.933  1.00  0.00     0.156 C 
HETATM    8  C8  UNK     1      14.748   6.518   8.963  1.00  0.00     0.260 C 
ENDROOT
BRANCH   2   9
HETATM    9  C3  UNK     1      16.622  11.728   9.512  1.00  0.00     0.289 C 
BRANCH   9  10
HETATM   10  C6  UNK     1      18.132  11.796   9.364  1.00  0.00    -0.021 A 
HETATM   11  C11 UNK     1      18.677  11.867   8.096  1.00  0.00     0.010 A 
HETATM   12  C16 UNK     1      20.064  11.930   7.960  1.00  0.00     0.001 A 
HETATM   13  C19 UNK     1      20.878  11.920   9.093  1.00  0.00     0.000 A 
HETATM   14  C14 UNK     1      20.305  11.848  10.361  1.00  0.00     0.001 A 
HETATM   15  C9  UNK     1      18.918  11.784  10.499  1.00  0.00     0.010 A 
ENDBRANCH   9  10
BRANCH   9  16
HETATM   16  C7  UNK     1      16.089  12.824  10.421  1.00  0.00    -0.021 A 
HETATM   17  C10 UNK     1      15.691  12.497  11.702  1.00  0.00     0.010 A 
HETATM   18  C15 UNK     1      15.201  13.503  12.535  1.00  0.00     0.001 A 
HETATM   19  C20 UNK     1      15.119  14.815  12.070  1.00  0.00     0.000 A 
HETATM   20  C17 UNK     1      15.525  15.122  10.772  1.00  0.00     0.001 A 
HETATM   21  C12 UNK     1      16.016  14.117   9.939  1.00  0.00     0.010 A 
ENDBRANCH   9  16
ENDBRANCH   2   9
BRANCH   8  22
HETATM   22  C13 UNK     1      13.310   6.315   8.693  1.00  0.00     0.108 A 
HETATM   23  C18 UNK     1      12.887   6.641   7.465  1.00  0.00     0.037 A 
HETATM   24  C22 UNK     1      11.487   6.477   7.105  1.00  0.00    -0.001 A 
HETATM   25  C23 UNK     1      10.602   5.978   8.055  1.00  0.00     0.089 A 
HETATM   26  C24 UNK     1      11.002   6.806   5.837  1.00  0.00     0.014 A 
HETATM   27  O2  UNK     1      11.053   5.636   9.344  1.00  0.00    -0.274 OA
HETATM   28  C25 UNK     1       9.249   5.798   7.773  1.00  0.00     0.038 A 
HETATM   29  C21 UNK     1      12.386   5.782   9.718  1.00  0.00     0.304 A 
HETATM   30  O3  UNK     1      12.770   5.482  10.844  1.00  0.00    -0.259 OA
HETATM   31  C27 UNK     1       8.773   6.126   6.506  1.00  0.00     0.003 A 
HETATM   32  C26 UNK     1       9.647   6.630   5.539  1.00  0.00     0.001 A 
ENDBRANCH   8  22
TORSDOF 4
ENDMDL
MODEL 6
REMARK VINA RESULT:      -8.1      2.634      3.324
REMARK  4 active torsions:
REMARK  status: ('A' for Active; 'I' for Inactive)
REMARK    1  A    between atoms: C3_8  and  N1_4 
REMARK       I    between atoms: C8_13  and  N2_5 
REMARK    2  A    between atoms: C3_8  and  C6_11 
REMARK    3  A    between atoms: C3_8  and  C7_12 
REMARK    4  A    between atoms: C13_18  and  C8_13 
ROOT
HETATM    1  O1  UNK     1      27.723  -8.369  39.938  1.00  0.00    -0.267 OA
HETATM    2  N1  UNK     1      29.445  -8.245  35.244  1.00  0.00     0.105 N 
HETATM    3  N2  UNK     1      28.081  -7.754  37.724  1.00  0.00    -0.344 N 
HETATM    4  C1  UNK     1      29.720  -9.078  36.421  1.00  0.00     0.293 C 
HETATM    5  C2  UNK     1      28.040  -7.817  35.243  1.00  0.00     0.293 C 
HETATM    6  C4  UNK     1      29.439  -8.300  37.704  1.00  0.00     0.156 C 
HETATM    7  C5  UNK     1      27.699  -7.025  36.508  1.00  0.00     0.156 C 
HETATM    8  C8  UNK     1      27.330  -7.850  38.893  1.00  0.00     0.260 C 
ENDROOT
BRANCH   2   9
HETATM    9  C3  UNK     1      29.761  -8.972  34.014  1.00  0.00     0.289 C 
BRANCH   9  10
HETATM   10  C6  UNK     1      31.241  -9.291  33.891  1.00  0.00    -0.021 A 
HETATM   11  C11 UNK     1      31.622 -10.556  33.485  1.00  0.00     0.010 A 
HETATM   12  C16 UNK     1      32.982 -10.847  33.372  1.00  0.00     0.001 A 
HETATM   13  C19 UNK     1      33.932  -9.870  33.667  1.00  0.00     0.000 A 
HETATM   14  C14 UNK     1      33.524  -8.602  34.075  1.00  0.00     0.001 A 
HETATM   15  C9  UNK     1      32.164  -8.309  34.189  1.00  0.00     0.010 A 
ENDBRANCH   9  10
BRANCH   9  16
HETATM   16  C7  UNK     1      29.222  -8.279  32.774  1.00  0.00    -0.021 A 
HETATM   17  C10 UNK     1      29.499  -6.940  32.582  1.00  0.00     0.010 A 
HETATM   18  C15 UNK     1      29.005  -6.303  31.444  1.00  0.00     0.001 A 
HETATM   19  C20 UNK     1      28.242  -7.018  30.521  1.00  0.00     0.000 A 
HETATM   20  C17 UNK     1      27.973  -8.369  30.736  1.00  0.00     0.001 A 
HETATM   21  C12 UNK     1      28.468  -9.007  31.873  1.00  0.00     0.010 A 
ENDBRANCH   9  16
ENDBRANCH   2   9
BRANCH   8  22
HETATM   22  C13 UNK     1      25.967  -7.282  38.882  1.00  0.00     0.108 A 
HETATM   23  C18 UNK     1      24.959  -8.162  38.829  1.00  0.00     0.037 A 
HETATM   24  C22 UNK     1      23.581  -7.699  38.814  1.00  0.00    -0.001 A 
HETATM   25  C23 UNK     1      23.330  -6.331  38.855  1.00  0.00     0.089 A 
HETATM   26  C24 UNK     1      22.499  -8.582  38.758  1.00  0.00     0.014 A 
HETATM   27  O2  UNK     1      24.394  -5.410  38.911  1.00  0.00    -0.274 OA
HETATM   28  C25 UNK     1      22.033  -5.822  38.842  1.00  0.00     0.038 A 
HETATM   29  C21 UNK     1      25.723  -5.823  38.927  1.00  0.00     0.304 A 
HETATM   30  O3  UNK     1      26.643  -5.013  38.975  1.00  0.00    -0.259 OA
HETATM   31  C27 UNK     1      20.960  -6.709  38.787  1.00  0.00     0.003 A 
HETATM   32  C26 UNK     1      21.192  -8.085  38.745  1.00  0.00     0.001 A 
ENDBRANCH   8  22
TORSDOF 4
ENDMDL
MODEL 7
REMARK VINA RESULT:      -8.1      3.390      4.955
REMARK  4 active torsions:
REMARK  status: ('A' for Active; 'I' for Inactive)
REMARK    1  A    between atoms: C3_8  and  N1_4 
REMARK       I    between atoms: C8_13  and  N2_5 
REMARK    2  A    between atoms: C3_8  and  C6_11 
REMARK    3  A    between atoms: C3_8  and  C7_12 
REMARK    4  A    between atoms: C13_18  and  C8_13 
ROOT
HETATM    1  O1  UNK     1      32.446  -5.334  36.721  1.00  0.00    -0.267 OA
HETATM    2  N1  UNK     1      31.591  -7.603  32.346  1.00  0.00     0.105 N 
HETATM    3  N2  UNK     1      31.378  -6.358  34.926  1.00  0.00    -0.344 N 
HETATM    4  C1  UNK     1      32.785  -7.074  33.017  1.00  0.00     0.293 C 
HETATM    5  C2  UNK     1      30.637  -8.117  33.339  1.00  0.00     0.293 C 
HETATM    6  C4  UNK     1      32.405  -5.943  33.970  1.00  0.00     0.156 C 
HETATM    7  C5  UNK     1      30.215  -7.022  34.323  1.00  0.00     0.156 C 
HETATM    8  C8  UNK     1      31.511  -5.993  36.264  1.00  0.00     0.260 C 
ENDROOT
BRANCH   2   9
HETATM    9  C3  UNK     1      31.958  -8.654  31.397  1.00  0.00     0.289 C 
BRANCH   9  10
HETATM   10  C6  UNK     1      33.253  -8.348  30.665  1.00  0.00    -0.021 A 
HETATM   11  C11 UNK     1      33.276  -7.315  29.747  1.00  0.00     0.010 A 
HETATM   12  C16 UNK     1      34.466  -7.035  29.075  1.00  0.00     0.001 A 
HETATM   13  C19 UNK     1      35.609  -7.793  29.334  1.00  0.00     0.000 A 
HETATM   14  C14 UNK     1      35.562  -8.829  30.264  1.00  0.00     0.001 A 
HETATM   15  C9  UNK     1      34.372  -9.111  30.936  1.00  0.00     0.010 A 
ENDBRANCH   9  10
BRANCH   9  16
HETATM   16  C7  UNK     1      30.828  -8.992  30.438  1.00  0.00    -0.021 A 
HETATM   17  C10 UNK     1      29.879  -8.029  30.157  1.00  0.00     0.010 A 
HETATM   18  C15 UNK     1      28.841  -8.340  29.278  1.00  0.00     0.001 A 
HETATM   19  C20 UNK     1      28.774  -9.607  28.699  1.00  0.00     0.000 A 
HETATM   20  C17 UNK     1      29.743 -10.564  28.998  1.00  0.00     0.001 A 
HETATM   21  C12 UNK     1      30.781 -10.253  29.876  1.00  0.00     0.010 A 
ENDBRANCH   9  16
ENDBRANCH   2   9
BRANCH   8  22
HETATM   22  C13 UNK     1      30.453  -6.421  37.201  1.00  0.00     0.108 A 
HETATM   23  C18 UNK     1      30.360  -7.737  37.429  1.00  0.00     0.037 A 
HETATM   24  C22 UNK     1      29.348  -8.254  38.337  1.00  0.00    -0.001 A 
HETATM   25  C23 UNK     1      28.483  -7.361  38.961  1.00  0.00     0.089 A 
HETATM   26  C24 UNK     1      29.215  -9.619  38.602  1.00  0.00     0.014 A 
HETATM   27  O2  UNK     1      28.586  -5.977  38.717  1.00  0.00    -0.274 OA
HETATM   28  C25 UNK     1      27.492  -7.792  39.840  1.00  0.00     0.038 A 
HETATM   29  C21 UNK     1      29.544  -5.453  37.854  1.00  0.00     0.304 A 
HETATM   30  O3  UNK     1      29.625  -4.246  37.648  1.00  0.00    -0.259 OA
HETATM   31  C27 UNK     1      27.367  -9.155  40.101  1.00  0.00     0.003 A 
HETATM   32  C26 UNK     1      28.225 -10.067  39.484  1.00  0.00     0.001 A 
ENDBRANCH   8  22
TORSDOF 4
ENDMDL
MODEL 8
REMARK VINA RESULT:      -8.1     29.249     32.399
REMARK  4 active torsions:
REMARK  status: ('A' for Active; 'I' for Inactive)
REMARK    1  A    between atoms: C3_8  and  N1_4 
REMARK       I    between atoms: C8_13  and  N2_5 
REMARK    2  A    between atoms: C3_8  and  C6_11 
REMARK    3  A    between atoms: C3_8  and  C7_12 
REMARK    4  A    between atoms: C13_18  and  C8_13 
ROOT
HETATM    1  O1  UNK     1      13.278  13.206  14.795  1.00  0.00    -0.267 OA
HETATM    2  N1  UNK     1      14.759  10.236  11.053  1.00  0.00     0.105 N 
HETATM    3  N2  UNK     1      13.453  11.412  13.325  1.00  0.00    -0.344 N 
HETATM    4  C1  UNK     1      15.143  11.574  11.521  1.00  0.00     0.293 C 
HETATM    5  C2  UNK     1      14.357   9.398  12.190  1.00  0.00     0.293 C 
HETATM    6  C4  UNK     1      13.974  12.244  12.240  1.00  0.00     0.156 C 
HETATM    7  C5  UNK     1      13.181  10.019  12.949  1.00  0.00     0.156 C 
HETATM    8  C8  UNK     1      13.145  12.007  14.546  1.00  0.00     0.260 C 
ENDROOT
BRANCH   2   9
HETATM    9  C3  UNK     1      15.862   9.613  10.321  1.00  0.00     0.289 C 
BRANCH   9  10
HETATM   10  C6  UNK     1      16.390  10.495   9.203  1.00  0.00    -0.021 A 
HETATM   11  C11 UNK     1      15.494  11.056   8.313  1.00  0.00     0.010 A 
HETATM   12  C16 UNK     1      15.980  11.867   7.287  1.00  0.00     0.001 A 
HETATM   13  C19 UNK     1      17.351  12.100   7.170  1.00  0.00     0.000 A 
HETATM   14  C14 UNK     1      18.235  11.523   8.080  1.00  0.00     0.001 A 
HETATM   15  C9  UNK     1      17.750  10.711   9.107  1.00  0.00     0.010 A 
ENDBRANCH   9  10
BRANCH   9  16
HETATM   16  C7  UNK     1      15.518   8.216   9.830  1.00  0.00    -0.021 A 
HETATM   17  C10 UNK     1      16.372   7.172  10.129  1.00  0.00     0.010 A 
HETATM   18  C15 UNK     1      16.056   5.890   9.679  1.00  0.00     0.001 A 
HETATM   19  C20 UNK     1      14.893   5.678   8.938  1.00  0.00     0.000 A 
HETATM   20  C17 UNK     1      14.046   6.747   8.648  1.00  0.00     0.001 A 
HETATM   21  C12 UNK     1      14.361   8.029   9.099  1.00  0.00     0.010 A 
ENDBRANCH   9  16
ENDBRANCH   2   9
BRANCH   8  22
HETATM   22  C13 UNK     1      12.614  11.141  15.618  1.00  0.00     0.108 A 
HETATM   23  C18 UNK     1      13.494  10.734  16.541  1.00  0.00     0.037 A 
HETATM   24  C22 UNK     1      13.065   9.878  17.636  1.00  0.00    -0.001 A 
HETATM   25  C23 UNK     1      11.731   9.492  17.706  1.00  0.00     0.089 A 
HETATM   26  C24 UNK     1      13.950   9.430  18.620  1.00  0.00     0.014 A 
HETATM   27  O2  UNK     1      10.809   9.923  16.731  1.00  0.00    -0.274 OA
HETATM   28  C25 UNK     1      11.257   8.672  18.728  1.00  0.00     0.038 A 
HETATM   29  C21 UNK     1      11.190  10.742  15.673  1.00  0.00     0.304 A 
HETATM   30  O3  UNK     1      10.380  11.112  14.828  1.00  0.00    -0.259 OA
HETATM   31  C27 UNK     1      12.145   8.230  19.706  1.00  0.00     0.003 A 
HETATM   32  C26 UNK     1      13.488   8.607  19.653  1.00  0.00     0.001 A 
ENDBRANCH   8  22
TORSDOF 4
ENDMDL
MODEL 9
REMARK VINA RESULT:      -8.0      2.753      3.821
REMARK  4 active torsions:
REMARK  status: ('A' for Active; 'I' for Inactive)
REMARK    1  A    between atoms: C3_8  and  N1_4 
REMARK       I    between atoms: C8_13  and  N2_5 
REMARK    2  A    between atoms: C3_8  and  C6_11 
REMARK    3  A    between atoms: C3_8  and  C7_12 
REMARK    4  A    between atoms: C13_18  and  C8_13 
ROOT
HETATM    1  O1  UNK     1      30.447  -7.337  38.766  1.00  0.00    -0.267 OA
HETATM    2  N1  UNK     1      30.638  -7.529  33.771  1.00  0.00     0.105 N 
HETATM    3  N2  UNK     1      30.030  -6.930  36.514  1.00  0.00    -0.344 N 
HETATM    4  C1  UNK     1      31.371  -8.193  34.857  1.00  0.00     0.293 C 
HETATM    5  C2  UNK     1      29.252  -7.266  34.181  1.00  0.00     0.293 C 
HETATM    6  C4  UNK     1      31.382  -7.316  36.108  1.00  0.00     0.156 C 
HETATM    7  C5  UNK     1      29.200  -6.385  35.432  1.00  0.00     0.156 C 
HETATM    8  C8  UNK     1      29.688  -6.983  37.863  1.00  0.00     0.260 C 
ENDROOT
BRANCH   2   9
HETATM    9  C3  UNK     1      30.668  -8.345  32.557  1.00  0.00     0.289 C 
BRANCH   9  10
HETATM   10  C6  UNK     1      32.021  -8.311  31.868  1.00  0.00    -0.021 A 
HETATM   11  C11 UNK     1      32.937  -7.345  32.237  1.00  0.00     0.010 A 
HETATM   12  C16 UNK     1      34.180  -7.315  31.604  1.00  0.00     0.001 A 
HETATM   13  C19 UNK     1      34.482  -8.251  30.614  1.00  0.00     0.000 A 
HETATM   14  C14 UNK     1      33.542  -9.216  30.259  1.00  0.00     0.001 A 
HETATM   15  C9  UNK     1      32.298  -9.247  30.891  1.00  0.00     0.010 A 
ENDBRANCH   9  10
BRANCH   9  16
HETATM   16  C7  UNK     1      29.534  -8.009  31.603  1.00  0.00    -0.021 A 
HETATM   17  C10 UNK     1      28.586  -8.974  31.325  1.00  0.00     0.010 A 
HETATM   18  C15 UNK     1      27.545  -8.667  30.449  1.00  0.00     0.001 A 
HETATM   19  C20 UNK     1      27.473  -7.401  29.869  1.00  0.00     0.000 A 
HETATM   20  C17 UNK     1      28.443  -6.442  30.163  1.00  0.00     0.001 A 
HETATM   21  C12 UNK     1      29.483  -6.749  31.039  1.00  0.00     0.010 A 
ENDBRANCH   9  16
ENDBRANCH   2   9
BRANCH   8  22
HETATM   22  C13 UNK     1      28.319  -6.578  38.241  1.00  0.00     0.108 A 
HETATM   23  C18 UNK     1      27.403  -7.554  38.282  1.00  0.00     0.037 A 
HETATM   24  C22 UNK     1      26.027  -7.253  38.644  1.00  0.00    -0.001 A 
HETATM   25  C23 UNK     1      25.681  -5.940  38.944  1.00  0.00     0.089 A 
HETATM   26  C24 UNK     1      25.039  -8.240  38.698  1.00  0.00     0.014 A 
HETATM   27  O2  UNK     1      26.649  -4.917  38.899  1.00  0.00    -0.274 OA
HETATM   28  C25 UNK     1      24.381  -5.585  39.296  1.00  0.00     0.038 A 
HETATM   29  C21 UNK     1      27.974  -5.174  38.557  1.00  0.00     0.304 A 
HETATM   30  O3  UNK     1      28.809  -4.277  38.520  1.00  0.00    -0.259 OA
HETATM   31  C27 UNK     1      23.402  -6.575  39.350  1.00  0.00     0.003 A 
HETATM   32  C26 UNK     1      23.729  -7.899  39.051  1.00  0.00     0.001 A 
ENDBRANCH   8  22
TORSDOF 4
ENDMDL
MODEL 10
REMARK VINA RESULT:      -8.0      3.924      8.558
REMARK  4 active torsions:
REMARK  status: ('A' for Active; 'I' for Inactive)
REMARK    1  A    between atoms: C3_8  and  N1_4 
REMARK       I    between atoms: C8_13  and  N2_5 
REMARK    2  A    between atoms: C3_8  and  C6_11 
REMARK    3  A    between atoms: C3_8  and  C7_12 
REMARK    4  A    between atoms: C13_18  and  C8_13 
ROOT
HETATM    1  O1  UNK     1      29.530 -10.871  31.853  1.00  0.00    -0.267 OA
HETATM    2  N1  UNK     1      29.262  -8.235  36.095  1.00  0.00     0.105 N 
HETATM    3  N2  UNK     1      29.594  -9.120  33.383  1.00  0.00    -0.344 N 
HETATM    4  C1  UNK     1      29.008  -9.635  35.734  1.00  0.00     0.293 C 
HETATM    5  C2  UNK     1      30.341  -7.684  35.265  1.00  0.00     0.293 C 
HETATM    6  C4  UNK     1      28.606  -9.744  34.265  1.00  0.00     0.156 C 
HETATM    7  C5  UNK     1      29.992  -7.762  33.776  1.00  0.00     0.156 C 
HETATM    8  C8  UNK     1      29.970  -9.778  32.214  1.00  0.00     0.260 C 
ENDROOT
BRANCH   2   9
HETATM    9  C3  UNK     1      29.599  -8.124  37.515  1.00  0.00     0.289 C 
BRANCH   9  10
HETATM   10  C6  UNK     1      28.546  -8.749  38.413  1.00  0.00    -0.021 A 
HETATM   11  C11 UNK     1      28.922  -9.751  39.288  1.00  0.00     0.010 A 
HETATM   12  C16 UNK     1      27.954 -10.325  40.113  1.00  0.00     0.001 A 
HETATM   13  C19 UNK     1      26.631  -9.887  40.047  1.00  0.00     0.000 A 
HETATM   14  C14 UNK     1      26.276  -8.876  39.156  1.00  0.00     0.001 A 
HETATM   15  C9  UNK     1      27.243  -8.301  38.330  1.00  0.00     0.010 A 
ENDBRANCH   9  10
BRANCH   9  16
HETATM   16  C7  UNK     1      29.923  -6.696  37.925  1.00  0.00    -0.021 A 
HETATM   17  C10 UNK     1      31.221  -6.379  38.274  1.00  0.00     0.010 A 
HETATM   18  C15 UNK     1      31.519  -5.069  38.651  1.00  0.00     0.001 A 
HETATM   19  C20 UNK     1      30.512  -4.104  38.671  1.00  0.00     0.000 A 
HETATM   20  C17 UNK     1      29.208  -4.448  38.316  1.00  0.00     0.001 A 
HETATM   21  C12 UNK     1      28.910  -5.757  37.938  1.00  0.00     0.010 A 
ENDBRANCH   9  16
ENDBRANCH   2   9
BRANCH   8  22
HETATM   22  C13 UNK     1      30.961  -9.118  31.342  1.00  0.00     0.108 A 
HETATM   23  C18 UNK     1      32.247  -9.406  31.583  1.00  0.00     0.037 A 
HETATM   24  C22 UNK     1      33.297  -8.804  30.776  1.00  0.00    -0.001 A 
HETATM   25  C23 UNK     1      32.943  -7.927  29.756  1.00  0.00     0.089 A 
HETATM   26  C24 UNK     1      34.650  -9.075  30.994  1.00  0.00     0.014 A 
HETATM   27  O2  UNK     1      31.589  -7.628  29.507  1.00  0.00    -0.274 OA
HETATM   28  C25 UNK     1      33.900  -7.317  28.948  1.00  0.00     0.038 A 
HETATM   29  C21 UNK     1      30.562  -8.189  30.262  1.00  0.00     0.304 A 
HETATM   30  O3  UNK     1      29.386  -7.922  30.038  1.00  0.00    -0.259 OA
HETATM   31  C27 UNK     1      35.247  -7.594  29.170  1.00  0.00     0.003 A 
HETATM   32  C26 UNK     1      35.622  -8.470  30.191  1.00  0.00     0.001 A 
ENDBRANCH   8  22
TORSDOF 4
ENDMDL
