MODEL 1
REMARK VINA RESULT:      -7.3      0.000      0.000
REMARK  3 active torsions:
REMARK  status: ('A' for Active; 'I' for Inactive)
REMARK    1  A    between atoms: C10_14  and  O2_2 
REMARK    2  A    between atoms: C3_7  and  O2_2 
REMARK    3  A    between atoms: C10_14  and  C8_12 
ROOT
HETATM    1  O1  UNK     1      19.895  -0.365  31.863  1.00  0.00    -0.275 OA
HETATM    2  O4  UNK     1      21.006  -2.362  32.018  1.00  0.00    -0.260 OA
HETATM    3  C1  UNK     1      19.388   0.540  29.661  1.00  0.00    -0.002 A 
HETATM    4  C2  UNK     1      19.333   0.639  31.048  1.00  0.00     0.092 A 
HETATM    5  C3  UNK     1      18.167   2.733  30.904  1.00  0.00     0.082 A 
HETATM    6  C4  UNK     1      18.730   1.724  31.683  1.00  0.00     0.075 A 
HETATM    7  C5  UNK     1      18.822   1.555  28.888  1.00  0.00     0.017 A 
HETATM    8  C6  UNK     1      18.212   2.649  29.510  1.00  0.00     0.038 A 
HETATM    9  C7  UNK     1      20.034  -0.619  29.067  1.00  0.00     0.020 A 
HETATM   10  C9  UNK     1      20.562  -1.566  29.845  1.00  0.00     0.083 A 
HETATM   11  C11 UNK     1      20.517  -1.483  31.317  1.00  0.00     0.288 A 
ENDROOT
BRANCH   5  12
HETATM   12  O2  UNK     1      17.571   3.801  31.502  1.00  0.00    -0.279 OA
BRANCH  12  13
HETATM   13  C10 UNK     1      18.466   4.808  31.910  1.00  0.00     0.263 C 
HETATM   14  O3  UNK     1      18.980   4.889  33.017  1.00  0.00    -0.265 OA
BRANCH  13  15
HETATM   15  C8  UNK     1      18.693   5.770  30.766  1.00  0.00     0.107 C 
HETATM   16  C12 UNK     1      20.149   5.808  30.333  1.00  0.00     0.015 C 
ENDBRANCH  13  15
ENDBRANCH  12  13
ENDBRANCH   5  12
TORSDOF 3
ENDMDL
MODEL 2
REMARK VINA RESULT:      -7.1     22.481     24.112
REMARK  3 active torsions:
REMARK  status: ('A' for Active; 'I' for Inactive)
REMARK    1  A    between atoms: C10_14  and  O2_2 
REMARK    2  A    between atoms: C3_7  and  O2_2 
REMARK    3  A    between atoms: C10_14  and  C8_12 
ROOT
HETATM    1  O1  UNK     1       9.808   5.494   8.556  1.00  0.00    -0.275 OA
HETATM    2  O4  UNK     1       7.706   5.248   7.680  1.00  0.00    -0.260 OA
HETATM    3  C1  UNK     1      11.579   6.393   7.149  1.00  0.00    -0.002 A 
HETATM    4  C2  UNK     1      11.149   5.891   8.374  1.00  0.00     0.092 A 
HETATM    5  C3  UNK     1      13.346   6.144   9.308  1.00  0.00     0.082 A 
HETATM    6  C4  UNK     1      12.015   5.760   9.458  1.00  0.00     0.075 A 
HETATM    7  C5  UNK     1      12.915   6.775   7.007  1.00  0.00     0.017 A 
HETATM    8  C6  UNK     1      13.795   6.650   8.086  1.00  0.00     0.038 A 
HETATM    9  C7  UNK     1      10.622   6.501   6.061  1.00  0.00     0.020 A 
HETATM   10  C9  UNK     1       9.354   6.124   6.242  1.00  0.00     0.083 A 
HETATM   11  C11 UNK     1       8.874   5.589   7.530  1.00  0.00     0.288 A 
ENDROOT
BRANCH   5  12
HETATM   12  O2  UNK     1      14.210   6.026  10.354  1.00  0.00    -0.279 OA
BRANCH  12  13
HETATM   13  C10 UNK     1      15.498   5.585   9.992  1.00  0.00     0.263 C 
HETATM   14  O3  UNK     1      15.774   4.462   9.595  1.00  0.00    -0.265 OA
BRANCH  13  15
HETATM   15  C8  UNK     1      16.482   6.719  10.170  1.00  0.00     0.107 C 
HETATM   16  C12 UNK     1      15.980   7.763  11.152  1.00  0.00     0.015 C 
ENDBRANCH  13  15
ENDBRANCH  12  13
ENDBRANCH   5  12
TORSDOF 3
ENDMDL
MODEL 3
REMARK VINA RESULT:      -7.0      3.659      6.126
REMARK  3 active torsions:
REMARK  status: ('A' for Active; 'I' for Inactive)
REMARK    1  A    between atoms: C10_14  and  O2_2 
REMARK    2  A    between atoms: C3_7  and  O2_2 
REMARK    3  A    between atoms: C10_14  and  C8_12 
ROOT
HETATM    1  O1  UNK     1      16.845  -0.267  34.149  1.00  0.00    -0.275 OA
HETATM    2  O4  UNK     1      15.275   0.591  35.579  1.00  0.00    -0.260 OA
HETATM    3  C1  UNK     1      18.774  -1.432  35.071  1.00  0.00    -0.002 A 
HETATM    4  C2  UNK     1      18.055  -0.968  33.972  1.00  0.00     0.092 A 
HETATM    5  C3  UNK     1      19.692  -1.862  32.459  1.00  0.00     0.082 A 
HETATM    6  C4  UNK     1      18.498  -1.173  32.666  1.00  0.00     0.075 A 
HETATM    7  C5  UNK     1      19.969  -2.122  34.854  1.00  0.00     0.017 A 
HETATM    8  C6  UNK     1      20.425  -2.336  33.550  1.00  0.00     0.038 A 
HETATM    9  C7  UNK     1      18.253  -1.182  36.404  1.00  0.00     0.020 A 
HETATM   10  C9  UNK     1      17.106  -0.518  36.564  1.00  0.00     0.083 A 
HETATM   11  C11 UNK     1      16.327  -0.017  35.416  1.00  0.00     0.288 A 
ENDROOT
BRANCH   5  12
HETATM   12  O2  UNK     1      20.144  -2.076  31.193  1.00  0.00    -0.279 OA
BRANCH  12  13
HETATM   13  C10 UNK     1      20.601  -0.915  30.540  1.00  0.00     0.263 C 
HETATM   14  O3  UNK     1      21.128   0.043  31.088  1.00  0.00    -0.265 OA
BRANCH  13  15
HETATM   15  C8  UNK     1      20.339  -1.040  29.056  1.00  0.00     0.107 C 
HETATM   16  C12 UNK     1      19.362   0.012  28.559  1.00  0.00     0.015 C 
ENDBRANCH  13  15
ENDBRANCH  12  13
ENDBRANCH   5  12
TORSDOF 3
ENDMDL
MODEL 4
REMARK VINA RESULT:      -7.0      2.511      3.939
REMARK  3 active torsions:
REMARK  status: ('A' for Active; 'I' for Inactive)
REMARK    1  A    between atoms: C10_14  and  O2_2 
REMARK    2  A    between atoms: C3_7  and  O2_2 
REMARK    3  A    between atoms: C10_14  and  C8_12 
ROOT
HETATM    1  O1  UNK     1      18.041   2.603  32.599  1.00  0.00    -0.275 OA
HETATM    2  O4  UNK     1      18.207   0.325  32.760  1.00  0.00    -0.260 OA
HETATM    3  C1  UNK     1      18.825   3.707  30.576  1.00  0.00    -0.002 A 
HETATM    4  C2  UNK     1      18.253   3.775  31.844  1.00  0.00     0.092 A 
HETATM    5  C3  UNK     1      18.071   6.164  31.691  1.00  0.00     0.082 A 
HETATM    6  C4  UNK     1      17.873   4.989  32.413  1.00  0.00     0.075 A 
HETATM    7  C5  UNK     1      19.020   4.890  29.859  1.00  0.00     0.017 A 
HETATM    8  C6  UNK     1      18.643   6.115  30.417  1.00  0.00     0.038 A 
HETATM    9  C7  UNK     1      19.199   2.407  30.045  1.00  0.00     0.020 A 
HETATM   10  C9  UNK     1      18.993   1.303  30.765  1.00  0.00     0.083 A 
HETATM   11  C11 UNK     1      18.389   1.349  32.110  1.00  0.00     0.288 A 
ENDROOT
BRANCH   5  12
HETATM   12  O2  UNK     1      17.706   7.361  32.226  1.00  0.00    -0.279 OA
BRANCH  12  13
HETATM   13  C10 UNK     1      16.435   7.811  31.821  1.00  0.00     0.263 C 
HETATM   14  O3  UNK     1      16.206   8.474  30.819  1.00  0.00    -0.265 OA
BRANCH  13  15
HETATM   15  C8  UNK     1      15.398   7.345  32.818  1.00  0.00     0.107 C 
HETATM   16  C12 UNK     1      14.030   7.173  32.179  1.00  0.00     0.015 C 
ENDBRANCH  13  15
ENDBRANCH  12  13
ENDBRANCH   5  12
TORSDOF 3
ENDMDL
MODEL 5
REMARK VINA RESULT:      -7.0      1.409      2.424
REMARK  3 active torsions:
REMARK  status: ('A' for Active; 'I' for Inactive)
REMARK    1  A    between atoms: C10_14  and  O2_2 
REMARK    2  A    between atoms: C3_7  and  O2_2 
REMARK    3  A    between atoms: C10_14  and  C8_12 
ROOT
HETATM    1  O1  UNK     1      19.920  -0.953  32.640  1.00  0.00    -0.275 OA
HETATM    2  O4  UNK     1      20.526  -2.466  34.250  1.00  0.00    -0.260 OA
HETATM    3  C1  UNK     1      20.250  -1.522  30.297  1.00  0.00    -0.002 A 
HETATM    4  C2  UNK     1      19.822  -0.625  31.273  1.00  0.00     0.092 A 
HETATM    5  C3  UNK     1      19.181   0.972  29.599  1.00  0.00     0.082 A 
HETATM    6  C4  UNK     1      19.289   0.619  30.942  1.00  0.00     0.075 A 
HETATM    7  C5  UNK     1      20.137  -1.161  28.952  1.00  0.00     0.017 A 
HETATM    8  C6  UNK     1      19.604   0.084  28.606  1.00  0.00     0.038 A 
HETATM    9  C7  UNK     1      20.797  -2.802  30.713  1.00  0.00     0.020 A 
HETATM   10  C9  UNK     1      20.885  -3.105  32.010  1.00  0.00     0.083 A 
HETATM   11  C11 UNK     1      20.439  -2.172  33.062  1.00  0.00     0.288 A 
ENDROOT
BRANCH   5  12
HETATM   12  O2  UNK     1      18.662   2.182  29.252  1.00  0.00    -0.279 OA
BRANCH  12  13
HETATM   13  C10 UNK     1      18.167   2.930  30.338  1.00  0.00     0.263 C 
HETATM   14  O3  UNK     1      17.171   2.652  30.991  1.00  0.00    -0.265 OA
BRANCH  13  15
HETATM   15  C8  UNK     1      19.060   4.127  30.569  1.00  0.00     0.107 C 
HETATM   16  C12 UNK     1      18.650   4.915  31.801  1.00  0.00     0.015 C 
ENDBRANCH  13  15
ENDBRANCH  12  13
ENDBRANCH   5  12
TORSDOF 3
ENDMDL
MODEL 6
REMARK VINA RESULT:      -7.0     22.543     24.175
REMARK  3 active torsions:
REMARK  status: ('A' for Active; 'I' for Inactive)
REMARK    1  A    between atoms: C10_14  and  O2_2 
REMARK    2  A    between atoms: C3_7  and  O2_2 
REMARK    3  A    between atoms: C10_14  and  C8_12 
ROOT
HETATM    1  O1  UNK     1       9.658   5.393   8.637  1.00  0.00    -0.275 OA
HETATM    2  O4  UNK     1       7.441   5.445   8.064  1.00  0.00    -0.260 OA
HETATM    3  C1  UNK     1      11.306   6.273   7.076  1.00  0.00    -0.002 A 
HETATM    4  C2  UNK     1      10.996   5.680   8.297  1.00  0.00     0.092 A 
HETATM    5  C3  UNK     1      13.315   5.617   8.914  1.00  0.00     0.082 A 
HETATM    6  C4  UNK     1      11.984   5.347   9.223  1.00  0.00     0.075 A 
HETATM    7  C5  UNK     1      12.643   6.541   6.776  1.00  0.00     0.017 A 
HETATM    8  C6  UNK     1      13.644   6.213   7.694  1.00  0.00     0.038 A 
HETATM    9  C7  UNK     1      10.225   6.592   6.159  1.00  0.00     0.020 A 
HETATM   10  C9  UNK     1       8.961   6.318   6.488  1.00  0.00     0.083 A 
HETATM   11  C11 UNK     1       8.608   5.690   7.775  1.00  0.00     0.288 A 
ENDROOT
BRANCH   5  12
HETATM   12  O2  UNK     1      14.297   5.302   9.804  1.00  0.00    -0.279 OA
BRANCH  12  13
HETATM   13  C10 UNK     1      14.989   6.415  10.318  1.00  0.00     0.263 C 
HETATM   14  O3  UNK     1      14.487   7.322  10.967  1.00  0.00    -0.265 OA
BRANCH  13  15
HETATM   15  C8  UNK     1      16.451   6.312   9.943  1.00  0.00     0.107 C 
HETATM   16  C12 UNK     1      17.210   7.591  10.252  1.00  0.00     0.015 C 
ENDBRANCH  13  15
ENDBRANCH  12  13
ENDBRANCH   5  12
TORSDOF 3
ENDMDL
MODEL 7
REMARK VINA RESULT:      -6.9      3.091      5.018
REMARK  3 active torsions:
REMARK  status: ('A' for Active; 'I' for Inactive)
REMARK    1  A    between atoms: C10_14  and  O2_2 
REMARK    2  A    between atoms: C3_7  and  O2_2 
REMARK    3  A    between atoms: C10_14  and  C8_12 
ROOT
HETATM    1  O1  UNK     1      18.706   0.624  30.652  1.00  0.00    -0.275 OA
HETATM    2  O4  UNK     1      18.740   1.594  28.577  1.00  0.00    -0.260 OA
HETATM    3  C1  UNK     1      20.234  -1.210  31.126  1.00  0.00    -0.002 A 
HETATM    4  C2  UNK     1      19.223  -0.345  31.535  1.00  0.00     0.092 A 
HETATM    5  C3  UNK     1      19.175  -1.350  33.715  1.00  0.00     0.082 A 
HETATM    6  C4  UNK     1      18.685  -0.401  32.820  1.00  0.00     0.075 A 
HETATM    7  C5  UNK     1      20.720  -2.157  32.030  1.00  0.00     0.017 A 
HETATM    8  C6  UNK     1      20.191  -2.225  33.322  1.00  0.00     0.038 A 
HETATM    9  C7  UNK     1      20.748  -1.095  29.772  1.00  0.00     0.020 A 
HETATM   10  C9  UNK     1      20.255  -0.174  28.941  1.00  0.00     0.083 A 
HETATM   11  C11 UNK     1      19.183   0.753  29.351  1.00  0.00     0.288 A 
ENDROOT
BRANCH   5  12
HETATM   12  O2  UNK     1      18.665  -1.422  34.976  1.00  0.00    -0.279 OA
BRANCH  12  13
HETATM   13  C10 UNK     1      18.552  -0.178  35.625  1.00  0.00     0.263 C 
HETATM   14  O3  UNK     1      19.417   0.685  35.654  1.00  0.00    -0.265 OA
BRANCH  13  15
HETATM   15  C8  UNK     1      17.192  -0.077  36.279  1.00  0.00     0.107 C 
HETATM   16  C12 UNK     1      16.087   0.154  35.264  1.00  0.00     0.015 C 
ENDBRANCH  13  15
ENDBRANCH  12  13
ENDBRANCH   5  12
TORSDOF 3
ENDMDL
MODEL 8
REMARK VINA RESULT:      -6.9      2.521      6.755
REMARK  3 active torsions:
REMARK  status: ('A' for Active; 'I' for Inactive)
REMARK    1  A    between atoms: C10_14  and  O2_2 
REMARK    2  A    between atoms: C3_7  and  O2_2 
REMARK    3  A    between atoms: C10_14  and  C8_12 
ROOT
HETATM    1  O1  UNK     1      17.270   6.660  33.977  1.00  0.00    -0.275 OA
HETATM    2  O4  UNK     1      16.877   8.106  35.709  1.00  0.00    -0.260 OA
HETATM    3  C1  UNK     1      19.443   6.689  32.880  1.00  0.00    -0.002 A 
HETATM    4  C2  UNK     1      18.157   6.167  32.998  1.00  0.00     0.092 A 
HETATM    5  C3  UNK     1      18.552   4.645  31.184  1.00  0.00     0.082 A 
HETATM    6  C4  UNK     1      17.698   5.151  32.162  1.00  0.00     0.075 A 
HETATM    7  C5  UNK     1      20.292   6.175  31.898  1.00  0.00     0.017 A 
HETATM    8  C6  UNK     1      19.846   5.156  31.053  1.00  0.00     0.038 A 
HETATM    9  C7  UNK     1      19.854   7.749  33.785  1.00  0.00     0.020 A 
HETATM   10  C9  UNK     1      19.009   8.209  34.710  1.00  0.00     0.083 A 
HETATM   11  C11 UNK     1      17.642   7.673  34.854  1.00  0.00     0.288 A 
ENDROOT
BRANCH   5  12
HETATM   12  O2  UNK     1      18.126   3.651  30.357  1.00  0.00    -0.279 OA
BRANCH  12  13
HETATM   13  C10 UNK     1      18.521   2.359  30.756  1.00  0.00     0.263 C 
HETATM   14  O3  UNK     1      18.466   1.925  31.898  1.00  0.00    -0.265 OA
BRANCH  13  15
HETATM   15  C8  UNK     1      19.020   1.594  29.552  1.00  0.00     0.107 C 
HETATM   16  C12 UNK     1      17.935   1.406  28.506  1.00  0.00     0.015 C 
ENDBRANCH  13  15
ENDBRANCH  12  13
ENDBRANCH   5  12
TORSDOF 3
ENDMDL
MODEL 9
REMARK VINA RESULT:      -6.8      1.468      5.862
REMARK  3 active torsions:
REMARK  status: ('A' for Active; 'I' for Inactive)
REMARK    1  A    between atoms: C10_14  and  O2_2 
REMARK    2  A    between atoms: C3_7  and  O2_2 
REMARK    3  A    between atoms: C10_14  and  C8_12 
ROOT
HETATM    1  O1  UNK     1      17.872   4.906  33.365  1.00  0.00    -0.275 OA
HETATM    2  O4  UNK     1      17.647   6.792  34.644  1.00  0.00    -0.260 OA
HETATM    3  C1  UNK     1      18.657   5.118  31.071  1.00  0.00    -0.002 A 
HETATM    4  C2  UNK     1      18.223   4.325  32.130  1.00  0.00     0.092 A 
HETATM    5  C3  UNK     1      18.454   2.337  30.803  1.00  0.00     0.082 A 
HETATM    6  C4  UNK     1      18.115   2.940  32.013  1.00  0.00     0.075 A 
HETATM    7  C5  UNK     1      18.995   4.505  29.862  1.00  0.00     0.017 A 
HETATM    8  C6  UNK     1      18.893   3.117  29.730  1.00  0.00     0.038 A 
HETATM    9  C7  UNK     1      18.744   6.555  31.263  1.00  0.00     0.020 A 
HETATM   10  C9  UNK     1      18.412   7.098  32.436  1.00  0.00     0.083 A 
HETATM   11  C11 UNK     1      17.948   6.279  33.572  1.00  0.00     0.288 A 
ENDROOT
BRANCH   5  12
HETATM   12  O2  UNK     1      18.358   0.985  30.666  1.00  0.00    -0.279 OA
BRANCH  12  13
HETATM   13  C10 UNK     1      19.366   0.265  31.334  1.00  0.00     0.263 C 
HETATM   14  O3  UNK     1      19.329  -0.081  32.506  1.00  0.00    -0.265 OA
BRANCH  13  15
HETATM   15  C8  UNK     1      20.501  -0.015  30.374  1.00  0.00     0.107 C 
HETATM   16  C12 UNK     1      20.398  -1.399  29.758  1.00  0.00     0.015 C 
ENDBRANCH  13  15
ENDBRANCH  12  13
ENDBRANCH   5  12
TORSDOF 3
ENDMDL
MODEL 10
REMARK VINA RESULT:      -6.7      3.096      6.004
REMARK  3 active torsions:
REMARK  status: ('A' for Active; 'I' for Inactive)
REMARK    1  A    between atoms: C10_14  and  O2_2 
REMARK    2  A    between atoms: C3_7  and  O2_2 
REMARK    3  A    between atoms: C10_14  and  C8_12 
ROOT
HETATM    1  O1  UNK     1      18.795   0.590  30.647  1.00  0.00    -0.275 OA
HETATM    2  O4  UNK     1      18.652   1.613  28.602  1.00  0.00    -0.260 OA
HETATM    3  C1  UNK     1      20.189  -1.390  30.885  1.00  0.00    -0.002 A 
HETATM    4  C2  UNK     1      19.327  -0.447  31.438  1.00  0.00     0.092 A 
HETATM    5  C3  UNK     1      19.466  -1.507  33.588  1.00  0.00     0.082 A 
HETATM    6  C4  UNK     1      18.957  -0.492  32.781  1.00  0.00     0.075 A 
HETATM    7  C5  UNK     1      20.695  -2.404  31.701  1.00  0.00     0.017 A 
HETATM    8  C6  UNK     1      20.333  -2.461  33.050  1.00  0.00     0.038 A 
HETATM    9  C7  UNK     1      20.532  -1.284  29.477  1.00  0.00     0.020 A 
HETATM   10  C9  UNK     1      20.025  -0.297  28.734  1.00  0.00     0.083 A 
HETATM   11  C11 UNK     1      19.110   0.712  29.298  1.00  0.00     0.288 A 
ENDROOT
BRANCH   5  12
HETATM   12  O2  UNK     1      19.119  -1.569  34.904  1.00  0.00    -0.279 OA
BRANCH  12  13
HETATM   13  C10 UNK     1      20.159  -1.986  35.756  1.00  0.00     0.263 C 
HETATM   14  O3  UNK     1      21.303  -1.553  35.738  1.00  0.00    -0.265 OA
BRANCH  13  15
HETATM   15  C8  UNK     1      19.640  -3.050  36.696  1.00  0.00     0.107 C 
HETATM   16  C12 UNK     1      20.024  -4.448  36.243  1.00  0.00     0.015 C 
ENDBRANCH  13  15
ENDBRANCH  12  13
ENDBRANCH   5  12
TORSDOF 3
ENDMDL
