MODEL 1
REMARK VINA RESULT:      -8.4      0.000      0.000
REMARK  7 active torsions:
REMARK  status: ('A' for Active; 'I' for Inactive)
REMARK    1  A    between atoms: C1_7  and  O1_1 
REMARK    2  A    between atoms: C4_10  and  O1_1 
REMARK    3  A    between atoms: C10_16  and  O3_3 
REMARK    4  A    between atoms: C17_23  and  O3_3 
REMARK    5  A    between atoms: C1_7  and  C6_12 
REMARK    6  A    between atoms: C1_7  and  C10_16 
REMARK    7  A    between atoms: C12_18  and  C2_8 
ROOT
HETATM    1  O2  UNK     1      19.274  -0.471  32.907  1.00  0.00    -0.274 OA
HETATM    2  O6  UNK     1      20.102  -2.540  33.416  1.00  0.00    -0.260 OA
HETATM    3  C2  UNK     1      18.407   1.690  32.379  1.00  0.00     0.077 A 
HETATM    4  C3  UNK     1      19.559   0.407  30.644  1.00  0.00     0.005 A 
HETATM    5  C4  UNK     1      18.192   2.728  31.479  1.00  0.00     0.086 A 
HETATM    6  C5  UNK     1      19.086   0.547  31.950  1.00  0.00     0.106 A 
HETATM    7  C7  UNK     1      20.262  -0.831  30.280  1.00  0.00    -0.043 A 
HETATM    8  C8  UNK     1      19.332   1.464  29.753  1.00  0.00     0.017 A 
HETATM    9  C9  UNK     1      18.653   2.616  30.169  1.00  0.00     0.039 A 
HETATM   10  C13 UNK     1      20.426  -1.782  31.210  1.00  0.00     0.090 A 
HETATM   11  C14 UNK     1      20.782  -1.012  28.884  1.00  0.00     0.049 C 
HETATM   12  C15 UNK     1      19.933  -1.649  32.591  1.00  0.00     0.288 A 
ENDROOT
BRANCH   5  13
HETATM   13  O1  UNK     1      17.532   3.860  31.856  1.00  0.00    -0.335 OA
BRANCH  13  14
HETATM   14  C1  UNK     1      18.327   5.008  32.141  1.00  0.00     0.228 C 
BRANCH  14  15
HETATM   15  C6  UNK     1      18.678   5.710  30.830  1.00  0.00     0.038 C 
HETATM   16  C11 UNK     1      20.180   5.873  30.645  1.00  0.00     0.008 C 
ENDBRANCH  14  15
BRANCH  14  17
HETATM   17  C10 UNK     1      17.527   5.920  33.051  1.00  0.00     0.288 C 
HETATM   18  O4  UNK     1      16.411   6.351  32.792  1.00  0.00    -0.262 OA
BRANCH  17  19
HETATM   19  O3  UNK     1      18.250   6.200  34.174  1.00  0.00    -0.320 OA
BRANCH  19  20
HETATM   20  C17 UNK     1      18.284   7.577  34.560  1.00  0.00     0.174 C 
HETATM   21  C18 UNK     1      19.623   8.166  34.173  1.00  0.00     0.034 C 
ENDBRANCH  19  20
ENDBRANCH  17  19
ENDBRANCH  14  17
ENDBRANCH  13  14
ENDBRANCH   5  13
BRANCH   3  22
HETATM   22  C12 UNK     1      17.927   1.801  33.751  1.00  0.00     0.161 C 
HETATM   23  O5  UNK     1      16.851   1.284  34.103  1.00  0.00    -0.293 OA
HETATM   24  C16 UNK     1      18.743   2.561  34.788  1.00  0.00     0.097 C 
ENDBRANCH   3  22
TORSDOF 7
ENDMDL
MODEL 2
REMARK VINA RESULT:      -8.2      1.311      2.069
REMARK  7 active torsions:
REMARK  status: ('A' for Active; 'I' for Inactive)
REMARK    1  A    between atoms: C1_7  and  O1_1 
REMARK    2  A    between atoms: C4_10  and  O1_1 
REMARK    3  A    between atoms: C10_16  and  O3_3 
REMARK    4  A    between atoms: C17_23  and  O3_3 
REMARK    5  A    between atoms: C1_7  and  C6_12 
REMARK    6  A    between atoms: C1_7  and  C10_16 
REMARK    7  A    between atoms: C12_18  and  C2_8 
ROOT
HETATM    1  O2  UNK     1      19.405  -0.559  32.923  1.00  0.00    -0.274 OA
HETATM    2  O6  UNK     1      20.274  -2.672  33.021  1.00  0.00    -0.260 OA
HETATM    3  C2  UNK     1      18.497   1.647  32.825  1.00  0.00     0.077 A 
HETATM    4  C3  UNK     1      19.326   0.602  30.774  1.00  0.00     0.005 A 
HETATM    5  C4  UNK     1      18.153   2.790  32.112  1.00  0.00     0.086 A 
HETATM    6  C5  UNK     1      19.078   0.572  32.148  1.00  0.00     0.106 A 
HETATM    7  C7  UNK     1      19.940  -0.575  30.145  1.00  0.00    -0.043 A 
HETATM    8  C8  UNK     1      18.972   1.764  30.075  1.00  0.00     0.017 A 
HETATM    9  C9  UNK     1      18.389   2.849  30.741  1.00  0.00     0.039 A 
HETATM   10  C13 UNK     1      20.241  -1.636  30.907  1.00  0.00     0.090 A 
HETATM   11  C14 UNK     1      20.219  -0.573  28.670  1.00  0.00     0.049 C 
HETATM   12  C15 UNK     1      19.985  -1.683  32.356  1.00  0.00     0.288 A 
ENDROOT
BRANCH   5  13
HETATM   13  O1  UNK     1      17.582   3.861  32.734  1.00  0.00    -0.335 OA
BRANCH  13  14
HETATM   14  C1  UNK     1      17.939   5.154  32.254  1.00  0.00     0.228 C 
BRANCH  14  15
HETATM   15  C6  UNK     1      16.769   6.111  32.481  1.00  0.00     0.038 C 
HETATM   16  C11 UNK     1      16.791   7.290  31.518  1.00  0.00     0.008 C 
ENDBRANCH  14  15
BRANCH  14  17
HETATM   17  C10 UNK     1      19.172   5.612  33.009  1.00  0.00     0.288 C 
HETATM   18  O4  UNK     1      19.426   5.312  34.168  1.00  0.00    -0.262 OA
BRANCH  17  19
HETATM   19  O3  UNK     1      19.928   6.420  32.210  1.00  0.00    -0.320 OA
BRANCH  19  20
HETATM   20  C17 UNK     1      20.690   5.753  31.199  1.00  0.00     0.174 C 
HETATM   21  C18 UNK     1      20.033   5.978  29.855  1.00  0.00     0.034 C 
ENDBRANCH  19  20
ENDBRANCH  17  19
ENDBRANCH  14  17
ENDBRANCH  13  14
ENDBRANCH   5  13
BRANCH   3  22
HETATM   22  C12 UNK     1      18.252   1.579  34.261  1.00  0.00     0.161 C 
HETATM   23  O5  UNK     1      19.069   2.041  35.079  1.00  0.00    -0.293 OA
HETATM   24  C16 UNK     1      16.979   0.933  34.789  1.00  0.00     0.097 C 
ENDBRANCH   3  22
TORSDOF 7
ENDMDL
MODEL 3
REMARK VINA RESULT:      -7.8      2.896      6.746
REMARK  7 active torsions:
REMARK  status: ('A' for Active; 'I' for Inactive)
REMARK    1  A    between atoms: C1_7  and  O1_1 
REMARK    2  A    between atoms: C4_10  and  O1_1 
REMARK    3  A    between atoms: C10_16  and  O3_3 
REMARK    4  A    between atoms: C17_23  and  O3_3 
REMARK    5  A    between atoms: C1_7  and  C6_12 
REMARK    6  A    between atoms: C1_7  and  C10_16 
REMARK    7  A    between atoms: C12_18  and  C2_8 
ROOT
HETATM    1  O2  UNK     1      18.436   1.743  31.567  1.00  0.00    -0.274 OA
HETATM    2  O6  UNK     1      18.402   3.325  29.916  1.00  0.00    -0.260 OA
HETATM    3  C2  UNK     1      18.469   0.095  33.293  1.00  0.00     0.077 A 
HETATM    4  C3  UNK     1      19.605  -0.366  31.178  1.00  0.00     0.005 A 
HETATM    5  C4  UNK     1      18.849  -1.151  33.779  1.00  0.00     0.086 A 
HETATM    6  C5  UNK     1      18.851   0.469  32.004  1.00  0.00     0.106 A 
HETATM    7  C7  UNK     1      19.963   0.109  29.834  1.00  0.00    -0.043 A 
HETATM    8  C8  UNK     1      19.978  -1.618  31.686  1.00  0.00     0.017 A 
HETATM    9  C9  UNK     1      19.602  -2.007  32.977  1.00  0.00     0.039 A 
HETATM   10  C13 UNK     1      19.555   1.326  29.446  1.00  0.00     0.090 A 
HETATM   11  C14 UNK     1      20.773  -0.765  28.923  1.00  0.00     0.049 C 
HETATM   12  C15 UNK     1      18.759   2.218  30.306  1.00  0.00     0.288 A 
ENDROOT
BRANCH   5  13
HETATM   13  O1  UNK     1      18.499  -1.554  35.033  1.00  0.00    -0.335 OA
BRANCH  13  14
HETATM   14  C1  UNK     1      19.415  -1.262  36.086  1.00  0.00     0.228 C 
BRANCH  14  15
HETATM   15  C6  UNK     1      18.685  -1.369  37.425  1.00  0.00     0.038 C 
HETATM   16  C11 UNK     1      17.561  -0.350  37.553  1.00  0.00     0.008 C 
ENDBRANCH  14  15
BRANCH  14  17
HETATM   17  C10 UNK     1      20.555  -2.258  36.006  1.00  0.00     0.288 C 
HETATM   18  O4  UNK     1      21.703  -1.975  35.688  1.00  0.00    -0.262 OA
BRANCH  17  19
HETATM   19  O3  UNK     1      20.099  -3.507  36.315  1.00  0.00    -0.320 OA
BRANCH  19  20
HETATM   20  C17 UNK     1      20.803  -4.181  37.364  1.00  0.00     0.174 C 
HETATM   21  C18 UNK     1      20.197  -5.553  37.563  1.00  0.00     0.034 C 
ENDBRANCH  19  20
ENDBRANCH  17  19
ENDBRANCH  14  17
ENDBRANCH  13  14
ENDBRANCH   5  13
BRANCH   3  22
HETATM   22  C12 UNK     1      17.681   0.995  34.128  1.00  0.00     0.161 C 
HETATM   23  O5  UNK     1      16.443   0.888  34.205  1.00  0.00    -0.293 OA
HETATM   24  C16 UNK     1      18.367   2.093  34.928  1.00  0.00     0.097 C 
ENDBRANCH   3  22
TORSDOF 7
ENDMDL
MODEL 4
REMARK VINA RESULT:      -7.7      1.888      6.904
REMARK  7 active torsions:
REMARK  status: ('A' for Active; 'I' for Inactive)
REMARK    1  A    between atoms: C1_7  and  O1_1 
REMARK    2  A    between atoms: C4_10  and  O1_1 
REMARK    3  A    between atoms: C10_16  and  O3_3 
REMARK    4  A    between atoms: C17_23  and  O3_3 
REMARK    5  A    between atoms: C1_7  and  C6_12 
REMARK    6  A    between atoms: C1_7  and  C10_16 
REMARK    7  A    between atoms: C12_18  and  C2_8 
ROOT
HETATM    1  O2  UNK     1      19.004   4.388  30.628  1.00  0.00    -0.274 OA
HETATM    2  O6  UNK     1      19.516   6.227  29.369  1.00  0.00    -0.260 OA
HETATM    3  C2  UNK     1      18.469   2.466  31.938  1.00  0.00     0.077 A 
HETATM    4  C3  UNK     1      18.692   4.639  33.038  1.00  0.00     0.005 A 
HETATM    5  C4  UNK     1      18.182   1.868  33.160  1.00  0.00     0.086 A 
HETATM    6  C5  UNK     1      18.719   3.839  31.894  1.00  0.00     0.106 A 
HETATM    7  C7  UNK     1      18.968   6.076  32.899  1.00  0.00    -0.043 A 
HETATM    8  C8  UNK     1      18.402   4.017  34.260  1.00  0.00     0.017 A 
HETATM    9  C9  UNK     1      18.149   2.641  34.319  1.00  0.00     0.039 A 
HETATM   10  C13 UNK     1      19.235   6.570  31.681  1.00  0.00     0.090 A 
HETATM   11  C14 UNK     1      18.946   6.962  34.110  1.00  0.00     0.049 C 
HETATM   12  C15 UNK     1      19.267   5.740  30.466  1.00  0.00     0.288 A 
ENDROOT
BRANCH   5  13
HETATM   13  O1  UNK     1      17.930   0.531  33.247  1.00  0.00    -0.335 OA
BRANCH  13  14
HETATM   14  C1  UNK     1      17.820  -0.023  34.555  1.00  0.00     0.228 C 
BRANCH  14  15
HETATM   15  C6  UNK     1      16.402  -0.559  34.753  1.00  0.00     0.038 C 
HETATM   16  C11 UNK     1      15.617   0.249  35.777  1.00  0.00     0.008 C 
ENDBRANCH  14  15
BRANCH  14  17
HETATM   17  C10 UNK     1      18.844  -1.134  34.682  1.00  0.00     0.288 C 
HETATM   18  O4  UNK     1      19.075  -1.751  35.715  1.00  0.00    -0.262 OA
BRANCH  17  19
HETATM   19  O3  UNK     1      19.477  -1.316  33.486  1.00  0.00    -0.320 OA
BRANCH  19  20
HETATM   20  C17 UNK     1      20.411  -2.400  33.439  1.00  0.00     0.174 C 
HETATM   21  C18 UNK     1      20.895  -2.573  32.017  1.00  0.00     0.034 C 
ENDBRANCH  19  20
ENDBRANCH  17  19
ENDBRANCH  14  17
ENDBRANCH  13  14
ENDBRANCH   5  13
BRANCH   3  22
HETATM   22  C12 UNK     1      18.505   1.662  30.722  1.00  0.00     0.161 C 
HETATM   23  O5  UNK     1      17.583   1.712  29.887  1.00  0.00    -0.293 OA
HETATM   24  C16 UNK     1      19.685   0.739  30.450  1.00  0.00     0.097 C 
ENDBRANCH   3  22
TORSDOF 7
ENDMDL
MODEL 5
REMARK VINA RESULT:      -7.6      1.955      3.354
REMARK  7 active torsions:
REMARK  status: ('A' for Active; 'I' for Inactive)
REMARK    1  A    between atoms: C1_7  and  O1_1 
REMARK    2  A    between atoms: C4_10  and  O1_1 
REMARK    3  A    between atoms: C10_16  and  O3_3 
REMARK    4  A    between atoms: C17_23  and  O3_3 
REMARK    5  A    between atoms: C1_7  and  C6_12 
REMARK    6  A    between atoms: C1_7  and  C10_16 
REMARK    7  A    between atoms: C12_18  and  C2_8 
ROOT
HETATM    1  O2  UNK     1      19.615   1.006  29.570  1.00  0.00    -0.274 OA
HETATM    2  O6  UNK     1      20.567  -0.642  28.303  1.00  0.00    -0.260 OA
HETATM    3  C2  UNK     1      18.621   2.729  30.890  1.00  0.00     0.077 A 
HETATM    4  C3  UNK     1      19.057   0.547  31.904  1.00  0.00     0.005 A 
HETATM    5  C4  UNK     1      18.095   3.191  32.091  1.00  0.00     0.086 A 
HETATM    6  C5  UNK     1      19.094   1.417  30.813  1.00  0.00     0.106 A 
HETATM    7  C7  UNK     1      19.576  -0.817  31.734  1.00  0.00    -0.043 A 
HETATM    8  C8  UNK     1      18.522   1.032  33.105  1.00  0.00     0.017 A 
HETATM    9  C9  UNK     1      18.045   2.345  33.197  1.00  0.00     0.039 A 
HETATM   10  C13 UNK     1      20.067  -1.181  30.540  1.00  0.00     0.090 A 
HETATM   11  C14 UNK     1      19.551  -1.776  32.888  1.00  0.00     0.049 C 
HETATM   12  C15 UNK     1      20.112  -0.274  29.380  1.00  0.00     0.288 A 
ENDROOT
BRANCH   5  13
HETATM   13  O1  UNK     1      17.626   4.466  32.209  1.00  0.00    -0.335 OA
BRANCH  13  14
HETATM   14  C1  UNK     1      17.863   5.131  33.447  1.00  0.00     0.228 C 
BRANCH  14  15
HETATM   15  C6  UNK     1      19.336   5.535  33.521  1.00  0.00     0.038 C 
HETATM   16  C11 UNK     1      19.601   6.879  32.856  1.00  0.00     0.008 C 
ENDBRANCH  14  15
BRANCH  14  17
HETATM   17  C10 UNK     1      16.961   6.348  33.508  1.00  0.00     0.288 C 
HETATM   18  O4  UNK     1      16.759   7.013  34.516  1.00  0.00    -0.262 OA
BRANCH  17  19
HETATM   19  O3  UNK     1      16.397   6.565  32.283  1.00  0.00    -0.320 OA
BRANCH  19  20
HETATM   20  C17 UNK     1      15.479   7.660  32.211  1.00  0.00     0.174 C 
HETATM   21  C18 UNK     1      14.065   7.121  32.224  1.00  0.00     0.034 C 
ENDBRANCH  19  20
ENDBRANCH  17  19
ENDBRANCH  14  17
ENDBRANCH  13  14
ENDBRANCH   5  13
BRANCH   3  22
HETATM   22  C12 UNK     1      18.676   3.610  29.729  1.00  0.00     0.161 C 
HETATM   23  O5  UNK     1      18.136   3.295  28.652  1.00  0.00    -0.293 OA
HETATM   24  C16 UNK     1      19.404   4.944  29.815  1.00  0.00     0.097 C 
ENDBRANCH   3  22
TORSDOF 7
ENDMDL
MODEL 6
REMARK VINA RESULT:      -7.6      4.590      9.628
REMARK  7 active torsions:
REMARK  status: ('A' for Active; 'I' for Inactive)
REMARK    1  A    between atoms: C1_7  and  O1_1 
REMARK    2  A    between atoms: C4_10  and  O1_1 
REMARK    3  A    between atoms: C10_16  and  O3_3 
REMARK    4  A    between atoms: C17_23  and  O3_3 
REMARK    5  A    between atoms: C1_7  and  C6_12 
REMARK    6  A    between atoms: C1_7  and  C10_16 
REMARK    7  A    between atoms: C12_18  and  C2_8 
ROOT
HETATM    1  O2  UNK     1      19.091  -0.150  33.760  1.00  0.00    -0.274 OA
HETATM    2  O6  UNK     1      18.363   1.675  32.590  1.00  0.00    -0.260 OA
HETATM    3  C2  UNK     1      19.854  -2.056  34.978  1.00  0.00     0.077 A 
HETATM    4  C3  UNK     1      17.992  -0.739  35.861  1.00  0.00     0.005 A 
HETATM    5  C4  UNK     1      19.776  -2.914  36.070  1.00  0.00     0.086 A 
HETATM    6  C5  UNK     1      18.963  -0.984  34.889  1.00  0.00     0.106 A 
HETATM    7  C7  UNK     1      17.096   0.412  35.686  1.00  0.00    -0.043 A 
HETATM    8  C8  UNK     1      17.931  -1.615  36.954  1.00  0.00     0.017 A 
HETATM    9  C9  UNK     1      18.817  -2.694  37.056  1.00  0.00     0.039 A 
HETATM   10  C13 UNK     1      17.240   1.188  34.602  1.00  0.00     0.090 A 
HETATM   11  C14 UNK     1      16.042   0.702  36.714  1.00  0.00     0.049 C 
HETATM   12  C15 UNK     1      18.260   0.943  33.568  1.00  0.00     0.288 A 
ENDROOT
BRANCH   5  13
HETATM   13  O1  UNK     1      20.625  -3.974  36.193  1.00  0.00    -0.335 OA
BRANCH  13  14
HETATM   14  C1  UNK     1      20.045  -5.229  36.539  1.00  0.00     0.228 C 
BRANCH  14  15
HETATM   15  C6  UNK     1      19.993  -6.114  35.293  1.00  0.00     0.038 C 
HETATM   16  C11 UNK     1      18.867  -7.136  35.357  1.00  0.00     0.008 C 
ENDBRANCH  14  15
BRANCH  14  17
HETATM   17  C10 UNK     1      20.902  -5.860  37.620  1.00  0.00     0.288 C 
HETATM   18  O4  UNK     1      22.087  -6.137  37.492  1.00  0.00    -0.262 OA
BRANCH  17  19
HETATM   19  O3  UNK     1      20.144  -6.091  38.732  1.00  0.00    -0.320 OA
BRANCH  19  20
HETATM   20  C17 UNK     1      20.417  -7.314  39.423  1.00  0.00     0.174 C 
HETATM   21  C18 UNK     1      19.533  -8.406  38.861  1.00  0.00     0.034 C 
ENDBRANCH  19  20
ENDBRANCH  17  19
ENDBRANCH  14  17
ENDBRANCH  13  14
ENDBRANCH   5  13
BRANCH   3  22
HETATM   22  C12 UNK     1      20.856  -2.281  33.942  1.00  0.00     0.161 C 
HETATM   23  O5  UNK     1      22.063  -2.060  34.151  1.00  0.00    -0.293 OA
HETATM   24  C16 UNK     1      20.436  -2.796  32.572  1.00  0.00     0.097 C 
ENDBRANCH   3  22
TORSDOF 7
ENDMDL
MODEL 7
REMARK VINA RESULT:      -7.5      6.824      9.999
REMARK  7 active torsions:
REMARK  status: ('A' for Active; 'I' for Inactive)
REMARK    1  A    between atoms: C1_7  and  O1_1 
REMARK    2  A    between atoms: C4_10  and  O1_1 
REMARK    3  A    between atoms: C10_16  and  O3_3 
REMARK    4  A    between atoms: C17_23  and  O3_3 
REMARK    5  A    between atoms: C1_7  and  C6_12 
REMARK    6  A    between atoms: C1_7  and  C10_16 
REMARK    7  A    between atoms: C12_18  and  C2_8 
ROOT
HETATM    1  O2  UNK     1      19.207  -8.534  37.992  1.00  0.00    -0.274 OA
HETATM    2  O6  UNK     1      19.037 -10.682  38.756  1.00  0.00    -0.260 OA
HETATM    3  C2  UNK     1      19.382  -6.291  37.193  1.00  0.00     0.077 A 
HETATM    4  C3  UNK     1      21.138  -7.184  38.641  1.00  0.00     0.005 A 
HETATM    5  C4  UNK     1      20.052  -5.076  37.116  1.00  0.00     0.086 A 
HETATM    6  C5  UNK     1      19.932  -7.326  37.952  1.00  0.00     0.106 A 
HETATM    7  C7  UNK     1      21.644  -8.326  39.416  1.00  0.00    -0.043 A 
HETATM    8  C8  UNK     1      21.798  -5.951  38.551  1.00  0.00     0.017 A 
HETATM    9  C9  UNK     1      21.257  -4.905  37.794  1.00  0.00     0.039 A 
HETATM   10  C13 UNK     1      20.933  -9.463  39.436  1.00  0.00     0.090 A 
HETATM   11  C14 UNK     1      22.937  -8.206  40.168  1.00  0.00     0.049 C 
HETATM   12  C15 UNK     1      19.660  -9.627  38.714  1.00  0.00     0.288 A 
ENDROOT
BRANCH   5  13
HETATM   13  O1  UNK     1      19.550  -4.041  36.383  1.00  0.00    -0.335 OA
BRANCH  13  14
HETATM   14  C1  UNK     1      19.922  -2.724  36.784  1.00  0.00     0.228 C 
BRANCH  14  15
HETATM   15  C6  UNK     1      20.521  -1.989  35.585  1.00  0.00     0.038 C 
HETATM   16  C11 UNK     1      20.283  -2.728  34.276  1.00  0.00     0.008 C 
ENDBRANCH  14  15
BRANCH  14  17
HETATM   17  C10 UNK     1      18.679  -2.019  37.291  1.00  0.00     0.288 C 
HETATM   18  O4  UNK     1      18.603  -1.432  38.362  1.00  0.00    -0.262 OA
BRANCH  17  19
HETATM   19  O3  UNK     1      17.667  -2.163  36.386  1.00  0.00    -0.320 OA
BRANCH  19  20
HETATM   20  C17 UNK     1      16.965  -0.963  36.047  1.00  0.00     0.174 C 
HETATM   21  C18 UNK     1      17.169  -0.670  34.577  1.00  0.00     0.034 C 
ENDBRANCH  19  20
ENDBRANCH  17  19
ENDBRANCH  14  17
ENDBRANCH  13  14
ENDBRANCH   5  13
BRANCH   3  22
HETATM   22  C12 UNK     1      18.120  -6.476  36.485  1.00  0.00     0.161 C 
HETATM   23  O5  UNK     1      17.054  -6.015  36.933  1.00  0.00    -0.293 OA
HETATM   24  C16 UNK     1      18.085  -7.246  35.172  1.00  0.00     0.097 C 
ENDBRANCH   3  22
TORSDOF 7
ENDMDL
MODEL 8
REMARK VINA RESULT:      -7.4     22.672     24.687
REMARK  7 active torsions:
REMARK  status: ('A' for Active; 'I' for Inactive)
REMARK    1  A    between atoms: C1_7  and  O1_1 
REMARK    2  A    between atoms: C4_10  and  O1_1 
REMARK    3  A    between atoms: C10_16  and  O3_3 
REMARK    4  A    between atoms: C17_23  and  O3_3 
REMARK    5  A    between atoms: C1_7  and  C6_12 
REMARK    6  A    between atoms: C1_7  and  C10_16 
REMARK    7  A    between atoms: C12_18  and  C2_8 
ROOT
HETATM    1  O2  UNK     1       9.914   8.225   9.663  1.00  0.00    -0.274 OA
HETATM    2  O6  UNK     1       7.664   7.832   9.776  1.00  0.00    -0.260 OA
HETATM    3  C2  UNK     1      12.262   8.637   9.548  1.00  0.00     0.077 A 
HETATM    4  C3  UNK     1      11.192   7.323   7.785  1.00  0.00     0.005 A 
HETATM    5  C4  UNK     1      13.493   8.498   8.916  1.00  0.00     0.086 A 
HETATM    6  C5  UNK     1      11.132   8.050   8.976  1.00  0.00     0.106 A 
HETATM    7  C7  UNK     1       9.952   6.739   7.255  1.00  0.00    -0.043 A 
HETATM    8  C8  UNK     1      12.441   7.194   7.165  1.00  0.00     0.017 A 
HETATM    9  C9  UNK     1      13.583   7.778   7.727  1.00  0.00     0.039 A 
HETATM   10  C13 UNK     1       8.808   6.922   7.929  1.00  0.00     0.090 A 
HETATM   11  C14 UNK     1       9.983   5.953   5.977  1.00  0.00     0.049 C 
HETATM   12  C15 UNK     1       8.729   7.686   9.186  1.00  0.00     0.288 A 
ENDROOT
BRANCH   5  13
HETATM   13  O1  UNK     1      14.620   9.058   9.440  1.00  0.00    -0.335 OA
BRANCH  13  14
HETATM   14  C1  UNK     1      15.693   8.176   9.757  1.00  0.00     0.228 C 
BRANCH  14  15
HETATM   15  C6  UNK     1      17.006   8.961   9.737  1.00  0.00     0.038 C 
HETATM   16  C11 UNK     1      16.783  10.462   9.855  1.00  0.00     0.008 C 
ENDBRANCH  14  15
BRANCH  14  17
HETATM   17  C10 UNK     1      15.430   7.589  11.129  1.00  0.00     0.288 C 
HETATM   18  O4  UNK     1      15.629   8.176  12.185  1.00  0.00    -0.262 OA
BRANCH  17  19
HETATM   19  O3  UNK     1      14.966   6.311  11.003  1.00  0.00    -0.320 OA
BRANCH  19  20
HETATM   20  C17 UNK     1      15.571   5.534   9.965  1.00  0.00     0.174 C 
HETATM   21  C18 UNK     1      14.509   4.685   9.301  1.00  0.00     0.034 C 
ENDBRANCH  19  20
ENDBRANCH  17  19
ENDBRANCH  14  17
ENDBRANCH  13  14
ENDBRANCH   5  13
BRANCH   3  22
HETATM   22  C12 UNK     1      12.161   9.390  10.794  1.00  0.00     0.161 C 
HETATM   23  O5  UNK     1      12.345   8.843  11.896  1.00  0.00    -0.293 OA
HETATM   24  C16 UNK     1      11.825  10.875  10.764  1.00  0.00     0.097 C 
ENDBRANCH   3  22
TORSDOF 7
ENDMDL
MODEL 9
REMARK VINA RESULT:      -7.3      4.854      7.022
REMARK  7 active torsions:
REMARK  status: ('A' for Active; 'I' for Inactive)
REMARK    1  A    between atoms: C1_7  and  O1_1 
REMARK    2  A    between atoms: C4_10  and  O1_1 
REMARK    3  A    between atoms: C10_16  and  O3_3 
REMARK    4  A    between atoms: C17_23  and  O3_3 
REMARK    5  A    between atoms: C1_7  and  C6_12 
REMARK    6  A    between atoms: C1_7  and  C10_16 
REMARK    7  A    between atoms: C12_18  and  C2_8 
ROOT
HETATM    1  O2  UNK     1      18.074   6.424  30.865  1.00  0.00    -0.274 OA
HETATM    2  O6  UNK     1      18.829   5.112  29.151  1.00  0.00    -0.260 OA
HETATM    3  C2  UNK     1      17.281   7.793  32.653  1.00  0.00     0.077 A 
HETATM    4  C3  UNK     1      19.590   6.988  32.696  1.00  0.00     0.005 A 
HETATM    5  C4  UNK     1      17.480   8.454  33.860  1.00  0.00     0.086 A 
HETATM    6  C5  UNK     1      18.335   7.072  32.089  1.00  0.00     0.106 A 
HETATM    7  C7  UNK     1      20.642   6.207  32.032  1.00  0.00    -0.043 A 
HETATM    8  C8  UNK     1      19.769   7.661  33.912  1.00  0.00     0.017 A 
HETATM    9  C9  UNK     1      18.721   8.388  34.489  1.00  0.00     0.039 A 
HETATM   10  C13 UNK     1      20.365   5.601  30.869  1.00  0.00     0.090 A 
HETATM   11  C14 UNK     1      22.001   6.098  32.659  1.00  0.00     0.049 C 
HETATM   12  C15 UNK     1      19.047   5.680  30.216  1.00  0.00     0.288 A 
ENDROOT
BRANCH   5  13
HETATM   13  O1  UNK     1      16.478   9.171  34.442  1.00  0.00    -0.335 OA
BRANCH  13  14
HETATM   14  C1  UNK     1      16.089  10.382  33.798  1.00  0.00     0.228 C 
BRANCH  14  15
HETATM   15  C6  UNK     1      14.618  10.660  34.105  1.00  0.00     0.038 C 
HETATM   16  C11 UNK     1      13.863  11.182  32.891  1.00  0.00     0.008 C 
ENDBRANCH  14  15
BRANCH  14  17
HETATM   17  C10 UNK     1      16.975  11.497  34.318  1.00  0.00     0.288 C 
HETATM   18  O4  UNK     1      18.008  11.872  33.777  1.00  0.00    -0.262 OA
BRANCH  17  19
HETATM   19  O3  UNK     1      16.460  11.990  35.482  1.00  0.00    -0.320 OA
BRANCH  19  20
HETATM   20  C17 UNK     1      16.659  13.390  35.702  1.00  0.00     0.174 C 
HETATM   21  C18 UNK     1      15.581  14.162  34.973  1.00  0.00     0.034 C 
ENDBRANCH  19  20
ENDBRANCH  17  19
ENDBRANCH  14  17
ENDBRANCH  13  14
ENDBRANCH   5  13
BRANCH   3  22
HETATM   22  C12 UNK     1      15.984   7.858  31.989  1.00  0.00     0.161 C 
HETATM   23  O5  UNK     1      15.806   8.575  30.987  1.00  0.00    -0.293 OA
HETATM   24  C16 UNK     1      14.813   7.041  32.517  1.00  0.00     0.097 C 
ENDBRANCH   3  22
TORSDOF 7
ENDMDL
MODEL 10
REMARK VINA RESULT:      -7.2     22.949     24.871
REMARK  7 active torsions:
REMARK  status: ('A' for Active; 'I' for Inactive)
REMARK    1  A    between atoms: C1_7  and  O1_1 
REMARK    2  A    between atoms: C4_10  and  O1_1 
REMARK    3  A    between atoms: C10_16  and  O3_3 
REMARK    4  A    between atoms: C17_23  and  O3_3 
REMARK    5  A    between atoms: C1_7  and  C6_12 
REMARK    6  A    between atoms: C1_7  and  C10_16 
REMARK    7  A    between atoms: C12_18  and  C2_8 
ROOT
HETATM    1  O2  UNK     1      14.346   5.714   9.081  1.00  0.00    -0.274 OA
HETATM    2  O6  UNK     1      16.375   4.698   9.369  1.00  0.00    -0.260 OA
HETATM    3  C2  UNK     1      12.228   6.771   8.778  1.00  0.00     0.077 A 
HETATM    4  C3  UNK     1      13.882   7.809  10.250  1.00  0.00     0.005 A 
HETATM    5  C4  UNK     1      11.335   7.805   9.040  1.00  0.00     0.086 A 
HETATM    6  C5  UNK     1      13.485   6.788   9.385  1.00  0.00     0.106 A 
HETATM    7  C7  UNK     1      15.224   7.745  10.845  1.00  0.00    -0.043 A 
HETATM    8  C8  UNK     1      12.968   8.840  10.502  1.00  0.00     0.017 A 
HETATM    9  C9  UNK     1      11.703   8.837   9.900  1.00  0.00     0.039 A 
HETATM   10  C13 UNK     1      16.022   6.712  10.537  1.00  0.00     0.090 A 
HETATM   11  C14 UNK     1      15.681   8.827  11.779  1.00  0.00     0.049 C 
HETATM   12  C15 UNK     1      15.618   5.628   9.626  1.00  0.00     0.288 A 
ENDROOT
BRANCH   5  13
HETATM   13  O1  UNK     1      10.099   7.829   8.465  1.00  0.00    -0.335 OA
BRANCH  13  14
HETATM   14  C1  UNK     1       9.020   7.296   9.230  1.00  0.00     0.228 C 
BRANCH  14  15
HETATM   15  C6  UNK     1       8.208   8.451   9.816  1.00  0.00     0.038 C 
HETATM   16  C11 UNK     1       7.152   7.972  10.803  1.00  0.00     0.008 C 
ENDBRANCH  14  15
BRANCH  14  17
HETATM   17  C10 UNK     1       8.169   6.442   8.311  1.00  0.00     0.288 C 
HETATM   18  O4  UNK     1       7.353   6.884   7.512  1.00  0.00    -0.262 OA
BRANCH  17  19
HETATM   19  O3  UNK     1       8.435   5.121   8.532  1.00  0.00    -0.320 OA
BRANCH  19  20
HETATM   20  C17 UNK     1       8.194   4.656   9.863  1.00  0.00     0.174 C 
HETATM   21  C18 UNK     1       6.757   4.197   9.973  1.00  0.00     0.034 C 
ENDBRANCH  19  20
ENDBRANCH  17  19
ENDBRANCH  14  17
ENDBRANCH  13  14
ENDBRANCH   5  13
BRANCH   3  22
HETATM   22  C12 UNK     1      11.848   5.688   7.878  1.00  0.00     0.161 C 
HETATM   23  O5  UNK     1      11.614   4.543   8.307  1.00  0.00    -0.293 OA
HETATM   24  C16 UNK     1      11.732   5.943   6.381  1.00  0.00     0.097 C 
ENDBRANCH   3  22
TORSDOF 7
ENDMDL
