MODEL 1
REMARK VINA RESULT:      -8.8      0.000      0.000
REMARK  6 active torsions:
REMARK  status: ('A' for Active; 'I' for Inactive)
REMARK    1  A    between atoms: C1_7  and  O1_4 
REMARK    2  A    between atoms: C4_10  and  O1_4 
REMARK    3  A    between atoms: C3_9  and  O2_5 
REMARK    4  A    between atoms: C2_8  and  C9_15 
REMARK    5  A    between atoms: C4_10  and  C8_14 
REMARK    6  A    between atoms: C10_16  and  C11_17 
ROOT
HETATM    1  N1  UNK     1      17.950   2.594  33.707  1.00  0.00    -0.191 NA
HETATM    2  C9  UNK     1      18.590   4.487  30.897  1.00  0.00     0.036 C 
HETATM    3  C10 UNK     1      18.488   3.173  31.230  1.00  0.00     0.055 C 
HETATM    4  C23 UNK     1      18.190   2.863  32.604  1.00  0.00     0.100 C 
ENDROOT
BRANCH   3   5
HETATM    5  C11 UNK     1      18.655   2.082  30.282  1.00  0.00    -0.014 A 
HETATM    6  C16 UNK     1      19.427   0.972  30.624  1.00  0.00     0.032 A 
HETATM    7  C19 UNK     1      19.586  -0.073  29.714  1.00  0.00     0.011 A 
HETATM    8 Br3  UNK     1      20.633  -1.578  30.177  1.00  0.00    -0.051 Br
HETATM    9  C21 UNK     1      18.975  -0.008  28.463  1.00  0.00     0.019 A 
HETATM   10  C20 UNK     1      18.202   1.102  28.121  1.00  0.00     0.002 A 
HETATM   11  C17 UNK     1      18.042   2.146  29.031  1.00  0.00     0.013 A 
ENDBRANCH   3   5
BRANCH   2  12
HETATM   12  C2  UNK     1      18.424   5.620  31.818  1.00  0.00    -0.015 A 
HETATM   13  C5  UNK     1      17.126   5.947  32.192  1.00  0.00     0.052 A 
HETATM   14  C3  UNK     1      16.909   7.015  33.063  1.00  0.00     0.102 A 
HETATM   15  C1  UNK     1      17.990   7.747  33.552  1.00  0.00     0.103 A 
HETATM   16  C7  UNK     1      19.289   7.411  33.172  1.00  0.00     0.059 A 
HETATM   17  C6  UNK     1      19.507   6.344  32.301  1.00  0.00     0.024 A 
HETATM   18 Br1  UNK     1      21.300   5.939  31.822  1.00  0.00    -0.050 Br
BRANCH  14  19
HETATM   19  O2  UNK     1      15.635   7.334  33.427  1.00  0.00    -0.353 OA
HETATM   20  C22 UNK     1      14.668   7.429  32.383  1.00  0.00     0.210 C 
ENDBRANCH  14  19
BRANCH  15  21
HETATM   21  O1  UNK     1      17.791   8.792  34.404  1.00  0.00    -0.344 OA
BRANCH  21  22
HETATM   22  C4  UNK     1      18.427  10.026  34.076  1.00  0.00     0.214 C 
BRANCH  22  23
HETATM   23  C8  UNK     1      17.402  11.122  34.083  1.00  0.00    -0.034 A 
HETATM   24  C12 UNK     1      17.814  12.450  34.075  1.00  0.00     0.011 A 
HETATM   25  C14 UNK     1      16.862  13.470  34.080  1.00  0.00     0.019 A 
HETATM   26  C18 UNK     1      15.503  13.154  34.092  1.00  0.00     0.011 A 
HETATM   27 Br2  UNK     1      14.212  14.535  34.097  1.00  0.00    -0.051 Br
HETATM   28  C15 UNK     1      15.097  11.819  34.099  1.00  0.00     0.019 A 
HETATM   29  C13 UNK     1      16.050  10.801  34.094  1.00  0.00     0.011 A 
ENDBRANCH  22  23
ENDBRANCH  21  22
ENDBRANCH  15  21
ENDBRANCH   2  12
TORSDOF 6
ENDMDL
MODEL 2
REMARK VINA RESULT:      -8.5     18.472     20.128
REMARK  6 active torsions:
REMARK  status: ('A' for Active; 'I' for Inactive)
REMARK    1  A    between atoms: C1_7  and  O1_4 
REMARK    2  A    between atoms: C4_10  and  O1_4 
REMARK    3  A    between atoms: C3_9  and  O2_5 
REMARK    4  A    between atoms: C2_8  and  C9_15 
REMARK    5  A    between atoms: C4_10  and  C8_14 
REMARK    6  A    between atoms: C10_16  and  C11_17 
ROOT
HETATM    1  N1  UNK     1      27.160 -10.235  39.855  1.00  0.00    -0.191 NA
HETATM    2  C9  UNK     1      27.398  -8.866  36.700  1.00  0.00     0.036 C 
HETATM    3  C10 UNK     1      26.570  -9.703  37.380  1.00  0.00     0.055 C 
HETATM    4  C23 UNK     1      26.905  -9.992  38.749  1.00  0.00     0.100 C 
ENDROOT
BRANCH   3   5
HETATM    5  C11 UNK     1      25.379 -10.307  36.804  1.00  0.00    -0.014 A 
HETATM    6  C16 UNK     1      24.199  -9.568  36.707  1.00  0.00     0.032 A 
HETATM    7  C19 UNK     1      23.057 -10.148  36.154  1.00  0.00     0.011 A 
HETATM    8 Br3  UNK     1      21.458  -9.148  36.024  1.00  0.00    -0.051 Br
HETATM    9  C21 UNK     1      23.094 -11.464  35.698  1.00  0.00     0.019 A 
HETATM   10  C20 UNK     1      24.273 -12.203  35.795  1.00  0.00     0.002 A 
HETATM   11  C17 UNK     1      25.415 -11.624  36.347  1.00  0.00     0.013 A 
ENDBRANCH   3   5
BRANCH   2  12
HETATM   12  C2  UNK     1      28.606  -8.229  37.242  1.00  0.00    -0.015 A 
HETATM   13  C5  UNK     1      29.826  -8.823  36.941  1.00  0.00     0.052 A 
HETATM   14  C3  UNK     1      31.005  -8.261  37.429  1.00  0.00     0.102 A 
HETATM   15  C1  UNK     1      30.956  -7.110  38.216  1.00  0.00     0.103 A 
HETATM   16  C7  UNK     1      29.727  -6.520  38.512  1.00  0.00     0.059 A 
HETATM   17  C6  UNK     1      28.548  -7.082  38.024  1.00  0.00     0.024 A 
HETATM   18 Br1  UNK     1      26.908  -6.229  38.465  1.00  0.00    -0.050 Br
BRANCH  14  19
HETATM   19  O2  UNK     1      32.199  -8.847  37.133  1.00  0.00    -0.353 OA
HETATM   20  C22 UNK     1      32.517  -9.005  35.752  1.00  0.00     0.210 C 
ENDBRANCH  14  19
BRANCH  15  21
HETATM   21  O1  UNK     1      32.101  -6.552  38.699  1.00  0.00    -0.344 OA
BRANCH  21  22
HETATM   22  C4  UNK     1      32.484  -5.289  38.158  1.00  0.00     0.214 C 
BRANCH  22  23
HETATM   23  C8  UNK     1      33.274  -5.514  36.902  1.00  0.00    -0.034 A 
HETATM   24  C12 UNK     1      34.549  -6.064  36.979  1.00  0.00     0.011 A 
HETATM   25  C14 UNK     1      35.282  -6.274  35.811  1.00  0.00     0.019 A 
HETATM   26  C18 UNK     1      34.736  -5.933  34.574  1.00  0.00     0.011 A 
HETATM   27 Br2  UNK     1      35.729  -6.219  32.991  1.00  0.00    -0.051 Br
HETATM   28  C15 UNK     1      33.456  -5.382  34.504  1.00  0.00     0.019 A 
HETATM   29  C13 UNK     1      32.723  -5.172  35.672  1.00  0.00     0.011 A 
ENDBRANCH  22  23
ENDBRANCH  21  22
ENDBRANCH  15  21
ENDBRANCH   2  12
TORSDOF 6
ENDMDL
MODEL 3
REMARK VINA RESULT:      -8.4      6.128      8.001
REMARK  6 active torsions:
REMARK  status: ('A' for Active; 'I' for Inactive)
REMARK    1  A    between atoms: C1_7  and  O1_4 
REMARK    2  A    between atoms: C4_10  and  O1_4 
REMARK    3  A    between atoms: C3_9  and  O2_5 
REMARK    4  A    between atoms: C2_8  and  C9_15 
REMARK    5  A    between atoms: C4_10  and  C8_14 
REMARK    6  A    between atoms: C10_16  and  C11_17 
ROOT
HETATM    1  N1  UNK     1      21.938  -1.717  35.368  1.00  0.00    -0.191 NA
HETATM    2  C9  UNK     1      18.587  -2.295  35.937  1.00  0.00     0.036 C 
HETATM    3  C10 UNK     1      19.772  -2.925  36.148  1.00  0.00     0.055 C 
HETATM    4  C23 UNK     1      20.966  -2.249  35.713  1.00  0.00     0.100 C 
ENDROOT
BRANCH   3   5
HETATM    5  C11 UNK     1      19.894  -4.226  36.788  1.00  0.00    -0.014 A 
HETATM    6  C16 UNK     1      21.038  -4.537  37.524  1.00  0.00     0.032 A 
HETATM    7  C19 UNK     1      21.154  -5.785  38.138  1.00  0.00     0.011 A 
HETATM    8 Br3  UNK     1      22.704  -6.208  39.134  1.00  0.00    -0.051 Br
HETATM    9  C21 UNK     1      20.127  -6.720  38.016  1.00  0.00     0.019 A 
HETATM   10  C20 UNK     1      18.984  -6.408  37.281  1.00  0.00     0.002 A 
HETATM   11  C17 UNK     1      18.867  -5.161  36.668  1.00  0.00     0.013 A 
ENDBRANCH   3   5
BRANCH   2  12
HETATM   12  C2  UNK     1      18.416  -0.980  35.301  1.00  0.00    -0.015 A 
HETATM   13  C5  UNK     1      18.629  -0.907  33.930  1.00  0.00     0.052 A 
HETATM   14  C3  UNK     1      18.482   0.316  33.275  1.00  0.00     0.102 A 
HETATM   15  C1  UNK     1      18.125   1.455  33.996  1.00  0.00     0.103 A 
HETATM   16  C7  UNK     1      17.913   1.371  35.372  1.00  0.00     0.059 A 
HETATM   17  C6  UNK     1      18.060   0.149  36.027  1.00  0.00     0.024 A 
HETATM   18 Br1  UNK     1      17.757   0.104  37.903  1.00  0.00    -0.050 Br
BRANCH  14  19
HETATM   19  O2  UNK     1      18.692   0.385  31.930  1.00  0.00    -0.353 OA
HETATM   20  C22 UNK     1      19.572  -0.582  31.362  1.00  0.00     0.210 C 
ENDBRANCH  14  19
BRANCH  15  21
HETATM   21  O1  UNK     1      17.978   2.655  33.367  1.00  0.00    -0.344 OA
BRANCH  21  22
HETATM   22  C4  UNK     1      18.660   3.771  33.935  1.00  0.00     0.214 C 
BRANCH  22  23
HETATM   23  C8  UNK     1      17.924   5.029  33.576  1.00  0.00    -0.034 A 
HETATM   24  C12 UNK     1      17.577   5.269  32.251  1.00  0.00     0.011 A 
HETATM   25  C14 UNK     1      16.891   6.438  31.918  1.00  0.00     0.019 A 
HETATM   26  C18 UNK     1      16.558   7.358  32.911  1.00  0.00     0.011 A 
HETATM   27 Br2  UNK     1      15.628   8.941  32.461  1.00  0.00    -0.051 Br
HETATM   28  C15 UNK     1      16.910   7.110  34.238  1.00  0.00     0.019 A 
HETATM   29  C13 UNK     1      17.595   5.941  34.571  1.00  0.00     0.011 A 
ENDBRANCH  22  23
ENDBRANCH  21  22
ENDBRANCH  15  21
ENDBRANCH   2  12
TORSDOF 6
ENDMDL
MODEL 4
REMARK VINA RESULT:      -8.2      1.859      2.219
REMARK  6 active torsions:
REMARK  status: ('A' for Active; 'I' for Inactive)
REMARK    1  A    between atoms: C1_7  and  O1_4 
REMARK    2  A    between atoms: C4_10  and  O1_4 
REMARK    3  A    between atoms: C3_9  and  O2_5 
REMARK    4  A    between atoms: C2_8  and  C9_15 
REMARK    5  A    between atoms: C4_10  and  C8_14 
REMARK    6  A    between atoms: C10_16  and  C11_17 
ROOT
HETATM    1  N1  UNK     1      20.041   6.189  29.749  1.00  0.00    -0.191 NA
HETATM    2  C9  UNK     1      17.810   4.768  31.960  1.00  0.00     0.036 C 
HETATM    3  C10 UNK     1      18.566   4.383  30.898  1.00  0.00     0.055 C 
HETATM    4  C23 UNK     1      19.379   5.389  30.268  1.00  0.00     0.100 C 
ENDROOT
BRANCH   3   5
HETATM    5  C11 UNK     1      18.599   3.024  30.379  1.00  0.00    -0.014 A 
HETATM    6  C16 UNK     1      19.006   1.973  31.201  1.00  0.00     0.032 A 
HETATM    7  C19 UNK     1      19.037   0.670  30.703  1.00  0.00     0.011 A 
HETATM    8 Br3  UNK     1      19.589  -0.755  31.816  1.00  0.00    -0.051 Br
HETATM    9  C21 UNK     1      18.663   0.419  29.384  1.00  0.00     0.019 A 
HETATM   10  C20 UNK     1      18.256   1.470  28.562  1.00  0.00     0.002 A 
HETATM   11  C17 UNK     1      18.224   2.772  29.060  1.00  0.00     0.013 A 
ENDBRANCH   3   5
BRANCH   2  12
HETATM   12  C2  UNK     1      17.750   6.125  32.522  1.00  0.00    -0.015 A 
HETATM   13  C5  UNK     1      16.724   6.950  32.077  1.00  0.00     0.052 A 
HETATM   14  C3  UNK     1      16.620   8.248  32.577  1.00  0.00     0.102 A 
HETATM   15  C1  UNK     1      17.541   8.711  33.516  1.00  0.00     0.103 A 
HETATM   16  C7  UNK     1      18.567   7.874  33.956  1.00  0.00     0.059 A 
HETATM   17  C6  UNK     1      18.672   6.577  33.457  1.00  0.00     0.024 A 
HETATM   18 Br1  UNK     1      20.093   5.490  34.099  1.00  0.00    -0.050 Br
BRANCH  14  19
HETATM   19  O2  UNK     1      15.613   9.056  32.139  1.00  0.00    -0.353 OA
HETATM   20  C22 UNK     1      14.404   9.052  32.896  1.00  0.00     0.210 C 
ENDBRANCH  14  19
BRANCH  15  21
HETATM   21  O1  UNK     1      17.450   9.977  34.011  1.00  0.00    -0.344 OA
BRANCH  21  22
HETATM   22  C4  UNK     1      18.621  10.788  33.938  1.00  0.00     0.214 C 
BRANCH  22  23
HETATM   23  C8  UNK     1      18.225  12.231  34.051  1.00  0.00    -0.034 A 
HETATM   24  C12 UNK     1      17.279  12.614  34.996  1.00  0.00     0.011 A 
HETATM   25  C14 UNK     1      16.913  13.956  35.102  1.00  0.00     0.019 A 
HETATM   26  C18 UNK     1      17.494  14.906  34.262  1.00  0.00     0.011 A 
HETATM   27 Br2  UNK     1      16.998  16.724  34.406  1.00  0.00    -0.051 Br
HETATM   28  C15 UNK     1      18.441  14.514  33.316  1.00  0.00     0.019 A 
HETATM   29  C13 UNK     1      18.808  13.172  33.211  1.00  0.00     0.011 A 
ENDBRANCH  22  23
ENDBRANCH  21  22
ENDBRANCH  15  21
ENDBRANCH   2  12
TORSDOF 6
ENDMDL
MODEL 5
REMARK VINA RESULT:      -8.2      7.481     10.267
REMARK  6 active torsions:
REMARK  status: ('A' for Active; 'I' for Inactive)
REMARK    1  A    between atoms: C1_7  and  O1_4 
REMARK    2  A    between atoms: C4_10  and  O1_4 
REMARK    3  A    between atoms: C3_9  and  O2_5 
REMARK    4  A    between atoms: C2_8  and  C9_15 
REMARK    5  A    between atoms: C4_10  and  C8_14 
REMARK    6  A    between atoms: C10_16  and  C11_17 
ROOT
HETATM    1  N1  UNK     1      17.701  -5.435  36.264  1.00  0.00    -0.191 NA
HETATM    2  C9  UNK     1      20.572  -3.588  36.745  1.00  0.00     0.036 C 
HETATM    3  C10 UNK     1      20.080  -4.805  37.100  1.00  0.00     0.055 C 
HETATM    4  C23 UNK     1      18.762  -5.145  36.633  1.00  0.00     0.100 C 
ENDROOT
BRANCH   3   5
HETATM    5  C11 UNK     1      20.811  -5.768  37.910  1.00  0.00    -0.014 A 
HETATM    6  C16 UNK     1      20.225  -6.991  38.237  1.00  0.00     0.032 A 
HETATM    7  C19 UNK     1      20.926  -7.914  39.013  1.00  0.00     0.011 A 
HETATM    8 Br3  UNK     1      20.133  -9.572  39.458  1.00  0.00    -0.051 Br
HETATM    9  C21 UNK     1      22.211  -7.615  39.462  1.00  0.00     0.019 A 
HETATM   10  C20 UNK     1      22.797  -6.392  39.135  1.00  0.00     0.002 A 
HETATM   11  C17 UNK     1      22.097  -5.469  38.358  1.00  0.00     0.013 A 
ENDBRANCH   3   5
BRANCH   2  12
HETATM   12  C2  UNK     1      19.874  -2.588  35.925  1.00  0.00    -0.015 A 
HETATM   13  C5  UNK     1      20.171  -2.563  34.568  1.00  0.00     0.052 A 
HETATM   14  C3  UNK     1      19.539  -1.634  33.742  1.00  0.00     0.102 A 
HETATM   15  C1  UNK     1      18.617  -0.735  34.280  1.00  0.00     0.103 A 
HETATM   16  C7  UNK     1      18.326  -0.768  35.644  1.00  0.00     0.059 A 
HETATM   17  C6  UNK     1      18.957  -1.697  36.470  1.00  0.00     0.024 A 
HETATM   18 Br1  UNK     1      18.516  -1.688  38.318  1.00  0.00    -0.050 Br
BRANCH  14  19
HETATM   19  O2  UNK     1      19.831  -1.611  32.411  1.00  0.00    -0.353 OA
HETATM   20  C22 UNK     1      20.926  -2.416  31.976  1.00  0.00     0.210 C 
ENDBRANCH  14  19
BRANCH  15  21
HETATM   21  O1  UNK     1      17.993   0.177  33.483  1.00  0.00    -0.344 OA
BRANCH  21  22
HETATM   22  C4  UNK     1      17.687   1.442  34.065  1.00  0.00     0.214 C 
BRANCH  22  23
HETATM   23  C8  UNK     1      18.070   2.529  33.104  1.00  0.00    -0.034 A 
HETATM   24  C12 UNK     1      18.265   2.224  31.761  1.00  0.00     0.011 A 
HETATM   25  C14 UNK     1      18.619   3.235  30.867  1.00  0.00     0.019 A 
HETATM   26  C18 UNK     1      18.776   4.544  31.321  1.00  0.00     0.011 A 
HETATM   27 Br2  UNK     1      19.255   5.914  30.110  1.00  0.00    -0.051 Br
HETATM   28  C15 UNK     1      18.578   4.842  32.670  1.00  0.00     0.019 A 
HETATM   29  C13 UNK     1      18.224   3.832  33.563  1.00  0.00     0.011 A 
ENDBRANCH  22  23
ENDBRANCH  21  22
ENDBRANCH  15  21
ENDBRANCH   2  12
TORSDOF 6
ENDMDL
MODEL 6
REMARK VINA RESULT:      -8.2     17.444     19.024
REMARK  6 active torsions:
REMARK  status: ('A' for Active; 'I' for Inactive)
REMARK    1  A    between atoms: C1_7  and  O1_4 
REMARK    2  A    between atoms: C4_10  and  O1_4 
REMARK    3  A    between atoms: C3_9  and  O2_5 
REMARK    4  A    between atoms: C2_8  and  C9_15 
REMARK    5  A    between atoms: C4_10  and  C8_14 
REMARK    6  A    between atoms: C10_16  and  C11_17 
ROOT
HETATM    1  N1  UNK     1      31.929  -8.018  38.310  1.00  0.00    -0.191 NA
HETATM    2  C9  UNK     1      30.181  -5.790  36.344  1.00  0.00     0.036 C 
HETATM    3  C10 UNK     1      31.470  -6.173  36.537  1.00  0.00     0.055 C 
HETATM    4  C23 UNK     1      31.714  -7.195  37.520  1.00  0.00     0.100 C 
ENDROOT
BRANCH   3   5
HETATM    5  C11 UNK     1      32.598  -5.615  35.807  1.00  0.00    -0.014 A 
HETATM    6  C16 UNK     1      33.342  -6.423  34.947  1.00  0.00     0.032 A 
HETATM    7  C19 UNK     1      34.423  -5.888  34.247  1.00  0.00     0.011 A 
HETATM    8 Br3  UNK     1      35.431  -6.983  33.082  1.00  0.00    -0.051 Br
HETATM    9  C21 UNK     1      34.761  -4.545  34.406  1.00  0.00     0.019 A 
HETATM   10  C20 UNK     1      34.017  -3.736  35.266  1.00  0.00     0.002 A 
HETATM   11  C17 UNK     1      32.936  -4.271  35.965  1.00  0.00     0.013 A 
ENDBRANCH   3   5
BRANCH   2  12
HETATM   12  C2  UNK     1      29.011  -6.329  37.052  1.00  0.00    -0.015 A 
HETATM   13  C5  UNK     1      28.393  -7.444  36.498  1.00  0.00     0.052 A 
HETATM   14  C3  UNK     1      27.278  -7.996  37.127  1.00  0.00     0.102 A 
HETATM   15  C1  UNK     1      26.789  -7.430  38.305  1.00  0.00     0.103 A 
HETATM   16  C7  UNK     1      27.417  -6.311  38.853  1.00  0.00     0.059 A 
HETATM   17  C6  UNK     1      28.531  -5.758  38.224  1.00  0.00     0.024 A 
HETATM   18 Br1  UNK     1      29.338  -4.235  39.023  1.00  0.00    -0.050 Br
BRANCH  14  19
HETATM   19  O2  UNK     1      26.674  -9.089  36.582  1.00  0.00    -0.353 OA
HETATM   20  C22 UNK     1      27.450  -9.875  35.679  1.00  0.00     0.210 C 
ENDBRANCH  14  19
BRANCH  15  21
HETATM   21  O1  UNK     1      25.701  -7.961  38.929  1.00  0.00    -0.344 OA
BRANCH  21  22
HETATM   22  C4  UNK     1      24.532  -7.147  38.999  1.00  0.00     0.214 C 
BRANCH  22  23
HETATM   23  C8  UNK     1      23.329  -7.988  38.689  1.00  0.00    -0.034 A 
HETATM   24  C12 UNK     1      22.368  -8.203  39.671  1.00  0.00     0.011 A 
HETATM   25  C14 UNK     1      21.248  -8.984  39.383  1.00  0.00     0.019 A 
HETATM   26  C18 UNK     1      21.097  -9.544  38.115  1.00  0.00     0.011 A 
HETATM   27 Br2  UNK     1      19.580 -10.602  37.723  1.00  0.00    -0.051 Br
HETATM   28  C15 UNK     1      22.066  -9.324  37.135  1.00  0.00     0.019 A 
HETATM   29  C13 UNK     1      23.184  -8.543  37.423  1.00  0.00     0.011 A 
ENDBRANCH  22  23
ENDBRANCH  21  22
ENDBRANCH  15  21
ENDBRANCH   2  12
TORSDOF 6
ENDMDL
MODEL 7
REMARK VINA RESULT:      -8.1     17.500     19.961
REMARK  6 active torsions:
REMARK  status: ('A' for Active; 'I' for Inactive)
REMARK    1  A    between atoms: C1_7  and  O1_4 
REMARK    2  A    between atoms: C4_10  and  O1_4 
REMARK    3  A    between atoms: C3_9  and  O2_5 
REMARK    4  A    between atoms: C2_8  and  C9_15 
REMARK    5  A    between atoms: C4_10  and  C8_14 
REMARK    6  A    between atoms: C10_16  and  C11_17 
ROOT
HETATM    1  N1  UNK     1      27.323 -10.184  39.666  1.00  0.00    -0.191 NA
HETATM    2  C9  UNK     1      27.480  -8.908  36.467  1.00  0.00     0.036 C 
HETATM    3  C10 UNK     1      26.665  -9.716  37.195  1.00  0.00     0.055 C 
HETATM    4  C23 UNK     1      27.037  -9.969  38.562  1.00  0.00     0.100 C 
ENDROOT
BRANCH   3   5
HETATM    5  C11 UNK     1      25.449 -10.321  36.672  1.00  0.00    -0.014 A 
HETATM    6  C16 UNK     1      24.278  -9.569  36.581  1.00  0.00     0.032 A 
HETATM    7  C19 UNK     1      23.113 -10.150  36.080  1.00  0.00     0.011 A 
HETATM    8 Br3  UNK     1      21.526  -9.132  35.956  1.00  0.00    -0.051 Br
HETATM    9  C21 UNK     1      23.120 -11.483  35.670  1.00  0.00     0.019 A 
HETATM   10  C20 UNK     1      24.291 -12.235  35.761  1.00  0.00     0.002 A 
HETATM   11  C17 UNK     1      25.455 -11.654  36.262  1.00  0.00     0.013 A 
ENDBRANCH   3   5
BRANCH   2  12
HETATM   12  C2  UNK     1      28.711  -8.270  36.954  1.00  0.00    -0.015 A 
HETATM   13  C5  UNK     1      28.568  -7.210  37.842  1.00  0.00     0.052 A 
HETATM   14  C3  UNK     1      29.703  -6.567  38.335  1.00  0.00     0.102 A 
HETATM   15  C1  UNK     1      30.972  -6.987  37.936  1.00  0.00     0.103 A 
HETATM   16  C7  UNK     1      31.105  -8.051  37.045  1.00  0.00     0.059 A 
HETATM   17  C6  UNK     1      29.971  -8.695  36.551  1.00  0.00     0.024 A 
HETATM   18 Br1  UNK     1      30.224 -10.137  35.340  1.00  0.00    -0.050 Br
BRANCH  14  19
HETATM   19  O2  UNK     1      29.559  -5.528  39.205  1.00  0.00    -0.353 OA
HETATM   20  C22 UNK     1      28.888  -4.366  38.721  1.00  0.00     0.210 C 
ENDBRANCH  14  19
BRANCH  15  21
HETATM   21  O1  UNK     1      32.088  -6.366  38.411  1.00  0.00    -0.344 OA
BRANCH  21  22
HETATM   22  C4  UNK     1      32.495  -5.170  37.749  1.00  0.00     0.214 C 
BRANCH  22  23
HETATM   23  C8  UNK     1      33.372  -5.530  36.585  1.00  0.00    -0.034 A 
HETATM   24  C12 UNK     1      34.662  -5.995  36.813  1.00  0.00     0.011 A 
HETATM   25  C14 UNK     1      35.477  -6.331  35.731  1.00  0.00     0.019 A 
HETATM   26  C18 UNK     1      34.995  -6.199  34.429  1.00  0.00     0.011 A 
HETATM   27 Br2  UNK     1      36.097  -6.654  32.962  1.00  0.00    -0.051 Br
HETATM   28  C15 UNK     1      33.699  -5.731  34.208  1.00  0.00     0.019 A 
HETATM   29  C13 UNK     1      32.885  -5.396  35.290  1.00  0.00     0.011 A 
ENDBRANCH  22  23
ENDBRANCH  21  22
ENDBRANCH  15  21
ENDBRANCH   2  12
TORSDOF 6
ENDMDL
MODEL 8
REMARK VINA RESULT:      -8.0     17.403     19.024
REMARK  6 active torsions:
REMARK  status: ('A' for Active; 'I' for Inactive)
REMARK    1  A    between atoms: C1_7  and  O1_4 
REMARK    2  A    between atoms: C4_10  and  O1_4 
REMARK    3  A    between atoms: C3_9  and  O2_5 
REMARK    4  A    between atoms: C2_8  and  C9_15 
REMARK    5  A    between atoms: C4_10  and  C8_14 
REMARK    6  A    between atoms: C10_16  and  C11_17 
ROOT
HETATM    1  N1  UNK     1      28.980  -6.211  34.183  1.00  0.00    -0.191 NA
HETATM    2  C9  UNK     1      30.709  -6.663  37.132  1.00  0.00     0.036 C 
HETATM    3  C10 UNK     1      30.972  -6.290  35.851  1.00  0.00     0.055 C 
HETATM    4  C23 UNK     1      29.863  -6.249  34.935  1.00  0.00     0.100 C 
ENDROOT
BRANCH   3   5
HETATM    5  C11 UNK     1      32.297  -5.929  35.370  1.00  0.00    -0.014 A 
HETATM    6  C16 UNK     1      32.983  -6.786  34.509  1.00  0.00     0.032 A 
HETATM    7  C19 UNK     1      34.253  -6.440  34.047  1.00  0.00     0.011 A 
HETATM    8 Br3  UNK     1      35.184  -7.600  32.881  1.00  0.00    -0.051 Br
HETATM    9  C21 UNK     1      34.837  -5.238  34.446  1.00  0.00     0.019 A 
HETATM   10  C20 UNK     1      34.151  -4.382  35.307  1.00  0.00     0.002 A 
HETATM   11  C17 UNK     1      32.881  -4.728  35.768  1.00  0.00     0.013 A 
ENDBRANCH   3   5
BRANCH   2  12
HETATM   12  C2  UNK     1      29.389  -7.028  37.664  1.00  0.00    -0.015 A 
HETATM   13  C5  UNK     1      28.935  -8.316  37.405  1.00  0.00     0.052 A 
HETATM   14  C3  UNK     1      27.689  -8.716  37.885  1.00  0.00     0.102 A 
HETATM   15  C1  UNK     1      26.905  -7.827  38.620  1.00  0.00     0.103 A 
HETATM   16  C7  UNK     1      27.369  -6.536  38.875  1.00  0.00     0.059 A 
HETATM   17  C6  UNK     1      28.615  -6.135  38.395  1.00  0.00     0.024 A 
HETATM   18 Br1  UNK     1      29.187  -4.364  38.777  1.00  0.00    -0.050 Br
BRANCH  14  19
HETATM   19  O2  UNK     1      27.246  -9.980  37.629  1.00  0.00    -0.353 OA
HETATM   20  C22 UNK     1      26.526 -10.180  36.415  1.00  0.00     0.210 C 
ENDBRANCH  14  19
BRANCH  15  21
HETATM   21  O1  UNK     1      25.686  -8.206  39.094  1.00  0.00    -0.344 OA
BRANCH  21  22
HETATM   22  C4  UNK     1      24.613  -7.280  38.938  1.00  0.00     0.214 C 
BRANCH  22  23
HETATM   23  C8  UNK     1      23.345  -8.039  38.675  1.00  0.00    -0.034 A 
HETATM   24  C12 UNK     1      23.137  -8.622  37.430  1.00  0.00     0.011 A 
HETATM   25  C14 UNK     1      21.959  -9.329  37.186  1.00  0.00     0.019 A 
HETATM   26  C18 UNK     1      20.997  -9.448  38.189  1.00  0.00     0.011 A 
HETATM   27 Br2  UNK     1      19.401 -10.406  37.860  1.00  0.00    -0.051 Br
HETATM   28  C15 UNK     1      21.213  -8.859  39.436  1.00  0.00     0.019 A 
HETATM   29  C13 UNK     1      22.390  -8.153  39.679  1.00  0.00     0.011 A 
ENDBRANCH  22  23
ENDBRANCH  21  22
ENDBRANCH  15  21
ENDBRANCH   2  12
TORSDOF 6
ENDMDL
MODEL 9
REMARK VINA RESULT:      -7.9      5.791      7.727
REMARK  6 active torsions:
REMARK  status: ('A' for Active; 'I' for Inactive)
REMARK    1  A    between atoms: C1_7  and  O1_4 
REMARK    2  A    between atoms: C4_10  and  O1_4 
REMARK    3  A    between atoms: C3_9  and  O2_5 
REMARK    4  A    between atoms: C2_8  and  C9_15 
REMARK    5  A    between atoms: C4_10  and  C8_14 
REMARK    6  A    between atoms: C10_16  and  C11_17 
ROOT
HETATM    1  N1  UNK     1      22.072  -1.605  35.479  1.00  0.00    -0.191 NA
HETATM    2  C9  UNK     1      18.709  -2.360  35.587  1.00  0.00     0.036 C 
HETATM    3  C10 UNK     1      19.897  -3.009  35.714  1.00  0.00     0.055 C 
HETATM    4  C23 UNK     1      21.095  -2.224  35.582  1.00  0.00     0.100 C 
ENDROOT
BRANCH   3   5
HETATM    5  C11 UNK     1      20.015  -4.435  35.979  1.00  0.00    -0.014 A 
HETATM    6  C16 UNK     1      20.047  -4.900  37.293  1.00  0.00     0.032 A 
HETATM    7  C19 UNK     1      20.160  -6.267  37.547  1.00  0.00     0.011 A 
HETATM    8 Br3  UNK     1      20.203  -6.898  39.328  1.00  0.00    -0.051 Br
HETATM    9  C21 UNK     1      20.241  -7.169  36.487  1.00  0.00     0.019 A 
HETATM   10  C20 UNK     1      20.209  -6.704  35.172  1.00  0.00     0.002 A 
HETATM   11  C17 UNK     1      20.096  -5.337  34.918  1.00  0.00     0.013 A 
ENDBRANCH   3   5
BRANCH   2  12
HETATM   12  C2  UNK     1      18.542  -0.923  35.326  1.00  0.00    -0.015 A 
HETATM   13  C5  UNK     1      18.323  -0.101  36.426  1.00  0.00     0.052 A 
HETATM   14  C3  UNK     1      18.156   1.270  36.237  1.00  0.00     0.102 A 
HETATM   15  C1  UNK     1      18.208   1.810  34.951  1.00  0.00     0.103 A 
HETATM   16  C7  UNK     1      18.427   0.976  33.854  1.00  0.00     0.059 A 
HETATM   17  C6  UNK     1      18.594  -0.395  34.042  1.00  0.00     0.024 A 
HETATM   18 Br1  UNK     1      18.890  -1.474  32.506  1.00  0.00    -0.050 Br
BRANCH  14  19
HETATM   19  O2  UNK     1      17.942   2.074  37.316  1.00  0.00    -0.353 OA
HETATM   20  C22 UNK     1      17.675   1.430  38.560  1.00  0.00     0.210 C 
ENDBRANCH  14  19
BRANCH  15  21
HETATM   21  O1  UNK     1      18.046   3.148  34.754  1.00  0.00    -0.344 OA
BRANCH  21  22
HETATM   22  C4  UNK     1      18.564   3.691  33.542  1.00  0.00     0.214 C 
BRANCH  22  23
HETATM   23  C8  UNK     1      18.552   5.189  33.632  1.00  0.00    -0.034 A 
HETATM   24  C12 UNK     1      17.363   5.852  33.918  1.00  0.00     0.011 A 
HETATM   25  C14 UNK     1      17.351   7.245  34.004  1.00  0.00     0.019 A 
HETATM   26  C18 UNK     1      18.528   7.965  33.803  1.00  0.00     0.011 A 
HETATM   27 Br2  UNK     1      18.514   9.852  33.920  1.00  0.00    -0.051 Br
HETATM   28  C15 UNK     1      19.717   7.293  33.517  1.00  0.00     0.019 A 
HETATM   29  C13 UNK     1      19.728   5.901  33.432  1.00  0.00     0.011 A 
ENDBRANCH  22  23
ENDBRANCH  21  22
ENDBRANCH  15  21
ENDBRANCH   2  12
TORSDOF 6
ENDMDL
MODEL 10
REMARK VINA RESULT:      -7.7     15.752     18.658
REMARK  6 active torsions:
REMARK  status: ('A' for Active; 'I' for Inactive)
REMARK    1  A    between atoms: C1_7  and  O1_4 
REMARK    2  A    between atoms: C4_10  and  O1_4 
REMARK    3  A    between atoms: C3_9  and  O2_5 
REMARK    4  A    between atoms: C2_8  and  C9_15 
REMARK    5  A    between atoms: C4_10  and  C8_14 
REMARK    6  A    between atoms: C10_16  and  C11_17 
ROOT
HETATM    1  N1  UNK     1      29.214  -6.471  34.848  1.00  0.00    -0.191 NA
HETATM    2  C9  UNK     1      30.048  -7.148  38.124  1.00  0.00     0.036 C 
HETATM    3  C10 UNK     1      30.670  -6.749  36.983  1.00  0.00     0.055 C 
HETATM    4  C23 UNK     1      29.856  -6.598  35.807  1.00  0.00     0.100 C 
ENDROOT
BRANCH   3   5
HETATM    5  C11 UNK     1      32.095  -6.464  36.896  1.00  0.00    -0.014 A 
HETATM    6  C16 UNK     1      32.561  -5.511  35.990  1.00  0.00     0.032 A 
HETATM    7  C19 UNK     1      33.927  -5.238  35.907  1.00  0.00     0.011 A 
HETATM    8 Br3  UNK     1      34.559  -3.947  34.680  1.00  0.00    -0.051 Br
HETATM    9  C21 UNK     1      34.825  -5.918  36.727  1.00  0.00     0.019 A 
HETATM   10  C20 UNK     1      34.358  -6.872  37.632  1.00  0.00     0.002 A 
HETATM   11  C17 UNK     1      32.993  -7.144  37.717  1.00  0.00     0.013 A 
ENDBRANCH   3   5
BRANCH   2  12
HETATM   12  C2  UNK     1      28.614  -7.440  38.262  1.00  0.00    -0.015 A 
HETATM   13  C5  UNK     1      28.211  -8.752  38.046  1.00  0.00     0.052 A 
HETATM   14  C3  UNK     1      26.862  -9.085  38.162  1.00  0.00     0.102 A 
HETATM   15  C1  UNK     1      25.926  -8.104  38.492  1.00  0.00     0.103 A 
HETATM   16  C7  UNK     1      26.341  -6.790  38.707  1.00  0.00     0.059 A 
HETATM   17  C6  UNK     1      27.690  -6.456  38.591  1.00  0.00     0.024 A 
HETATM   18 Br1  UNK     1      28.188  -4.648  38.896  1.00  0.00    -0.050 Br
BRANCH  14  19
HETATM   19  O2  UNK     1      26.469 -10.372  37.950  1.00  0.00    -0.353 OA
HETATM   20  C22 UNK     1      26.109 -10.728  36.616  1.00  0.00     0.210 C 
ENDBRANCH  14  19
BRANCH  15  21
HETATM   21  O1  UNK     1      24.606  -8.418  38.608  1.00  0.00    -0.344 OA
BRANCH  21  22
HETATM   22  C4  UNK     1      23.745  -7.410  39.136  1.00  0.00     0.214 C 
BRANCH  22  23
HETATM   23  C8  UNK     1      22.444  -7.437  38.387  1.00  0.00    -0.034 A 
HETATM   24  C12 UNK     1      21.342  -6.761  38.899  1.00  0.00     0.011 A 
HETATM   25  C14 UNK     1      20.133  -6.783  38.203  1.00  0.00     0.019 A 
HETATM   26  C18 UNK     1      20.035  -7.482  37.000  1.00  0.00     0.011 A 
HETATM   27 Br2  UNK     1      18.398  -7.513  36.055  1.00  0.00    -0.051 Br
HETATM   28  C15 UNK     1      21.145  -8.158  36.493  1.00  0.00     0.019 A 
HETATM   29  C13 UNK     1      22.353  -8.134  37.189  1.00  0.00     0.011 A 
ENDBRANCH  22  23
ENDBRANCH  21  22
ENDBRANCH  15  21
ENDBRANCH   2  12
TORSDOF 6
ENDMDL
