MODEL 1
REMARK VINA RESULT:      -8.3      0.000      0.000
REMARK  3 active torsions:
REMARK  status: ('A' for Active; 'I' for Inactive)
REMARK    1  A    between atoms: C3_7  and  O2_2 
REMARK    2  A    between atoms: C7_11  and  O3_3 
REMARK    3  A    between atoms: C4_8  and  C9_13 
ROOT
HETATM    1  O1  UNK     1      18.965  -0.643  33.660  1.00  0.00    -0.306 OA
HETATM    2  O4  UNK     1      20.511  -3.952  35.467  1.00  0.00    -0.287 OA
HETATM    3  C1  UNK     1      18.729  -0.869  34.993  1.00  0.00     0.126 A 
HETATM    4  C2  UNK     1      19.228  -1.978  35.673  1.00  0.00     0.051 A 
HETATM    5  C3  UNK     1      17.951   0.071  35.670  1.00  0.00     0.136 A 
HETATM    6  C4  UNK     1      19.741  -1.558  32.964  1.00  0.00     0.090 A 
HETATM    7  C5  UNK     1      20.044  -2.954  34.934  1.00  0.00     0.187 A 
HETATM    8  C6  UNK     1      18.955  -2.157  37.031  1.00  0.00     0.021 A 
HETATM    9  C7  UNK     1      17.676  -0.103  37.026  1.00  0.00     0.104 A 
HETATM   10  C8  UNK     1      20.272  -2.666  33.504  1.00  0.00     0.093 A 
HETATM   11  C10 UNK     1      18.177  -1.215  37.705  1.00  0.00     0.041 A 
ENDROOT
BRANCH   6  12
HETATM   12  C9  UNK     1      19.929  -1.222  31.538  1.00  0.00    -0.002 A 
HETATM   13  C11 UNK     1      20.366  -2.198  30.639  1.00  0.00     0.014 A 
HETATM   14  C13 UNK     1      20.542  -1.882  29.292  1.00  0.00     0.001 A 
HETATM   15  C15 UNK     1      20.281  -0.588  28.839  1.00  0.00     0.000 A 
HETATM   16  C14 UNK     1      19.843   0.389  29.734  1.00  0.00     0.001 A 
HETATM   17  C12 UNK     1      19.667   0.073  31.081  1.00  0.00     0.014 A 
ENDBRANCH   6  12
BRANCH   5  18
HETATM   18  O2  UNK     1      17.459   1.159  35.012  1.00  0.00    -0.351 OA
HETATM   19  C16 UNK     1      18.316   2.293  34.903  1.00  0.00     0.210 C 
ENDBRANCH   5  18
BRANCH   9  20
HETATM   20  O3  UNK     1      16.918   0.806  37.701  1.00  0.00    -0.353 OA
HETATM   21  C17 UNK     1      17.596   1.656  38.624  1.00  0.00     0.210 C 
ENDBRANCH   9  20
TORSDOF 3
ENDMDL
MODEL 2
REMARK VINA RESULT:      -8.0      1.885      6.230
REMARK  3 active torsions:
REMARK  status: ('A' for Active; 'I' for Inactive)
REMARK    1  A    between atoms: C3_7  and  O2_2 
REMARK    2  A    between atoms: C7_11  and  O3_3 
REMARK    3  A    between atoms: C4_8  and  C9_13 
ROOT
HETATM    1  O1  UNK     1      18.555  -0.004  33.035  1.00  0.00    -0.306 OA
HETATM    2  O4  UNK     1      20.801  -3.334  33.720  1.00  0.00    -0.287 OA
HETATM    3  C1  UNK     1      19.243  -0.590  32.002  1.00  0.00     0.126 A 
HETATM    4  C2  UNK     1      20.027  -1.730  32.166  1.00  0.00     0.051 A 
HETATM    5  C3  UNK     1      19.132   0.003  30.744  1.00  0.00     0.136 A 
HETATM    6  C4  UNK     1      18.641  -0.577  34.294  1.00  0.00     0.090 A 
HETATM    7  C5  UNK     1      20.128  -2.336  33.503  1.00  0.00     0.187 A 
HETATM    8  C6  UNK     1      20.706  -2.285  31.078  1.00  0.00     0.021 A 
HETATM    9  C7  UNK     1      19.807  -0.546  29.655  1.00  0.00     0.104 A 
HETATM   10  C8  UNK     1      19.368  -1.669  34.580  1.00  0.00     0.093 A 
HETATM   11  C10 UNK     1      20.592  -1.688  29.822  1.00  0.00     0.041 A 
ENDROOT
BRANCH   6  12
HETATM   12  C9  UNK     1      17.868   0.135  35.332  1.00  0.00    -0.002 A 
HETATM   13  C11 UNK     1      16.486  -0.047  35.425  1.00  0.00     0.014 A 
HETATM   14  C13 UNK     1      15.755   0.625  36.405  1.00  0.00     0.001 A 
HETATM   15  C15 UNK     1      16.405   1.481  37.295  1.00  0.00     0.000 A 
HETATM   16  C14 UNK     1      17.785   1.665  37.204  1.00  0.00     0.001 A 
HETATM   17  C12 UNK     1      18.516   0.993  36.224  1.00  0.00     0.014 A 
ENDBRANCH   6  12
BRANCH   5  18
HETATM   18  O2  UNK     1      18.366   1.119  30.576  1.00  0.00    -0.351 OA
HETATM   19  C16 UNK     1      19.042   2.374  30.575  1.00  0.00     0.210 C 
ENDBRANCH   5  18
BRANCH   9  20
HETATM   20  O3  UNK     1      19.709   0.022  28.421  1.00  0.00    -0.353 OA
HETATM   21  C17 UNK     1      18.745  -0.531  27.528  1.00  0.00     0.210 C 
ENDBRANCH   9  20
TORSDOF 3
ENDMDL
MODEL 3
REMARK VINA RESULT:      -7.9     25.428     27.424
REMARK  3 active torsions:
REMARK  status: ('A' for Active; 'I' for Inactive)
REMARK    1  A    between atoms: C3_7  and  O2_2 
REMARK    2  A    between atoms: C7_11  and  O3_3 
REMARK    3  A    between atoms: C4_8  and  C9_13 
ROOT
HETATM    1  O1  UNK     1      13.423   7.459   8.562  1.00  0.00    -0.306 OA
HETATM    2  O4  UNK     1      15.474   4.129   9.705  1.00  0.00    -0.287 OA
HETATM    3  C1  UNK     1      14.655   7.583   9.153  1.00  0.00     0.126 A 
HETATM    4  C2  UNK     1      15.410   6.487   9.567  1.00  0.00     0.051 A 
HETATM    5  C3  UNK     1      15.147   8.876   9.336  1.00  0.00     0.136 A 
HETATM    6  C4  UNK     1      12.913   6.185   8.362  1.00  0.00     0.090 A 
HETATM    7  C5  UNK     1      14.868   5.135   9.364  1.00  0.00     0.187 A 
HETATM    8  C6  UNK     1      16.659   6.673  10.164  1.00  0.00     0.021 A 
HETATM    9  C7  UNK     1      16.393   9.067   9.932  1.00  0.00     0.104 A 
HETATM   10  C8  UNK     1      13.540   5.054   8.721  1.00  0.00     0.093 A 
HETATM   11  C10 UNK     1      17.148   7.968  10.344  1.00  0.00     0.041 A 
ENDROOT
BRANCH   6  12
HETATM   12  C9  UNK     1      11.581   6.166   7.724  1.00  0.00    -0.002 A 
HETATM   13  C11 UNK     1      10.427   6.118   8.510  1.00  0.00     0.014 A 
HETATM   14  C13 UNK     1       9.169   6.101   7.908  1.00  0.00     0.001 A 
HETATM   15  C15 UNK     1       9.061   6.133   6.517  1.00  0.00     0.000 A 
HETATM   16  C14 UNK     1      10.211   6.181   5.729  1.00  0.00     0.001 A 
HETATM   17  C12 UNK     1      11.469   6.198   6.331  1.00  0.00     0.014 A 
ENDBRANCH   6  12
BRANCH   5  18
HETATM   18  O2  UNK     1      14.414   9.953   8.934  1.00  0.00    -0.351 OA
HETATM   19  C16 UNK     1      13.625  10.606   9.926  1.00  0.00     0.210 C 
ENDBRANCH   5  18
BRANCH   9  20
HETATM   20  O3  UNK     1      16.886  10.324  10.117  1.00  0.00    -0.353 OA
HETATM   21  C17 UNK     1      17.800  10.811   9.136  1.00  0.00     0.210 C 
ENDBRANCH   9  20
TORSDOF 3
ENDMDL
MODEL 4
REMARK VINA RESULT:      -7.9     25.415     27.376
REMARK  3 active torsions:
REMARK  status: ('A' for Active; 'I' for Inactive)
REMARK    1  A    between atoms: C3_7  and  O2_2 
REMARK    2  A    between atoms: C7_11  and  O3_3 
REMARK    3  A    between atoms: C4_8  and  C9_13 
ROOT
HETATM    1  O1  UNK     1      13.379   7.479   8.628  1.00  0.00    -0.306 OA
HETATM    2  O4  UNK     1      15.471   4.149   9.695  1.00  0.00    -0.287 OA
HETATM    3  C1  UNK     1      14.613   7.605   9.214  1.00  0.00     0.126 A 
HETATM    4  C2  UNK     1      15.382   6.510   9.602  1.00  0.00     0.051 A 
HETATM    5  C3  UNK     1      15.093   8.899   9.418  1.00  0.00     0.136 A 
HETATM    6  C4  UNK     1      12.881   6.204   8.406  1.00  0.00     0.090 A 
HETATM    7  C5  UNK     1      14.853   5.156   9.377  1.00  0.00     0.187 A 
HETATM    8  C6  UNK     1      16.633   6.697  10.196  1.00  0.00     0.021 A 
HETATM    9  C7  UNK     1      16.341   9.092  10.010  1.00  0.00     0.104 A 
HETATM   10  C8  UNK     1      13.522   5.073   8.741  1.00  0.00     0.093 A 
HETATM   11  C10 UNK     1      17.109   7.993  10.397  1.00  0.00     0.041 A 
ENDROOT
BRANCH   6  12
HETATM   12  C9  UNK     1      11.546   6.183   7.775  1.00  0.00    -0.002 A 
HETATM   13  C11 UNK     1      11.427   6.200   6.384  1.00  0.00     0.014 A 
HETATM   14  C13 UNK     1      10.166   6.180   5.787  1.00  0.00     0.001 A 
HETATM   15  C15 UNK     1       9.019   6.141   6.581  1.00  0.00     0.000 A 
HETATM   16  C14 UNK     1       9.135   6.123   7.972  1.00  0.00     0.001 A 
HETATM   17  C12 UNK     1      10.396   6.144   8.568  1.00  0.00     0.014 A 
ENDBRANCH   6  12
BRANCH   5  18
HETATM   18  O2  UNK     1      14.346   9.976   9.041  1.00  0.00    -0.351 OA
HETATM   19  C16 UNK     1      13.548  10.595  10.047  1.00  0.00     0.210 C 
ENDBRANCH   5  18
BRANCH   9  20
HETATM   20  O3  UNK     1      16.822  10.350  10.216  1.00  0.00    -0.353 OA
HETATM   21  C17 UNK     1      17.737  10.860   9.247  1.00  0.00     0.210 C 
ENDBRANCH   9  20
TORSDOF 3
ENDMDL
MODEL 5
REMARK VINA RESULT:      -7.6      3.307      5.956
REMARK  3 active torsions:
REMARK  status: ('A' for Active; 'I' for Inactive)
REMARK    1  A    between atoms: C3_7  and  O2_2 
REMARK    2  A    between atoms: C7_11  and  O3_3 
REMARK    3  A    between atoms: C4_8  and  C9_13 
ROOT
HETATM    1  O1  UNK     1      18.130   2.829  32.939  1.00  0.00    -0.306 OA
HETATM    2  O4  UNK     1      19.396   1.256  29.400  1.00  0.00    -0.287 OA
HETATM    3  C1  UNK     1      18.418   1.490  32.849  1.00  0.00     0.126 A 
HETATM    4  C2  UNK     1      18.856   0.888  31.671  1.00  0.00     0.051 A 
HETATM    5  C3  UNK     1      18.255   0.724  34.004  1.00  0.00     0.136 A 
HETATM    6  C4  UNK     1      18.290   3.615  31.808  1.00  0.00     0.090 A 
HETATM    7  C5  UNK     1      19.019   1.718  30.468  1.00  0.00     0.187 A 
HETATM    8  C6  UNK     1      19.134  -0.481  31.637  1.00  0.00     0.021 A 
HETATM    9  C7  UNK     1      18.531  -0.642  33.975  1.00  0.00     0.104 A 
HETATM   10  C8  UNK     1      18.699   3.152  30.617  1.00  0.00     0.093 A 
HETATM   11  C10 UNK     1      18.971  -1.243  32.795  1.00  0.00     0.041 A 
ENDROOT
BRANCH   6  12
HETATM   12  C9  UNK     1      17.949   5.038  32.014  1.00  0.00    -0.002 A 
HETATM   13  C11 UNK     1      17.556   5.489  33.276  1.00  0.00     0.014 A 
HETATM   14  C13 UNK     1      17.234   6.832  33.472  1.00  0.00     0.001 A 
HETATM   15  C15 UNK     1      17.304   7.729  32.405  1.00  0.00     0.000 A 
HETATM   16  C14 UNK     1      17.697   7.281  31.143  1.00  0.00     0.001 A 
HETATM   17  C12 UNK     1      18.019   5.938  30.947  1.00  0.00     0.014 A 
ENDBRANCH   6  12
BRANCH   5  18
HETATM   18  O2  UNK     1      17.826   1.306  35.160  1.00  0.00    -0.351 OA
HETATM   19  C16 UNK     1      18.826   1.813  36.040  1.00  0.00     0.210 C 
ENDBRANCH   5  18
BRANCH   9  20
HETATM   20  O3  UNK     1      18.376  -1.404  35.095  1.00  0.00    -0.353 OA
HETATM   21  C17 UNK     1      19.565  -1.851  35.742  1.00  0.00     0.210 C 
ENDBRANCH   9  20
TORSDOF 3
ENDMDL
MODEL 6
REMARK VINA RESULT:      -7.5      8.981     11.215
REMARK  3 active torsions:
REMARK  status: ('A' for Active; 'I' for Inactive)
REMARK    1  A    between atoms: C3_7  and  O2_2 
REMARK    2  A    between atoms: C7_11  and  O3_3 
REMARK    3  A    between atoms: C4_8  and  C9_13 
ROOT
HETATM    1  O1  UNK     1      24.586  -8.906  37.117  1.00  0.00    -0.306 OA
HETATM    2  O4  UNK     1      24.664 -12.568  35.332  1.00  0.00    -0.287 OA
HETATM    3  C1  UNK     1      23.430  -9.446  36.613  1.00  0.00     0.126 A 
HETATM    4  C2  UNK     1      23.385 -10.693  35.992  1.00  0.00     0.051 A 
HETATM    5  C3  UNK     1      22.264  -8.691  36.743  1.00  0.00     0.136 A 
HETATM    6  C4  UNK     1      25.758  -9.639  37.009  1.00  0.00     0.090 A 
HETATM    7  C5  UNK     1      24.629 -11.469  35.868  1.00  0.00     0.187 A 
HETATM    8  C6  UNK     1      22.178 -11.194  35.497  1.00  0.00     0.021 A 
HETATM    9  C7  UNK     1      21.057  -9.186  36.250  1.00  0.00     0.104 A 
HETATM   10  C8  UNK     1      25.845 -10.845  36.428  1.00  0.00     0.093 A 
HETATM   11  C10 UNK     1      21.014 -10.435  35.629  1.00  0.00     0.041 A 
ENDROOT
BRANCH   6  12
HETATM   12  C9  UNK     1      26.942  -8.963  37.579  1.00  0.00    -0.002 A 
HETATM   13  C11 UNK     1      28.198  -9.137  36.992  1.00  0.00     0.014 A 
HETATM   14  C13 UNK     1      29.316  -8.498  37.529  1.00  0.00     0.001 A 
HETATM   15  C15 UNK     1      29.182  -7.684  38.654  1.00  0.00     0.000 A 
HETATM   16  C14 UNK     1      27.929  -7.509  39.242  1.00  0.00     0.001 A 
HETATM   17  C12 UNK     1      26.810  -8.147  38.705  1.00  0.00     0.014 A 
ENDBRANCH   6  12
BRANCH   5  18
HETATM   18  O2  UNK     1      22.300  -7.470  37.349  1.00  0.00    -0.351 OA
HETATM   19  C16 UNK     1      22.098  -7.440  38.759  1.00  0.00     0.210 C 
ENDBRANCH   5  18
BRANCH   9  20
HETATM   20  O3  UNK     1      19.910  -8.460  36.369  1.00  0.00    -0.353 OA
HETATM   21  C17 UNK     1      18.924  -8.951  37.273  1.00  0.00     0.210 C 
ENDBRANCH   9  20
TORSDOF 3
ENDMDL
MODEL 7
REMARK VINA RESULT:      -7.4      1.846      4.738
REMARK  3 active torsions:
REMARK  status: ('A' for Active; 'I' for Inactive)
REMARK    1  A    between atoms: C3_7  and  O2_2 
REMARK    2  A    between atoms: C7_11  and  O3_3 
REMARK    3  A    between atoms: C4_8  and  C9_13 
ROOT
HETATM    1  O1  UNK     1      18.900   0.560  34.427  1.00  0.00    -0.306 OA
HETATM    2  O4  UNK     1      17.225   1.083  38.104  1.00  0.00    -0.287 OA
HETATM    3  C1  UNK     1      18.947  -0.454  35.351  1.00  0.00     0.126 A 
HETATM    4  C2  UNK     1      18.393  -0.343  36.625  1.00  0.00     0.051 A 
HETATM    5  C3  UNK     1      19.583  -1.636  34.968  1.00  0.00     0.136 A 
HETATM    6  C4  UNK     1      18.268   1.743  34.777  1.00  0.00     0.090 A 
HETATM    7  C5  UNK     1      17.729   0.914  37.002  1.00  0.00     0.187 A 
HETATM    8  C6  UNK     1      18.470  -1.408  37.525  1.00  0.00     0.021 A 
HETATM    9  C7  UNK     1      19.662  -2.702  35.864  1.00  0.00     0.104 A 
HETATM   10  C8  UNK     1      17.703   1.973  35.973  1.00  0.00     0.093 A 
HETATM   11  C10 UNK     1      19.107  -2.589  37.139  1.00  0.00     0.041 A 
ENDROOT
BRANCH   6  12
HETATM   12  C9  UNK     1      18.279   2.767  33.713  1.00  0.00    -0.002 A 
HETATM   13  C11 UNK     1      18.253   2.383  32.370  1.00  0.00     0.014 A 
HETATM   14  C13 UNK     1      18.263   3.350  31.364  1.00  0.00     0.001 A 
HETATM   15  C15 UNK     1      18.299   4.704  31.699  1.00  0.00     0.000 A 
HETATM   16  C14 UNK     1      18.325   5.091  33.039  1.00  0.00     0.001 A 
HETATM   17  C12 UNK     1      18.315   4.124  34.045  1.00  0.00     0.014 A 
ENDBRANCH   6  12
BRANCH   5  18
HETATM   18  O2  UNK     1      20.127  -1.752  33.724  1.00  0.00    -0.351 OA
HETATM   19  C16 UNK     1      19.235  -1.661  32.616  1.00  0.00     0.210 C 
ENDBRANCH   5  18
BRANCH   9  20
HETATM   20  O3  UNK     1      20.281  -3.862  35.505  1.00  0.00    -0.353 OA
HETATM   21  C17 UNK     1      19.857  -5.052  36.166  1.00  0.00     0.210 C 
ENDBRANCH   9  20
TORSDOF 3
ENDMDL
MODEL 8
REMARK VINA RESULT:      -7.4     25.648     28.225
REMARK  3 active torsions:
REMARK  status: ('A' for Active; 'I' for Inactive)
REMARK    1  A    between atoms: C3_7  and  O2_2 
REMARK    2  A    between atoms: C7_11  and  O3_3 
REMARK    3  A    between atoms: C4_8  and  C9_13 
ROOT
HETATM    1  O1  UNK     1      11.648   7.882   9.047  1.00  0.00    -0.306 OA
HETATM    2  O4  UNK     1      11.880   5.990   5.447  1.00  0.00    -0.287 OA
HETATM    3  C1  UNK     1      10.503   7.454   8.425  1.00  0.00     0.126 A 
HETATM    4  C2  UNK     1      10.510   6.799   7.194  1.00  0.00     0.051 A 
HETATM    5  C3  UNK     1       9.294   7.699   9.076  1.00  0.00     0.136 A 
HETATM    6  C4  UNK     1      12.865   7.646   8.426  1.00  0.00     0.090 A 
HETATM    7  C5  UNK     1      11.799   6.555   6.529  1.00  0.00     0.187 A 
HETATM    8  C6  UNK     1       9.313   6.385   6.606  1.00  0.00     0.021 A 
HETATM    9  C7  UNK     1       8.095   7.287   8.493  1.00  0.00     0.104 A 
HETATM   10  C8  UNK     1      13.002   7.033   7.240  1.00  0.00     0.093 A 
HETATM   11  C10 UNK     1       8.105   6.631   7.261  1.00  0.00     0.041 A 
ENDROOT
BRANCH   6  12
HETATM   12  C9  UNK     1      14.031   8.152   9.179  1.00  0.00    -0.002 A 
HETATM   13  C11 UNK     1      14.616   9.371   8.829  1.00  0.00     0.014 A 
HETATM   14  C13 UNK     1      15.717   9.850   9.540  1.00  0.00     0.001 A 
HETATM   15  C15 UNK     1      16.235   9.111  10.604  1.00  0.00     0.000 A 
HETATM   16  C14 UNK     1      15.652   7.893  10.957  1.00  0.00     0.001 A 
HETATM   17  C12 UNK     1      14.552   7.414  10.246  1.00  0.00     0.014 A 
ENDBRANCH   6  12
BRANCH   5  18
HETATM   18  O2  UNK     1       9.278   8.339  10.280  1.00  0.00    -0.351 OA
HETATM   19  C16 UNK     1       9.150   9.758  10.257  1.00  0.00     0.210 C 
ENDBRANCH   5  18
BRANCH   9  20
HETATM   20  O3  UNK     1       6.906   7.520   9.117  1.00  0.00    -0.353 OA
HETATM   21  C17 UNK     1       6.521   6.602  10.138  1.00  0.00     0.210 C 
ENDBRANCH   9  20
TORSDOF 3
ENDMDL
MODEL 9
REMARK VINA RESULT:      -7.4      8.296     10.288
REMARK  3 active torsions:
REMARK  status: ('A' for Active; 'I' for Inactive)
REMARK    1  A    between atoms: C3_7  and  O2_2 
REMARK    2  A    between atoms: C7_11  and  O3_3 
REMARK    3  A    between atoms: C4_8  and  C9_13 
ROOT
HETATM    1  O1  UNK     1      17.488   8.556  33.079  1.00  0.00    -0.306 OA
HETATM    2  O4  UNK     1      13.985   6.896  31.824  1.00  0.00    -0.287 OA
HETATM    3  C1  UNK     1      16.295   9.149  33.405  1.00  0.00     0.126 A 
HETATM    4  C2  UNK     1      15.061   8.634  33.010  1.00  0.00     0.051 A 
HETATM    5  C3  UNK     1      16.350  10.317  34.166  1.00  0.00     0.136 A 
HETATM    6  C4  UNK     1      17.462   7.390  32.330  1.00  0.00     0.090 A 
HETATM    7  C5  UNK     1      15.031   7.401  32.208  1.00  0.00     0.187 A 
HETATM    8  C6  UNK     1      13.876   9.280  33.371  1.00  0.00     0.021 A 
HETATM    9  C7  UNK     1      15.170  10.966  34.528  1.00  0.00     0.104 A 
HETATM   10  C8  UNK     1      16.341   6.801  31.886  1.00  0.00     0.093 A 
HETATM   11  C10 UNK     1      13.936  10.448  34.132  1.00  0.00     0.041 A 
ENDROOT
BRANCH   6  12
HETATM   12  C9  UNK     1      18.801   6.839  32.032  1.00  0.00    -0.002 A 
HETATM   13  C11 UNK     1      19.815   6.903  32.990  1.00  0.00     0.014 A 
HETATM   14  C13 UNK     1      21.078   6.383  32.710  1.00  0.00     0.001 A 
HETATM   15  C15 UNK     1      21.331   5.795  31.470  1.00  0.00     0.000 A 
HETATM   16  C14 UNK     1      20.320   5.729  30.511  1.00  0.00     0.001 A 
HETATM   17  C12 UNK     1      19.056   6.249  30.791  1.00  0.00     0.014 A 
ENDBRANCH   6  12
BRANCH   5  18
HETATM   18  O2  UNK     1      17.553  10.828  34.555  1.00  0.00    -0.351 OA
HETATM   19  C16 UNK     1      18.044  11.953  33.832  1.00  0.00     0.210 C 
ENDBRANCH   5  18
BRANCH   9  20
HETATM   20  O3  UNK     1      15.208  12.109  35.270  1.00  0.00    -0.353 OA
HETATM   21  C17 UNK     1      14.422  12.134  36.460  1.00  0.00     0.210 C 
ENDBRANCH   9  20
TORSDOF 3
ENDMDL
MODEL 10
REMARK VINA RESULT:      -7.3     12.369     14.083
REMARK  3 active torsions:
REMARK  status: ('A' for Active; 'I' for Inactive)
REMARK    1  A    between atoms: C3_7  and  O2_2 
REMARK    2  A    between atoms: C7_11  and  O3_3 
REMARK    3  A    between atoms: C4_8  and  C9_13 
ROOT
HETATM    1  O1  UNK     1      31.012  -6.726  37.408  1.00  0.00    -0.306 OA
HETATM    2  O4  UNK     1      29.115  -3.847  39.578  1.00  0.00    -0.287 OA
HETATM    3  C1  UNK     1      29.882  -7.040  38.120  1.00  0.00     0.126 A 
HETATM    4  C2  UNK     1      29.184  -6.105  38.882  1.00  0.00     0.051 A 
HETATM    5  C3  UNK     1      29.437  -8.361  38.061  1.00  0.00     0.136 A 
HETATM    6  C4  UNK     1      31.472  -5.419  37.443  1.00  0.00     0.090 A 
HETATM    7  C5  UNK     1      29.675  -4.719  38.928  1.00  0.00     0.187 A 
HETATM    8  C6  UNK     1      28.039  -6.480  39.588  1.00  0.00     0.021 A 
HETATM    9  C7  UNK     1      28.295  -8.741  38.764  1.00  0.00     0.104 A 
HETATM   10  C8  UNK     1      30.893  -4.431  38.143  1.00  0.00     0.093 A 
HETATM   11  C10 UNK     1      27.597  -7.802  39.526  1.00  0.00     0.041 A 
ENDROOT
BRANCH   6  12
HETATM   12  C9  UNK     1      32.696  -5.192  36.646  1.00  0.00    -0.002 A 
HETATM   13  C11 UNK     1      33.893  -5.814  37.007  1.00  0.00     0.014 A 
HETATM   14  C13 UNK     1      35.048  -5.602  36.255  1.00  0.00     0.001 A 
HETATM   15  C15 UNK     1      35.009  -4.766  35.138  1.00  0.00     0.000 A 
HETATM   16  C14 UNK     1      33.815  -4.144  34.774  1.00  0.00     0.001 A 
HETATM   17  C12 UNK     1      32.659  -4.357  35.526  1.00  0.00     0.014 A 
ENDBRANCH   6  12
BRANCH   5  18
HETATM   18  O2  UNK     1      30.115  -9.282  37.318  1.00  0.00    -0.351 OA
HETATM   19  C16 UNK     1      31.140 -10.020  37.980  1.00  0.00     0.210 C 
ENDBRANCH   5  18
BRANCH   9  20
HETATM   20  O3  UNK     1      27.848 -10.028  38.716  1.00  0.00    -0.353 OA
HETATM   21  C17 UNK     1      27.108 -10.498  39.841  1.00  0.00     0.210 C 
ENDBRANCH   9  20
TORSDOF 3
ENDMDL
