MODEL 1
REMARK VINA RESULT:      -8.2      0.000      0.000
REMARK  6 active torsions:
REMARK  status: ('A' for Active; 'I' for Inactive)
REMARK    1  A    between atoms: C1_7  and  O2_2 
REMARK    2  A    between atoms: C7_13  and  O3_3 
REMARK    3  A    between atoms: C12_18  and  O4_4 
REMARK    4  A    between atoms: C13_19  and  O5_5 
REMARK    5  A    between atoms: C15_21  and  O6_6 
REMARK    6  A    between atoms: C2_8  and  C6_12 
ROOT
HETATM    1  O1  UNK     1       9.615   6.055   9.732  1.00  0.00    -0.338 OA
HETATM    2  C1  UNK     1       8.270   6.479   7.709  1.00  0.00     0.156 C 
HETATM    3  C2  UNK     1       8.571   6.862   9.165  1.00  0.00     0.191 C 
HETATM    4  C3  UNK     1       9.528   6.668   6.867  1.00  0.00     0.079 C 
HETATM    5  C4  UNK     1      10.733   6.117   7.565  1.00  0.00     0.011 A 
HETATM    6  C5  UNK     1      10.714   5.857   8.939  1.00  0.00     0.081 A 
HETATM    7  C7  UNK     1      11.912   5.882   6.843  1.00  0.00     0.077 A 
HETATM    8  C8  UNK     1      11.842   5.334   9.574  1.00  0.00     0.074 A 
HETATM    9  C11 UNK     1      13.042   5.371   7.481  1.00  0.00     0.073 A 
HETATM   10  C12 UNK     1      13.006   5.093   8.846  1.00  0.00     0.071 A 
ENDROOT
BRANCH   3  11
HETATM   11  C6  UNK     1       7.352   6.704  10.055  1.00  0.00    -0.024 A 
HETATM   12  C10 UNK     1       6.990   7.730  10.924  1.00  0.00     0.013 A 
HETATM   13  C14 UNK     1       5.870   7.585  11.743  1.00  0.00     0.040 A 
HETATM   14  C15 UNK     1       5.115   6.414  11.689  1.00  0.00     0.098 A 
HETATM   15  C13 UNK     1       5.479   5.388  10.819  1.00  0.00     0.099 A 
HETATM   16  C9  UNK     1       6.600   5.532  10.000  1.00  0.00     0.049 A 
BRANCH  14  17
HETATM   17  O6  UNK     1       4.023   6.284  12.494  1.00  0.00    -0.358 OA
HETATM   18  H14 UNK     1       3.239   6.127  11.942  1.00  0.00     0.217 HD
ENDBRANCH  14  17
BRANCH  15  19
HETATM   19  O5  UNK     1       4.750   4.239  10.758  1.00  0.00    -0.358 OA
HETATM   20  H13 UNK     1       3.822   4.461  10.577  1.00  0.00     0.217 HD
ENDBRANCH  15  19
ENDBRANCH   3  11
BRANCH   2  21
HETATM   21  O2  UNK     1       7.241   7.316   7.191  1.00  0.00    -0.392 OA
HETATM   22  H7  UNK     1       6.545   7.377   7.868  1.00  0.00     0.210 HD
ENDBRANCH   2  21
BRANCH   7  23
HETATM   23  O3  UNK     1      11.980   6.148   5.508  1.00  0.00    -0.360 OA
HETATM   24  H11 UNK     1      11.700   7.067   5.351  1.00  0.00     0.217 HD
ENDBRANCH   7  23
BRANCH  10  25
HETATM   25  O4  UNK     1      14.108   4.591   9.468  1.00  0.00    -0.361 OA
HETATM   26  H12 UNK     1      14.048   3.619   9.480  1.00  0.00     0.217 HD
ENDBRANCH  10  25
TORSDOF 6
ENDMDL
MODEL 2
REMARK VINA RESULT:      -8.2     25.724     27.417
REMARK  6 active torsions:
REMARK  status: ('A' for Active; 'I' for Inactive)
REMARK    1  A    between atoms: C1_7  and  O2_2 
REMARK    2  A    between atoms: C7_13  and  O3_3 
REMARK    3  A    between atoms: C12_18  and  O4_4 
REMARK    4  A    between atoms: C13_19  and  O5_5 
REMARK    5  A    between atoms: C15_21  and  O6_6 
REMARK    6  A    between atoms: C2_8  and  C6_12 
ROOT
HETATM    1  O1  UNK     1      18.724   0.005  32.904  1.00  0.00    -0.338 OA
HETATM    2  C1  UNK     1      19.940  -1.908  33.876  1.00  0.00     0.156 C 
HETATM    3  C2  UNK     1      18.662  -1.057  33.870  1.00  0.00     0.191 C 
HETATM    4  C3  UNK     1      20.139  -2.531  32.497  1.00  0.00     0.079 C 
HETATM    5  C4  UNK     1      19.899  -1.526  31.412  1.00  0.00     0.011 A 
HETATM    6  C5  UNK     1      19.205  -0.339  31.669  1.00  0.00     0.081 A 
HETATM    7  C7  UNK     1      20.349  -1.785  30.109  1.00  0.00     0.077 A 
HETATM    8  C8  UNK     1      18.998   0.592  30.648  1.00  0.00     0.074 A 
HETATM    9  C11 UNK     1      20.131  -0.859  29.089  1.00  0.00     0.073 A 
HETATM   10  C12 UNK     1      19.459   0.331  29.359  1.00  0.00     0.071 A 
ENDROOT
BRANCH   3  11
HETATM   11  C6  UNK     1      18.402  -0.416  35.220  1.00  0.00    -0.024 A 
HETATM   12  C10 UNK     1      17.623  -1.079  36.165  1.00  0.00     0.013 A 
HETATM   13  C14 UNK     1      17.384  -0.489  37.406  1.00  0.00     0.040 A 
HETATM   14  C15 UNK     1      17.926   0.761  37.700  1.00  0.00     0.098 A 
HETATM   15  C13 UNK     1      18.705   1.424  36.752  1.00  0.00     0.099 A 
HETATM   16  C9  UNK     1      18.944   0.835  35.510  1.00  0.00     0.049 A 
BRANCH  14  17
HETATM   17  O6  UNK     1      17.684   1.327  38.915  1.00  0.00    -0.358 OA
HETATM   18  H14 UNK     1      17.132   2.118  38.792  1.00  0.00     0.217 HD
ENDBRANCH  14  17
BRANCH  15  19
HETATM   19  O5  UNK     1      19.238   2.647  37.026  1.00  0.00    -0.358 OA
HETATM   20  H13 UNK     1      19.821   2.911  36.294  1.00  0.00     0.217 HD
ENDBRANCH  15  19
ENDBRANCH   3  11
BRANCH   2  21
HETATM   21  O2  UNK     1      19.821  -2.951  34.837  1.00  0.00    -0.392 OA
HETATM   22  H7  UNK     1      19.136  -2.685  35.475  1.00  0.00     0.210 HD
ENDBRANCH   2  21
BRANCH   7  23
HETATM   23  O3  UNK     1      21.005  -2.943  29.813  1.00  0.00    -0.360 OA
HETATM   24  H11 UNK     1      21.547  -2.807  29.016  1.00  0.00     0.217 HD
ENDBRANCH   7  23
BRANCH  10  25
HETATM   25  O4  UNK     1      19.249   1.236  28.364  1.00  0.00    -0.361 OA
HETATM   26  H12 UNK     1      18.299   1.438  28.317  1.00  0.00     0.217 HD
ENDBRANCH  10  25
TORSDOF 6
ENDMDL
MODEL 3
REMARK VINA RESULT:      -7.8      2.441      6.989
REMARK  6 active torsions:
REMARK  status: ('A' for Active; 'I' for Inactive)
REMARK    1  A    between atoms: C1_7  and  O2_2 
REMARK    2  A    between atoms: C7_13  and  O3_3 
REMARK    3  A    between atoms: C12_18  and  O4_4 
REMARK    4  A    between atoms: C13_19  and  O5_5 
REMARK    5  A    between atoms: C15_21  and  O6_6 
REMARK    6  A    between atoms: C2_8  and  C6_12 
ROOT
HETATM    1  O1  UNK     1      11.477   5.488   9.706  1.00  0.00    -0.338 OA
HETATM    2  C1  UNK     1      11.478   7.685   8.586  1.00  0.00     0.156 C 
HETATM    3  C2  UNK     1      12.192   6.343   8.800  1.00  0.00     0.191 C 
HETATM    4  C3  UNK     1      10.090   7.431   8.004  1.00  0.00     0.079 C 
HETATM    5  C4  UNK     1       9.402   6.308   8.719  1.00  0.00     0.011 A 
HETATM    6  C5  UNK     1      10.125   5.406   9.507  1.00  0.00     0.081 A 
HETATM    7  C7  UNK     1       8.018   6.134   8.578  1.00  0.00     0.077 A 
HETATM    8  C8  UNK     1       9.468   4.370  10.176  1.00  0.00     0.074 A 
HETATM    9  C11 UNK     1       7.365   5.092   9.236  1.00  0.00     0.073 A 
HETATM   10  C12 UNK     1       8.089   4.212  10.038  1.00  0.00     0.071 A 
ENDROOT
BRANCH   3  11
HETATM   11  C6  UNK     1      13.586   6.529   9.370  1.00  0.00    -0.024 A 
HETATM   12  C10 UNK     1      13.881   7.660  10.128  1.00  0.00     0.013 A 
HETATM   13  C14 UNK     1      15.163   7.830  10.652  1.00  0.00     0.040 A 
HETATM   14  C15 UNK     1      16.145   6.869  10.417  1.00  0.00     0.098 A 
HETATM   15  C13 UNK     1      15.848   5.738   9.658  1.00  0.00     0.099 A 
HETATM   16  C9  UNK     1      14.566   5.567   9.133  1.00  0.00     0.049 A 
BRANCH  14  17
HETATM   17  O6  UNK     1      17.393   7.048  10.933  1.00  0.00    -0.358 OA
HETATM   18  H14 UNK     1      17.327   7.144  11.898  1.00  0.00     0.217 HD
ENDBRANCH  14  17
BRANCH  15  19
HETATM   19  O5  UNK     1      16.799   4.792   9.421  1.00  0.00    -0.358 OA
HETATM   20  H13 UNK     1      17.679   5.194   9.524  1.00  0.00     0.217 HD
ENDBRANCH  15  19
ENDBRANCH   3  11
BRANCH   2  21
HETATM   21  O2  UNK     1      12.217   8.487   7.672  1.00  0.00    -0.392 OA
HETATM   22  H7  UNK     1      11.825   8.364   6.791  1.00  0.00     0.210 HD
ENDBRANCH   2  21
BRANCH   7  23
HETATM   23  O3  UNK     1       7.283   6.976   7.797  1.00  0.00    -0.360 OA
HETATM   24  H11 UNK     1       6.479   7.238   8.279  1.00  0.00     0.217 HD
ENDBRANCH   7  23
BRANCH  10  25
HETATM   25  O4  UNK     1       7.452   3.197  10.683  1.00  0.00    -0.361 OA
HETATM   26  H12 UNK     1       6.862   2.745  10.055  1.00  0.00     0.217 HD
ENDBRANCH  10  25
TORSDOF 6
ENDMDL
MODEL 4
REMARK VINA RESULT:      -7.8     23.528     25.581
REMARK  6 active torsions:
REMARK  status: ('A' for Active; 'I' for Inactive)
REMARK    1  A    between atoms: C1_7  and  O2_2 
REMARK    2  A    between atoms: C7_13  and  O3_3 
REMARK    3  A    between atoms: C12_18  and  O4_4 
REMARK    4  A    between atoms: C13_19  and  O5_5 
REMARK    5  A    between atoms: C15_21  and  O6_6 
REMARK    6  A    between atoms: C2_8  and  C6_12 
ROOT
HETATM    1  O1  UNK     1      16.464   7.713  32.052  1.00  0.00    -0.338 OA
HETATM    2  C1  UNK     1      18.420   7.788  33.552  1.00  0.00     0.156 C 
HETATM    3  C2  UNK     1      17.892   7.580  32.125  1.00  0.00     0.191 C 
HETATM    4  C3  UNK     1      18.048   9.189  34.029  1.00  0.00     0.079 C 
HETATM    5  C4  UNK     1      16.626   9.515  33.689  1.00  0.00     0.011 A 
HETATM    6  C5  UNK     1      15.928   8.778  32.726  1.00  0.00     0.081 A 
HETATM    7  C7  UNK     1      15.986  10.591  34.320  1.00  0.00     0.077 A 
HETATM    8  C8  UNK     1      14.599   9.088  32.427  1.00  0.00     0.074 A 
HETATM    9  C11 UNK     1      14.663  10.907  34.011  1.00  0.00     0.073 A 
HETATM   10  C12 UNK     1      13.968  10.153  33.068  1.00  0.00     0.071 A 
ENDROOT
BRANCH   3  11
HETATM   11  C6  UNK     1      18.240   6.204  31.588  1.00  0.00    -0.024 A 
HETATM   12  C10 UNK     1      18.953   6.083  30.398  1.00  0.00     0.013 A 
HETATM   13  C14 UNK     1      19.272   4.818  29.905  1.00  0.00     0.040 A 
HETATM   14  C15 UNK     1      18.878   3.678  30.603  1.00  0.00     0.098 A 
HETATM   15  C13 UNK     1      18.164   3.801  31.794  1.00  0.00     0.099 A 
HETATM   16  C9  UNK     1      17.844   5.066  32.288  1.00  0.00     0.049 A 
BRANCH  14  17
HETATM   17  O6  UNK     1      19.194   2.448  30.110  1.00  0.00    -0.358 OA
HETATM   18  H14 UNK     1      19.589   1.913  30.820  1.00  0.00     0.217 HD
ENDBRANCH  14  17
BRANCH  15  19
HETATM   19  O5  UNK     1      17.772   2.694  32.485  1.00  0.00    -0.358 OA
HETATM   20  H13 UNK     1      18.164   2.719  33.374  1.00  0.00     0.217 HD
ENDBRANCH  15  19
ENDBRANCH   3  11
BRANCH   2  21
HETATM   21  O2  UNK     1      19.838   7.661  33.567  1.00  0.00    -0.392 OA
HETATM   22  H7  UNK     1      20.212   8.540  33.386  1.00  0.00     0.210 HD
ENDBRANCH   2  21
BRANCH   7  23
HETATM   23  O3  UNK     1      16.641  11.350  35.244  1.00  0.00    -0.360 OA
HETATM   24  H11 UNK     1      16.017  11.606  35.946  1.00  0.00     0.217 HD
ENDBRANCH   7  23
BRANCH  10  25
HETATM   25  O4  UNK     1      12.676  10.459  32.769  1.00  0.00    -0.361 OA
HETATM   26  H12 UNK     1      12.649  11.333  32.342  1.00  0.00     0.217 HD
ENDBRANCH  10  25
TORSDOF 6
ENDMDL
MODEL 5
REMARK VINA RESULT:      -7.7     13.605     15.758
REMARK  6 active torsions:
REMARK  status: ('A' for Active; 'I' for Inactive)
REMARK    1  A    between atoms: C1_7  and  O2_2 
REMARK    2  A    between atoms: C7_13  and  O3_3 
REMARK    3  A    between atoms: C12_18  and  O4_4 
REMARK    4  A    between atoms: C13_19  and  O5_5 
REMARK    5  A    between atoms: C15_21  and  O6_6 
REMARK    6  A    between atoms: C2_8  and  C6_12 
ROOT
HETATM    1  O1  UNK     1      18.887  -1.124  17.591  1.00  0.00    -0.338 OA
HETATM    2  C1  UNK     1      19.549  -0.263  15.377  1.00  0.00     0.156 C 
HETATM    3  C2  UNK     1      18.684  -1.250  16.174  1.00  0.00     0.191 C 
HETATM    4  C3  UNK     1      19.193   1.164  15.783  1.00  0.00     0.079 C 
HETATM    5  C4  UNK     1      19.074   1.287  17.272  1.00  0.00     0.011 A 
HETATM    6  C5  UNK     1      18.917   0.155  18.078  1.00  0.00     0.081 A 
HETATM    7  C7  UNK     1      19.089   2.555  17.871  1.00  0.00     0.077 A 
HETATM    8  C8  UNK     1      18.817   0.286  19.465  1.00  0.00     0.074 A 
HETATM    9  C11 UNK     1      18.978   2.684  19.255  1.00  0.00     0.073 A 
HETATM   10  C12 UNK     1      18.845   1.550  20.053  1.00  0.00     0.071 A 
ENDROOT
BRANCH   3  11
HETATM   11  C6  UNK     1      18.985  -2.691  15.807  1.00  0.00    -0.024 A 
HETATM   12  C10 UNK     1      17.950  -3.541  15.427  1.00  0.00     0.013 A 
HETATM   13  C14 UNK     1      18.227  -4.866  15.090  1.00  0.00     0.040 A 
HETATM   14  C15 UNK     1      19.538  -5.337  15.133  1.00  0.00     0.098 A 
HETATM   15  C13 UNK     1      20.574  -4.484  15.515  1.00  0.00     0.099 A 
HETATM   16  C9  UNK     1      20.297  -3.159  15.853  1.00  0.00     0.049 A 
BRANCH  14  17
HETATM   17  O6  UNK     1      19.796  -6.633  14.803  1.00  0.00    -0.358 OA
HETATM   18  H14 UNK     1      20.266  -6.657  13.953  1.00  0.00     0.217 HD
ENDBRANCH  14  17
BRANCH  15  19
HETATM   19  O5  UNK     1      21.859  -4.933  15.562  1.00  0.00    -0.358 OA
HETATM   20  H13 UNK     1      22.461  -4.170  15.587  1.00  0.00     0.217 HD
ENDBRANCH  15  19
ENDBRANCH   3  11
BRANCH   2  21
HETATM   21  O2  UNK     1      19.301  -0.418  13.984  1.00  0.00    -0.392 OA
HETATM   22  H7  UNK     1      20.011   0.046  13.507  1.00  0.00     0.210 HD
ENDBRANCH   2  21
BRANCH   7  23
HETATM   23  O3  UNK     1      19.213   3.684  17.116  1.00  0.00    -0.360 OA
HETATM   24  H11 UNK     1      18.608   3.628  16.357  1.00  0.00     0.217 HD
ENDBRANCH   7  23
BRANCH  10  25
HETATM   25  O4  UNK     1      18.740   1.676  21.404  1.00  0.00    -0.361 OA
HETATM   26  H12 UNK     1      18.105   2.386  21.606  1.00  0.00     0.217 HD
ENDBRANCH  10  25
TORSDOF 6
ENDMDL
MODEL 6
REMARK VINA RESULT:      -7.6     23.764     25.486
REMARK  6 active torsions:
REMARK  status: ('A' for Active; 'I' for Inactive)
REMARK    1  A    between atoms: C1_7  and  O2_2 
REMARK    2  A    between atoms: C7_13  and  O3_3 
REMARK    3  A    between atoms: C12_18  and  O4_4 
REMARK    4  A    between atoms: C13_19  and  O5_5 
REMARK    5  A    between atoms: C15_21  and  O6_6 
REMARK    6  A    between atoms: C2_8  and  C6_12 
ROOT
HETATM    1  O1  UNK     1      16.813   6.007  31.994  1.00  0.00    -0.338 OA
HETATM    2  C1  UNK     1      19.056   6.252  32.991  1.00  0.00     0.156 C 
HETATM    3  C2  UNK     1      18.217   5.776  31.796  1.00  0.00     0.191 C 
HETATM    4  C3  UNK     1      18.844   7.750  33.191  1.00  0.00     0.079 C 
HETATM    5  C4  UNK     1      17.393   8.109  33.088  1.00  0.00     0.011 A 
HETATM    6  C5  UNK     1      16.476   7.237  32.493  1.00  0.00     0.081 A 
HETATM    7  C7  UNK     1      16.944   9.348  33.567  1.00  0.00     0.077 A 
HETATM    8  C8  UNK     1      15.124   7.581  32.414  1.00  0.00     0.074 A 
HETATM    9  C11 UNK     1      15.596   9.696  33.476  1.00  0.00     0.073 A 
HETATM   10  C12 UNK     1      14.686   8.811  32.903  1.00  0.00     0.071 A 
ENDROOT
BRANCH   3  11
HETATM   11  C6  UNK     1      18.392   4.291  31.538  1.00  0.00    -0.024 A 
HETATM   12  C10 UNK     1      18.787   3.847  30.279  1.00  0.00     0.013 A 
HETATM   13  C14 UNK     1      18.948   2.482  30.042  1.00  0.00     0.040 A 
HETATM   14  C15 UNK     1      18.714   1.565  31.065  1.00  0.00     0.098 A 
HETATM   15  C13 UNK     1      18.318   2.011  32.326  1.00  0.00     0.099 A 
HETATM   16  C9  UNK     1      18.156   3.377  32.563  1.00  0.00     0.049 A 
BRANCH  14  17
HETATM   17  O6  UNK     1      18.873   0.234  30.821  1.00  0.00    -0.358 OA
HETATM   18  H14 UNK     1      18.810  -0.252  31.661  1.00  0.00     0.217 HD
ENDBRANCH  14  17
BRANCH  15  19
HETATM   19  O5  UNK     1      18.084   1.125  33.333  1.00  0.00    -0.358 OA
HETATM   20  H13 UNK     1      18.921   0.694  33.577  1.00  0.00     0.217 HD
ENDBRANCH  15  19
ENDBRANCH   3  11
BRANCH   2  21
HETATM   21  O2  UNK     1      20.436   6.015  32.739  1.00  0.00    -0.392 OA
HETATM   22  H7  UNK     1      20.519   5.107  32.399  1.00  0.00     0.210 HD
ENDBRANCH   2  21
BRANCH   7  23
HETATM   23  O3  UNK     1      17.812  10.237  34.129  1.00  0.00    -0.360 OA
HETATM   24  H11 UNK     1      18.650   9.784  34.326  1.00  0.00     0.217 HD
ENDBRANCH   7  23
BRANCH  10  25
HETATM   25  O4  UNK     1      13.370   9.149  32.817  1.00  0.00    -0.361 OA
HETATM   26  H12 UNK     1      12.834   8.336  32.834  1.00  0.00     0.217 HD
ENDBRANCH  10  25
TORSDOF 6
ENDMDL
MODEL 7
REMARK VINA RESULT:      -7.6      1.534      6.985
REMARK  6 active torsions:
REMARK  status: ('A' for Active; 'I' for Inactive)
REMARK    1  A    between atoms: C1_7  and  O2_2 
REMARK    2  A    between atoms: C7_13  and  O3_3 
REMARK    3  A    between atoms: C12_18  and  O4_4 
REMARK    4  A    between atoms: C13_19  and  O5_5 
REMARK    5  A    between atoms: C15_21  and  O6_6 
REMARK    6  A    between atoms: C2_8  and  C6_12 
ROOT
HETATM    1  O1  UNK     1       8.029   7.145   9.969  1.00  0.00    -0.338 OA
HETATM    2  C1  UNK     1       7.258   4.877   9.381  1.00  0.00     0.156 C 
HETATM    3  C2  UNK     1       8.447   5.800   9.685  1.00  0.00     0.191 C 
HETATM    4  C3  UNK     1       6.326   4.841  10.589  1.00  0.00     0.079 C 
HETATM    5  C4  UNK     1       6.101   6.216  11.139  1.00  0.00     0.011 A 
HETATM    6  C5  UNK     1       6.959   7.272  10.814  1.00  0.00     0.081 A 
HETATM    7  C7  UNK     1       5.033   6.451  12.017  1.00  0.00     0.077 A 
HETATM    8  C8  UNK     1       6.729   8.550  11.327  1.00  0.00     0.074 A 
HETATM    9  C11 UNK     1       4.812   7.726  12.538  1.00  0.00     0.073 A 
HETATM   10  C12 UNK     1       5.658   8.776  12.190  1.00  0.00     0.071 A 
ENDROOT
BRANCH   3  11
HETATM   11  C6  UNK     1       9.419   5.872   8.523  1.00  0.00    -0.024 A 
HETATM   12  C10 UNK     1       8.994   6.366   7.292  1.00  0.00     0.013 A 
HETATM   13  C14 UNK     1       9.888   6.432   6.223  1.00  0.00     0.040 A 
HETATM   14  C15 UNK     1      11.205   6.005   6.389  1.00  0.00     0.098 A 
HETATM   15  C13 UNK     1      11.629   5.510   7.622  1.00  0.00     0.099 A 
HETATM   16  C9  UNK     1      10.735   5.443   8.691  1.00  0.00     0.049 A 
BRANCH  14  17
HETATM   17  O6  UNK     1      12.068   6.073   5.337  1.00  0.00    -0.358 OA
HETATM   18  H14 UNK     1      11.615   5.764   4.534  1.00  0.00     0.217 HD
ENDBRANCH  14  17
BRANCH  15  19
HETATM   19  O5  UNK     1      12.912   5.088   7.796  1.00  0.00    -0.358 OA
HETATM   20  H13 UNK     1      13.497   5.601   7.212  1.00  0.00     0.217 HD
ENDBRANCH  15  19
ENDBRANCH   3  11
BRANCH   2  21
HETATM   21  O2  UNK     1       7.724   3.557   9.122  1.00  0.00    -0.392 OA
HETATM   22  H7  UNK     1       8.337   3.317   9.839  1.00  0.00     0.210 HD
ENDBRANCH   2  21
BRANCH   7  23
HETATM   23  O3  UNK     1       4.190   5.442  12.380  1.00  0.00    -0.360 OA
HETATM   24  H11 UNK     1       3.282   5.787  12.429  1.00  0.00     0.217 HD
ENDBRANCH   7  23
BRANCH  10  25
HETATM   25  O4  UNK     1       5.441  10.022  12.695  1.00  0.00    -0.361 OA
HETATM   26  H12 UNK     1       4.534  10.066  13.044  1.00  0.00     0.217 HD
ENDBRANCH  10  25
TORSDOF 6
ENDMDL
MODEL 8
REMARK VINA RESULT:      -7.6      3.493      5.699
REMARK  6 active torsions:
REMARK  status: ('A' for Active; 'I' for Inactive)
REMARK    1  A    between atoms: C1_7  and  O2_2 
REMARK    2  A    between atoms: C7_13  and  O3_3 
REMARK    3  A    between atoms: C12_18  and  O4_4 
REMARK    4  A    between atoms: C13_19  and  O5_5 
REMARK    5  A    between atoms: C15_21  and  O6_6 
REMARK    6  A    between atoms: C2_8  and  C6_12 
ROOT
HETATM    1  O1  UNK     1      13.353   8.300   8.440  1.00  0.00    -0.338 OA
HETATM    2  C1  UNK     1      13.321   6.143   9.636  1.00  0.00     0.156 C 
HETATM    3  C2  UNK     1      12.940   6.925   8.371  1.00  0.00     0.191 C 
HETATM    4  C3  UNK     1      14.836   6.176   9.814  1.00  0.00     0.079 C 
HETATM    5  C4  UNK     1      15.377   7.554   9.579  1.00  0.00     0.011 A 
HETATM    6  C5  UNK     1      14.622   8.519   8.905  1.00  0.00     0.081 A 
HETATM    7  C7  UNK     1      16.670   7.879  10.013  1.00  0.00     0.077 A 
HETATM    8  C8  UNK     1      15.136   9.802   8.703  1.00  0.00     0.074 A 
HETATM    9  C11 UNK     1      17.187   9.157   9.800  1.00  0.00     0.073 A 
HETATM   10  C12 UNK     1      16.419  10.119   9.147  1.00  0.00     0.071 A 
ENDROOT
BRANCH   3  11
HETATM   11  C6  UNK     1      11.442   6.921   8.133  1.00  0.00    -0.024 A 
HETATM   12  C10 UNK     1      10.932   6.453   6.924  1.00  0.00     0.013 A 
HETATM   13  C14 UNK     1       9.555   6.449   6.706  1.00  0.00     0.040 A 
HETATM   14  C15 UNK     1       8.691   6.914   7.696  1.00  0.00     0.098 A 
HETATM   15  C13 UNK     1       9.202   7.384   8.905  1.00  0.00     0.099 A 
HETATM   16  C9  UNK     1      10.580   7.388   9.124  1.00  0.00     0.049 A 
BRANCH  14  17
HETATM   17  O6  UNK     1       7.347   6.907   7.469  1.00  0.00    -0.358 OA
HETATM   18  H14 UNK     1       7.170   7.308   6.601  1.00  0.00     0.217 HD
ENDBRANCH  14  17
BRANCH  15  19
HETATM   19  O5  UNK     1       8.369   7.842   9.880  1.00  0.00    -0.358 OA
HETATM   20  H13 UNK     1       8.525   7.335  10.695  1.00  0.00     0.217 HD
ENDBRANCH  15  19
ENDBRANCH   3  11
BRANCH   2  21
HETATM   21  O2  UNK     1      12.904   4.788   9.512  1.00  0.00    -0.392 OA
HETATM   22  H7  UNK     1      13.547   4.336   8.938  1.00  0.00     0.210 HD
ENDBRANCH   2  21
BRANCH   7  23
HETATM   23  O3  UNK     1      17.447   6.958  10.650  1.00  0.00    -0.360 OA
HETATM   24  H11 UNK     1      17.192   6.067  10.355  1.00  0.00     0.217 HD
ENDBRANCH   7  23
BRANCH  10  25
HETATM   25  O4  UNK     1      16.922  11.368   8.942  1.00  0.00    -0.361 OA
HETATM   26  H12 UNK     1      16.368  11.827   8.286  1.00  0.00     0.217 HD
ENDBRANCH  10  25
TORSDOF 6
ENDMDL
MODEL 9
REMARK VINA RESULT:      -7.6      2.845      4.598
REMARK  6 active torsions:
REMARK  status: ('A' for Active; 'I' for Inactive)
REMARK    1  A    between atoms: C1_7  and  O2_2 
REMARK    2  A    between atoms: C7_13  and  O3_3 
REMARK    3  A    between atoms: C12_18  and  O4_4 
REMARK    4  A    between atoms: C13_19  and  O5_5 
REMARK    5  A    between atoms: C15_21  and  O6_6 
REMARK    6  A    between atoms: C2_8  and  C6_12 
ROOT
HETATM    1  O1  UNK     1      12.838   7.645   9.175  1.00  0.00    -0.338 OA
HETATM    2  C1  UNK     1      12.595   5.191   9.136  1.00  0.00     0.156 C 
HETATM    3  C2  UNK     1      12.187   6.540   8.528  1.00  0.00     0.191 C 
HETATM    4  C3  UNK     1      14.103   5.006   8.989  1.00  0.00     0.079 C 
HETATM    5  C4  UNK     1      14.838   6.260   9.353  1.00  0.00     0.011 A 
HETATM    6  C5  UNK     1      14.178   7.491   9.413  1.00  0.00     0.081 A 
HETATM    7  C7  UNK     1      16.216   6.211   9.612  1.00  0.00     0.077 A 
HETATM    8  C8  UNK     1      14.876   8.649   9.764  1.00  0.00     0.074 A 
HETATM    9  C11 UNK     1      16.913   7.370   9.951  1.00  0.00     0.073 A 
HETATM   10  C12 UNK     1      16.242   8.589  10.031  1.00  0.00     0.071 A 
ENDROOT
BRANCH   3  11
HETATM   11  C6  UNK     1      10.692   6.779   8.635  1.00  0.00    -0.024 A 
HETATM   12  C10 UNK     1      10.217   7.980   9.156  1.00  0.00     0.013 A 
HETATM   13  C14 UNK     1       8.844   8.200   9.254  1.00  0.00     0.040 A 
HETATM   14  C15 UNK     1       7.949   7.219   8.830  1.00  0.00     0.098 A 
HETATM   15  C13 UNK     1       8.426   6.017   8.308  1.00  0.00     0.099 A 
HETATM   16  C9  UNK     1       9.800   5.796   8.210  1.00  0.00     0.049 A 
BRANCH  14  17
HETATM   17  O6  UNK     1       6.609   7.445   8.932  1.00  0.00    -0.358 OA
HETATM   18  H14 UNK     1       6.166   6.618   9.187  1.00  0.00     0.217 HD
ENDBRANCH  14  17
BRANCH  15  19
HETATM   19  O5  UNK     1       7.562   5.051   7.891  1.00  0.00    -0.358 OA
HETATM   20  H13 UNK     1       8.054   4.224   7.749  1.00  0.00     0.217 HD
ENDBRANCH  15  19
ENDBRANCH   3  11
BRANCH   2  21
HETATM   21  O2  UNK     1      11.935   4.131   8.452  1.00  0.00    -0.392 OA
HETATM   22  H7  UNK     1      12.090   3.315   8.958  1.00  0.00     0.210 HD
ENDBRANCH   2  21
BRANCH   7  23
HETATM   23  O3  UNK     1      16.900   5.034   9.538  1.00  0.00    -0.360 OA
HETATM   24  H11 UNK     1      17.641   5.134   8.915  1.00  0.00     0.217 HD
ENDBRANCH   7  23
BRANCH  10  25
HETATM   25  O4  UNK     1      16.922   9.720  10.365  1.00  0.00    -0.361 OA
HETATM   26  H12 UNK     1      16.498  10.124  11.142  1.00  0.00     0.217 HD
ENDBRANCH  10  25
TORSDOF 6
ENDMDL
MODEL 10
REMARK VINA RESULT:      -7.6      1.615      6.790
REMARK  6 active torsions:
REMARK  status: ('A' for Active; 'I' for Inactive)
REMARK    1  A    between atoms: C1_7  and  O2_2 
REMARK    2  A    between atoms: C7_13  and  O3_3 
REMARK    3  A    between atoms: C12_18  and  O4_4 
REMARK    4  A    between atoms: C13_19  and  O5_5 
REMARK    5  A    between atoms: C15_21  and  O6_6 
REMARK    6  A    between atoms: C2_8  and  C6_12 
ROOT
HETATM    1  O1  UNK     1       7.935   4.643   8.838  1.00  0.00    -0.338 OA
HETATM    2  C1  UNK     1       8.001   6.937   9.740  1.00  0.00     0.156 C 
HETATM    3  C2  UNK     1       8.121   6.029   8.508  1.00  0.00     0.191 C 
HETATM    4  C3  UNK     1       6.612   6.776  10.353  1.00  0.00     0.079 C 
HETATM    5  C4  UNK     1       6.221   5.332  10.432  1.00  0.00     0.011 A 
HETATM    6  C5  UNK     1       6.885   4.364   9.672  1.00  0.00     0.081 A 
HETATM    7  C7  UNK     1       5.155   4.942  11.254  1.00  0.00     0.077 A 
HETATM    8  C8  UNK     1       6.515   3.020   9.764  1.00  0.00     0.074 A 
HETATM    9  C11 UNK     1       4.779   3.601  11.336  1.00  0.00     0.073 A 
HETATM   10  C12 UNK     1       5.461   2.639  10.593  1.00  0.00     0.071 A 
ENDROOT
BRANCH   3  11
HETATM   11  C6  UNK     1       9.480   6.150   7.845  1.00  0.00    -0.024 A 
HETATM   12  C10 UNK     1       9.567   6.472   6.493  1.00  0.00     0.013 A 
HETATM   13  C14 UNK     1      10.817   6.584   5.884  1.00  0.00     0.040 A 
HETATM   14  C15 UNK     1      11.976   6.375   6.629  1.00  0.00     0.098 A 
HETATM   15  C13 UNK     1      11.888   6.052   7.983  1.00  0.00     0.099 A 
HETATM   16  C9  UNK     1      10.637   5.939   8.593  1.00  0.00     0.049 A 
BRANCH  14  17
HETATM   17  O6  UNK     1      13.191   6.485   6.023  1.00  0.00    -0.358 OA
HETATM   18  H14 UNK     1      13.504   7.402   6.105  1.00  0.00     0.217 HD
ENDBRANCH  14  17
BRANCH  15  19
HETATM   19  O5  UNK     1      13.013   5.843   8.721  1.00  0.00    -0.358 OA
HETATM   20  H13 UNK     1      13.756   6.315   8.308  1.00  0.00     0.217 HD
ENDBRANCH  15  19
ENDBRANCH   3  11
BRANCH   2  21
HETATM   21  O2  UNK     1       8.178   8.297   9.358  1.00  0.00    -0.392 OA
HETATM   22  H7  UNK     1       7.391   8.563   8.851  1.00  0.00     0.210 HD
ENDBRANCH   2  21
BRANCH   7  23
HETATM   23  O3  UNK     1       4.465   5.860  11.989  1.00  0.00    -0.360 OA
HETATM   24  H11 UNK     1       4.349   5.522  12.894  1.00  0.00     0.217 HD
ENDBRANCH   7  23
BRANCH  10  25
HETATM   25  O4  UNK     1       5.097   1.330  10.675  1.00  0.00    -0.361 OA
HETATM   26  H12 UNK     1       4.259   1.206  10.196  1.00  0.00     0.217 HD
ENDBRANCH  10  25
TORSDOF 6
ENDMDL
