MODEL 1
REMARK VINA RESULT:      -9.4      0.000      0.000
REMARK  6 active torsions:
REMARK  status: ('A' for Active; 'I' for Inactive)
REMARK    1  A    between atoms: C10_17  and  O1_2 
REMARK    2  A    between atoms: C12_19  and  O1_2 
REMARK       I    between atoms: C11_18  and  N1_7 
REMARK    3  A    between atoms: C9_16  and  N1_7 
REMARK    4  A    between atoms: C10_17  and  C8_15 
REMARK    5  A    between atoms: C11_18  and  C13_20 
REMARK    6  A    between atoms: C12_19  and  C14_21 
ROOT
HETATM    1  S1  UNK     1      18.164  -1.980  37.862  1.00  0.00    -0.075 SA
HETATM    2  C1  UNK     1      17.736   1.597  34.830  1.00  0.00     0.005 C 
HETATM    3  C2  UNK     1      17.163   2.375  36.018  1.00  0.00     0.001 C 
HETATM    4  C3  UNK     1      19.037   0.854  35.134  1.00  0.00     0.041 C 
HETATM    5  C4  UNK     1      16.599   1.512  37.152  1.00  0.00     0.005 C 
HETATM    6  C5  UNK     1      18.836  -0.380  35.958  1.00  0.00    -0.026 A 
HETATM    7  C6  UNK     1      17.658   0.758  37.956  1.00  0.00     0.046 C 
HETATM    8  C7  UNK     1      18.226  -0.403  37.200  1.00  0.00    -0.008 A 
HETATM    9  C8  UNK     1      19.252  -1.693  35.563  1.00  0.00     0.080 A 
HETATM   10  C9  UNK     1      18.947  -2.651  36.504  1.00  0.00     0.094 A 
ENDROOT
BRANCH  10  11
HETATM   11  N1  UNK     1      19.165  -4.002  36.524  1.00  0.00    -0.316 N 
HETATM   12  C11 UNK     1      20.342  -4.653  36.916  1.00  0.00     0.262 C 
HETATM   13  O3  UNK     1      21.392  -4.161  37.309  1.00  0.00    -0.267 OA
HETATM   14  H11 UNK     1      18.370  -4.566  36.236  1.00  0.00     0.169 HD
BRANCH  12  15
HETATM   15  C13 UNK     1      20.234  -6.125  36.814  1.00  0.00     0.108 A 
HETATM   16  C15 UNK     1      20.021  -6.782  37.960  1.00  0.00     0.037 A 
HETATM   17  C16 UNK     1      19.900  -8.232  37.962  1.00  0.00    -0.001 A 
HETATM   18  C18 UNK     1      20.008  -8.918  36.756  1.00  0.00     0.089 A 
HETATM   19  C20 UNK     1      19.677  -8.959  39.134  1.00  0.00     0.014 A 
HETATM   20  O4  UNK     1      20.233  -8.220  35.554  1.00  0.00    -0.274 OA
HETATM   21  C21 UNK     1      19.903 -10.306  36.690  1.00  0.00     0.038 A 
HETATM   22  C17 UNK     1      20.352  -6.834  35.520  1.00  0.00     0.304 A 
HETATM   23  O5  UNK     1      20.548  -6.234  34.468  1.00  0.00    -0.259 OA
HETATM   24  C23 UNK     1      19.681 -11.024  37.863  1.00  0.00     0.003 A 
HETATM   25  C22 UNK     1      19.569 -10.352  39.082  1.00  0.00     0.001 A 
ENDBRANCH  12  15
ENDBRANCH  10  11
BRANCH   9  26
HETATM   26  C10 UNK     1      19.919  -2.031  34.329  1.00  0.00     0.296 C 
HETATM   27  O2  UNK     1      21.064  -2.503  34.270  1.00  0.00    -0.259 OA
BRANCH  26  28
HETATM   28  O1  UNK     1      19.167  -1.782  33.202  1.00  0.00    -0.317 OA
BRANCH  28  29
HETATM   29  C12 UNK     1      19.875  -1.691  31.961  1.00  0.00     0.178 C 
BRANCH  29  30
HETATM   30  C14 UNK     1      19.596  -0.334  31.333  1.00  0.00     0.022 C 
HETATM   31  C19 UNK     1      20.425  -0.109  30.081  1.00  0.00     0.007 C 
ENDBRANCH  29  30
ENDBRANCH  28  29
ENDBRANCH  26  28
ENDBRANCH   9  26
TORSDOF 6
ENDMDL
MODEL 2
REMARK VINA RESULT:      -8.8      2.141      8.251
REMARK  6 active torsions:
REMARK  status: ('A' for Active; 'I' for Inactive)
REMARK    1  A    between atoms: C10_17  and  O1_2 
REMARK    2  A    between atoms: C12_19  and  O1_2 
REMARK       I    between atoms: C11_18  and  N1_7 
REMARK    3  A    between atoms: C9_16  and  N1_7 
REMARK    4  A    between atoms: C10_17  and  C8_15 
REMARK    5  A    between atoms: C11_18  and  C13_20 
REMARK    6  A    between atoms: C12_19  and  C14_21 
ROOT
HETATM    1  S1  UNK     1      21.546  -4.795  37.801  1.00  0.00    -0.075 SA
HETATM    2  C1  UNK     1      20.299  -9.209  38.866  1.00  0.00     0.005 C 
HETATM    3  C2  UNK     1      21.428  -9.148  39.899  1.00  0.00     0.001 C 
HETATM    4  C3  UNK     1      19.361  -8.001  38.890  1.00  0.00     0.041 C 
HETATM    5  C4  UNK     1      22.508  -8.097  39.623  1.00  0.00     0.005 C 
HETATM    6  C5  UNK     1      19.965  -6.771  38.286  1.00  0.00    -0.026 A 
HETATM    7  C6  UNK     1      22.044  -6.653  39.816  1.00  0.00     0.046 C 
HETATM    8  C7  UNK     1      21.149  -6.191  38.709  1.00  0.00    -0.008 A 
HETATM    9  C8  UNK     1      19.391  -6.039  37.196  1.00  0.00     0.080 A 
HETATM   10  C9  UNK     1      20.148  -4.947  36.835  1.00  0.00     0.094 A 
ENDROOT
BRANCH  10  11
HETATM   11  N1  UNK     1      19.964  -4.000  35.864  1.00  0.00    -0.316 N 
HETATM   12  C11 UNK     1      19.605  -2.660  36.061  1.00  0.00     0.262 C 
HETATM   13  O3  UNK     1      19.385  -2.076  37.114  1.00  0.00    -0.267 OA
HETATM   14  H11 UNK     1      20.128  -4.325  34.915  1.00  0.00     0.169 HD
BRANCH  12  15
HETATM   15  C13 UNK     1      19.492  -1.913  34.789  1.00  0.00     0.108 A 
HETATM   16  C15 UNK     1      20.105  -2.454  33.730  1.00  0.00     0.037 A 
HETATM   17  C16 UNK     1      20.050  -1.794  32.435  1.00  0.00    -0.001 A 
HETATM   18  C18 UNK     1      19.352  -0.596  32.319  1.00  0.00     0.089 A 
HETATM   19  C20 UNK     1      20.675  -2.323  31.302  1.00  0.00     0.014 A 
HETATM   20  O4  UNK     1      18.710  -0.031  33.438  1.00  0.00    -0.274 OA
HETATM   21  C21 UNK     1      19.263   0.087  31.108  1.00  0.00     0.038 A 
HETATM   22  C17 UNK     1      18.744  -0.640  34.689  1.00  0.00     0.304 A 
HETATM   23  O5  UNK     1      18.182  -0.141  35.658  1.00  0.00    -0.259 OA
HETATM   24  C23 UNK     1      19.889  -0.447  29.983  1.00  0.00     0.003 A 
HETATM   25  C22 UNK     1      20.593  -1.649  30.080  1.00  0.00     0.001 A 
ENDBRANCH  12  15
ENDBRANCH  10  11
BRANCH   9  26
HETATM   26  C10 UNK     1      18.161  -6.365  36.516  1.00  0.00     0.296 C 
HETATM   27  O2  UNK     1      17.035  -6.158  36.991  1.00  0.00    -0.259 OA
BRANCH  26  28
HETATM   28  O1  UNK     1      18.344  -6.935  35.275  1.00  0.00    -0.317 OA
BRANCH  28  29
HETATM   29  C12 UNK     1      19.096  -8.152  35.229  1.00  0.00     0.178 C 
BRANCH  29  30
HETATM   30  C14 UNK     1      20.505  -7.841  34.746  1.00  0.00     0.022 C 
HETATM   31  C19 UNK     1      21.542  -8.715  35.428  1.00  0.00     0.007 C 
ENDBRANCH  29  30
ENDBRANCH  28  29
ENDBRANCH  26  28
ENDBRANCH   9  26
TORSDOF 6
ENDMDL
MODEL 3
REMARK VINA RESULT:      -8.4      7.476      9.805
REMARK  6 active torsions:
REMARK  status: ('A' for Active; 'I' for Inactive)
REMARK    1  A    between atoms: C10_17  and  O1_2 
REMARK    2  A    between atoms: C12_19  and  O1_2 
REMARK       I    between atoms: C11_18  and  N1_7 
REMARK    3  A    between atoms: C9_16  and  N1_7 
REMARK    4  A    between atoms: C10_17  and  C8_15 
REMARK    5  A    between atoms: C11_18  and  C13_20 
REMARK    6  A    between atoms: C12_19  and  C14_21 
ROOT
HETATM    1  S1  UNK     1      15.830   6.178  32.036  1.00  0.00    -0.075 SA
HETATM    2  C1  UNK     1      17.446  10.145  33.992  1.00  0.00     0.005 C 
HETATM    3  C2  UNK     1      15.994  10.626  33.922  1.00  0.00     0.001 C 
HETATM    4  C3  UNK     1      17.616   8.743  34.580  1.00  0.00     0.041 C 
HETATM    5  C4  UNK     1      15.118   9.909  32.890  1.00  0.00     0.005 C 
HETATM    6  C5  UNK     1      17.208   7.653  33.638  1.00  0.00    -0.026 A 
HETATM    7  C6  UNK     1      14.784   8.460  33.247  1.00  0.00     0.046 C 
HETATM    8  C7  UNK     1      15.955   7.545  33.060  1.00  0.00    -0.008 A 
HETATM    9  C8  UNK     1      18.065   6.584  33.218  1.00  0.00     0.080 A 
HETATM   10  C9  UNK     1      17.442   5.716  32.349  1.00  0.00     0.094 A 
ENDROOT
BRANCH  10  11
HETATM   11  N1  UNK     1      17.891   4.585  31.723  1.00  0.00    -0.316 N 
HETATM   12  C11 UNK     1      18.063   3.321  32.302  1.00  0.00     0.262 C 
HETATM   13  O3  UNK     1      17.854   2.977  33.459  1.00  0.00    -0.267 OA
HETATM   14  H11 UNK     1      18.097   4.699  30.734  1.00  0.00     0.169 HD
BRANCH  12  15
HETATM   15  C13 UNK     1      18.566   2.321  31.336  1.00  0.00     0.108 A 
HETATM   16  C15 UNK     1      18.945   1.144  31.847  1.00  0.00     0.037 A 
HETATM   17  C16 UNK     1      19.453   0.096  30.976  1.00  0.00    -0.001 A 
HETATM   18  C18 UNK     1      19.538   0.339  29.608  1.00  0.00     0.089 A 
HETATM   19  C20 UNK     1      19.860  -1.148  31.465  1.00  0.00     0.014 A 
HETATM   20  O4  UNK     1      19.138   1.581  29.077  1.00  0.00    -0.274 OA
HETATM   21  C21 UNK     1      20.017  -0.622  28.720  1.00  0.00     0.038 A 
HETATM   22  C17 UNK     1      18.647   2.602  29.885  1.00  0.00     0.304 A 
HETATM   23  O5  UNK     1      18.301   3.680  29.413  1.00  0.00    -0.259 OA
HETATM   24  C23 UNK     1      20.420  -1.859  29.216  1.00  0.00     0.003 A 
HETATM   25  C22 UNK     1      20.342  -2.122  30.586  1.00  0.00     0.001 A 
ENDBRANCH  12  15
ENDBRANCH  10  11
BRANCH   9  26
HETATM   26  C10 UNK     1      19.435   6.391  33.628  1.00  0.00     0.296 C 
HETATM   27  O2  UNK     1      19.767   5.816  34.674  1.00  0.00    -0.259 OA
BRANCH  26  28
HETATM   28  O1  UNK     1      20.359   6.907  32.745  1.00  0.00    -0.317 OA
BRANCH  28  29
HETATM   29  C12 UNK     1      21.602   6.206  32.632  1.00  0.00     0.178 C 
BRANCH  29  30
HETATM   30  C14 UNK     1      21.853   5.885  31.166  1.00  0.00     0.022 C 
HETATM   31  C19 UNK     1      20.576   5.945  30.347  1.00  0.00     0.007 C 
ENDBRANCH  29  30
ENDBRANCH  28  29
ENDBRANCH  26  28
ENDBRANCH   9  26
TORSDOF 6
ENDMDL
MODEL 4
REMARK VINA RESULT:      -8.3     28.438     31.149
REMARK  6 active torsions:
REMARK  status: ('A' for Active; 'I' for Inactive)
REMARK    1  A    between atoms: C10_17  and  O1_2 
REMARK    2  A    between atoms: C12_19  and  O1_2 
REMARK       I    between atoms: C11_18  and  N1_7 
REMARK    3  A    between atoms: C9_16  and  N1_7 
REMARK    4  A    between atoms: C10_17  and  C8_15 
REMARK    5  A    between atoms: C11_18  and  C13_20 
REMARK    6  A    between atoms: C12_19  and  C14_21 
ROOT
HETATM    1  S1  UNK     1      10.450   9.193   9.744  1.00  0.00    -0.075 SA
HETATM    2  C1  UNK     1       8.049   5.207   9.029  1.00  0.00     0.005 C 
HETATM    3  C2  UNK     1       6.896   5.917   9.743  1.00  0.00     0.001 C 
HETATM    4  C3  UNK     1       8.717   6.039   7.933  1.00  0.00     0.041 C 
HETATM    5  C4  UNK     1       7.309   7.081  10.649  1.00  0.00     0.005 C 
HETATM    6  C5  UNK     1       9.600   7.122   8.468  1.00  0.00    -0.026 A 
HETATM    7  C6  UNK     1       7.811   8.316   9.900  1.00  0.00     0.046 C 
HETATM    8  C7  UNK     1       9.183   8.118   9.334  1.00  0.00    -0.008 A 
HETATM    9  C8  UNK     1      10.990   7.265   8.148  1.00  0.00     0.080 A 
HETATM   10  C9  UNK     1      11.569   8.346   8.774  1.00  0.00     0.094 A 
ENDROOT
BRANCH  10  11
HETATM   11  N1  UNK     1      12.848   8.833   8.742  1.00  0.00    -0.316 N 
HETATM   12  C11 UNK     1      13.828   8.675   9.731  1.00  0.00     0.262 C 
HETATM   13  O3  UNK     1      13.744   8.087  10.802  1.00  0.00    -0.267 OA
HETATM   14  H11 UNK     1      13.089   9.341   7.895  1.00  0.00     0.169 HD
BRANCH  12  15
HETATM   15  C13 UNK     1      15.103   9.332   9.372  1.00  0.00     0.108 A 
HETATM   16  C15 UNK     1      15.011  10.421   8.600  1.00  0.00     0.037 A 
HETATM   17  C16 UNK     1      16.210  11.137   8.194  1.00  0.00    -0.001 A 
HETATM   18  C18 UNK     1      17.449  10.670   8.621  1.00  0.00     0.089 A 
HETATM   19  C20 UNK     1      16.160  12.278   7.390  1.00  0.00     0.014 A 
HETATM   20  O4  UNK     1      17.541   9.522   9.432  1.00  0.00    -0.274 OA
HETATM   21  C21 UNK     1      18.636  11.308   8.266  1.00  0.00     0.038 A 
HETATM   22  C17 UNK     1      16.411   8.817   9.837  1.00  0.00     0.304 A 
HETATM   23  O5  UNK     1      16.500   7.819  10.544  1.00  0.00    -0.259 OA
HETATM   24  C23 UNK     1      18.578  12.445   7.464  1.00  0.00     0.003 A 
HETATM   25  C22 UNK     1      17.343  12.930   7.026  1.00  0.00     0.001 A 
ENDBRANCH  12  15
ENDBRANCH  10  11
BRANCH   9  26
HETATM   26  C10 UNK     1      11.747   6.401   7.275  1.00  0.00     0.296 C 
HETATM   27  O2  UNK     1      12.187   6.751   6.171  1.00  0.00    -0.259 OA
BRANCH  26  28
HETATM   28  O1  UNK     1      11.946   5.134   7.779  1.00  0.00    -0.317 OA
BRANCH  28  29
HETATM   29  C12 UNK     1      12.700   5.034   8.992  1.00  0.00     0.178 C 
BRANCH  29  30
HETATM   30  C14 UNK     1      14.173   5.247   8.674  1.00  0.00     0.022 C 
HETATM   31  C19 UNK     1      15.069   4.783   9.808  1.00  0.00     0.007 C 
ENDBRANCH  29  30
ENDBRANCH  28  29
ENDBRANCH  26  28
ENDBRANCH   9  26
TORSDOF 6
ENDMDL
MODEL 5
REMARK VINA RESULT:      -8.3      5.644     11.620
REMARK  6 active torsions:
REMARK  status: ('A' for Active; 'I' for Inactive)
REMARK    1  A    between atoms: C10_17  and  O1_2 
REMARK    2  A    between atoms: C12_19  and  O1_2 
REMARK       I    between atoms: C11_18  and  N1_7 
REMARK    3  A    between atoms: C9_16  and  N1_7 
REMARK    4  A    between atoms: C10_17  and  C8_15 
REMARK    5  A    between atoms: C11_18  and  C13_20 
REMARK    6  A    between atoms: C12_19  and  C14_21 
ROOT
HETATM    1  S1  UNK     1      18.460   1.975  35.449  1.00  0.00    -0.075 SA
HETATM    2  C1  UNK     1      19.858  -1.677  32.826  1.00  0.00     0.005 C 
HETATM    3  C2  UNK     1      19.899  -2.452  34.146  1.00  0.00     0.001 C 
HETATM    4  C3  UNK     1      18.572  -0.879  32.606  1.00  0.00     0.041 C 
HETATM    5  C4  UNK     1      20.025  -1.589  35.405  1.00  0.00     0.005 C 
HETATM    6  C5  UNK     1      18.497   0.363  33.439  1.00  0.00    -0.026 A 
HETATM    7  C6  UNK     1      18.773  -0.778  35.741  1.00  0.00     0.046 C 
HETATM    8  C7  UNK     1      18.587   0.388  34.820  1.00  0.00    -0.008 A 
HETATM    9  C8  UNK     1      18.320   1.683  32.909  1.00  0.00     0.080 A 
HETATM   10  C9  UNK     1      18.284   2.647  33.890  1.00  0.00     0.094 A 
ENDROOT
BRANCH  10  11
HETATM   11  N1  UNK     1      18.133   4.006  33.820  1.00  0.00    -0.316 N 
HETATM   12  C11 UNK     1      18.828   4.882  32.976  1.00  0.00     0.262 C 
HETATM   13  O3  UNK     1      19.694   4.620  32.151  1.00  0.00    -0.267 OA
HETATM   14  H11 UNK     1      17.426   4.388  34.442  1.00  0.00     0.169 HD
BRANCH  12  15
HETATM   15  C13 UNK     1      18.416   6.290  33.161  1.00  0.00     0.108 A 
HETATM   16  C15 UNK     1      19.345   7.119  33.650  1.00  0.00     0.037 A 
HETATM   17  C16 UNK     1      19.035   8.523  33.866  1.00  0.00    -0.001 A 
HETATM   18  C18 UNK     1      17.760   8.986  33.557  1.00  0.00     0.089 A 
HETATM   19  C20 UNK     1      19.974   9.424  34.375  1.00  0.00     0.014 A 
HETATM   20  O4  UNK     1      16.785   8.109  33.043  1.00  0.00    -0.274 OA
HETATM   21  C21 UNK     1      17.398  10.319  33.742  1.00  0.00     0.038 A 
HETATM   22  C17 UNK     1      17.053   6.760  32.825  1.00  0.00     0.304 A 
HETATM   23  O5  UNK     1      16.199   6.003  32.377  1.00  0.00    -0.259 OA
HETATM   24  C23 UNK     1      18.340  11.211  34.249  1.00  0.00     0.003 A 
HETATM   25  C22 UNK     1      19.625  10.765  34.565  1.00  0.00     0.001 A 
ENDBRANCH  12  15
ENDBRANCH  10  11
BRANCH   9  26
HETATM   26  C10 UNK     1      18.190   2.020  31.512  1.00  0.00     0.296 C 
HETATM   27  O2  UNK     1      17.220   2.628  31.037  1.00  0.00    -0.259 OA
BRANCH  26  28
HETATM   28  O1  UNK     1      19.250   1.604  30.736  1.00  0.00    -0.317 OA
BRANCH  28  29
HETATM   29  C12 UNK     1      19.049   1.600  29.319  1.00  0.00     0.178 C 
BRANCH  29  30
HETATM   30  C14 UNK     1      19.330   0.202  28.787  1.00  0.00     0.022 C 
HETATM   31  C19 UNK     1      20.597  -0.385  29.381  1.00  0.00     0.007 C 
ENDBRANCH  29  30
ENDBRANCH  28  29
ENDBRANCH  26  28
ENDBRANCH   9  26
TORSDOF 6
ENDMDL
MODEL 6
REMARK VINA RESULT:      -8.2     18.624     23.396
REMARK  6 active torsions:
REMARK  status: ('A' for Active; 'I' for Inactive)
REMARK    1  A    between atoms: C10_17  and  O1_2 
REMARK    2  A    between atoms: C12_19  and  O1_2 
REMARK       I    between atoms: C11_18  and  N1_7 
REMARK    3  A    between atoms: C9_16  and  N1_7 
REMARK    4  A    between atoms: C10_17  and  C8_15 
REMARK    5  A    between atoms: C11_18  and  C13_20 
REMARK    6  A    between atoms: C12_19  and  C14_21 
ROOT
HETATM    1  S1  UNK     1      20.570  -5.459  14.406  1.00  0.00    -0.075 SA
HETATM    2  C1  UNK     1      21.183  -7.056  10.018  1.00  0.00     0.005 C 
HETATM    3  C2  UNK     1      21.603  -8.368  10.686  1.00  0.00     0.001 C 
HETATM    4  C3  UNK     1      19.883  -6.462  10.564  1.00  0.00     0.041 C 
HETATM    5  C4  UNK     1      22.078  -8.239  12.137  1.00  0.00     0.005 C 
HETATM    6  C5  UNK     1      20.042  -5.828  11.911  1.00  0.00    -0.026 A 
HETATM    7  C6  UNK     1      20.968  -7.906  13.135  1.00  0.00     0.046 C 
HETATM    8  C7  UNK     1      20.522  -6.481  13.033  1.00  0.00    -0.008 A 
HETATM    9  C8  UNK     1      19.714  -4.464  12.207  1.00  0.00     0.080 A 
HETATM   10  C9  UNK     1      19.954  -4.136  13.522  1.00  0.00     0.094 A 
ENDROOT
BRANCH  10  11
HETATM   11  N1  UNK     1      19.782  -2.964  14.209  1.00  0.00    -0.316 N 
HETATM   12  C11 UNK     1      18.805  -2.698  15.177  1.00  0.00     0.262 C 
HETATM   13  O3  UNK     1      17.926  -3.440  15.597  1.00  0.00    -0.267 OA
HETATM   14  H11 UNK     1      20.455  -2.237  13.984  1.00  0.00     0.169 HD
BRANCH  12  15
HETATM   15  C13 UNK     1      18.906  -1.326  15.719  1.00  0.00     0.108 A 
HETATM   16  C15 UNK     1      18.762  -1.200  17.043  1.00  0.00     0.037 A 
HETATM   17  C16 UNK     1      18.845   0.109  17.669  1.00  0.00    -0.001 A 
HETATM   18  C18 UNK     1      19.077   1.225  16.869  1.00  0.00     0.089 A 
HETATM   19  C20 UNK     1      18.701   0.287  19.048  1.00  0.00     0.014 A 
HETATM   20  O4  UNK     1      19.227   1.086  15.476  1.00  0.00    -0.274 OA
HETATM   21  C21 UNK     1      19.167   2.507  17.407  1.00  0.00     0.038 A 
HETATM   22  C17 UNK     1      19.153  -0.154  14.848  1.00  0.00     0.304 A 
HETATM   23  O5  UNK     1      19.285  -0.265  13.634  1.00  0.00    -0.259 OA
HETATM   24  C23 UNK     1      19.022   2.675  18.782  1.00  0.00     0.003 A 
HETATM   25  C22 UNK     1      18.789   1.568  19.601  1.00  0.00     0.001 A 
ENDBRANCH  12  15
ENDBRANCH  10  11
BRANCH   9  26
HETATM   26  C10 UNK     1      19.189  -3.501  11.270  1.00  0.00     0.296 C 
HETATM   27  O2  UNK     1      18.198  -3.703  10.555  1.00  0.00    -0.259 OA
BRANCH  26  28
HETATM   28  O1  UNK     1      19.892  -2.316  11.236  1.00  0.00    -0.317 OA
BRANCH  28  29
HETATM   29  C12 UNK     1      21.172  -2.344  10.595  1.00  0.00     0.178 C 
BRANCH  29  30
HETATM   30  C14 UNK     1      21.026  -3.010   9.235  1.00  0.00     0.022 C 
HETATM   31  C19 UNK     1      22.370  -3.217   8.560  1.00  0.00     0.007 C 
ENDBRANCH  29  30
ENDBRANCH  28  29
ENDBRANCH  26  28
ENDBRANCH   9  26
TORSDOF 6
ENDMDL
MODEL 7
REMARK VINA RESULT:      -8.2      7.081     11.955
REMARK  6 active torsions:
REMARK  status: ('A' for Active; 'I' for Inactive)
REMARK    1  A    between atoms: C10_17  and  O1_2 
REMARK    2  A    between atoms: C12_19  and  O1_2 
REMARK       I    between atoms: C11_18  and  N1_7 
REMARK    3  A    between atoms: C9_16  and  N1_7 
REMARK    4  A    between atoms: C10_17  and  C8_15 
REMARK    5  A    between atoms: C11_18  and  C13_20 
REMARK    6  A    between atoms: C12_19  and  C14_21 
ROOT
HETATM    1  S1  UNK     1      18.319   1.496  33.113  1.00  0.00    -0.075 SA
HETATM    2  C1  UNK     1      20.618  -0.667  29.619  1.00  0.00     0.005 C 
HETATM    3  C2  UNK     1      20.570  -1.905  30.518  1.00  0.00     0.001 C 
HETATM    4  C3  UNK     1      19.278   0.056  29.474  1.00  0.00     0.041 C 
HETATM    5  C4  UNK     1      20.375  -1.620  32.011  1.00  0.00     0.005 C 
HETATM    6  C5  UNK     1      18.896   0.845  30.687  1.00  0.00    -0.026 A 
HETATM    7  C6  UNK     1      18.981  -1.108  32.377  1.00  0.00     0.046 C 
HETATM    8  C7  UNK     1      18.770   0.314  31.959  1.00  0.00    -0.008 A 
HETATM    9  C8  UNK     1      18.612   2.250  30.683  1.00  0.00     0.080 A 
HETATM   10  C9  UNK     1      18.286   2.728  31.933  1.00  0.00     0.094 A 
ENDROOT
BRANCH  10  11
HETATM   11  N1  UNK     1      17.951   3.983  32.362  1.00  0.00    -0.316 N 
HETATM   12  C11 UNK     1      18.351   4.592  33.559  1.00  0.00     0.262 C 
HETATM   13  O3  UNK     1      19.062   4.137  34.446  1.00  0.00    -0.267 OA
HETATM   14  H11 UNK     1      17.367   4.511  31.720  1.00  0.00     0.169 HD
BRANCH  12  15
HETATM   15  C13 UNK     1      17.804   5.958  33.708  1.00  0.00     0.108 A 
HETATM   16  C15 UNK     1      16.539   6.135  33.311  1.00  0.00     0.037 A 
HETATM   17  C16 UNK     1      15.913   7.443  33.418  1.00  0.00    -0.001 A 
HETATM   18  C18 UNK     1      16.651   8.503  33.938  1.00  0.00     0.089 A 
HETATM   19  C20 UNK     1      14.594   7.674  33.017  1.00  0.00     0.014 A 
HETATM   20  O4  UNK     1      17.983   8.310  34.353  1.00  0.00    -0.274 OA
HETATM   21  C21 UNK     1      16.111   9.781  34.065  1.00  0.00     0.038 A 
HETATM   22  C17 UNK     1      18.609   7.070  34.263  1.00  0.00     0.304 A 
HETATM   23  O5  UNK     1      19.769   6.911  34.627  1.00  0.00    -0.259 OA
HETATM   24  C23 UNK     1      14.796  10.002  33.663  1.00  0.00     0.003 A 
HETATM   25  C22 UNK     1      14.039   8.951  33.140  1.00  0.00     0.001 A 
ENDBRANCH  12  15
ENDBRANCH  10  11
BRANCH   9  26
HETATM   26  C10 UNK     1      18.648   3.114  29.528  1.00  0.00     0.296 C 
HETATM   27  O2  UNK     1      18.017   2.896  28.484  1.00  0.00    -0.259 OA
BRANCH  26  28
HETATM   28  O1  UNK     1      19.455   4.220  29.684  1.00  0.00    -0.317 OA
BRANCH  28  29
HETATM   29  C12 UNK     1      18.823   5.500  29.568  1.00  0.00     0.178 C 
BRANCH  29  30
HETATM   30  C14 UNK     1      19.460   6.454  30.567  1.00  0.00     0.022 C 
HETATM   31  C19 UNK     1      20.748   5.894  31.143  1.00  0.00     0.007 C 
ENDBRANCH  29  30
ENDBRANCH  28  29
ENDBRANCH  26  28
ENDBRANCH   9  26
TORSDOF 6
ENDMDL
MODEL 8
REMARK VINA RESULT:      -8.2      8.948     11.444
REMARK  6 active torsions:
REMARK  status: ('A' for Active; 'I' for Inactive)
REMARK    1  A    between atoms: C10_17  and  O1_2 
REMARK    2  A    between atoms: C12_19  and  O1_2 
REMARK       I    between atoms: C11_18  and  N1_7 
REMARK    3  A    between atoms: C9_16  and  N1_7 
REMARK    4  A    between atoms: C10_17  and  C8_15 
REMARK    5  A    between atoms: C11_18  and  C13_20 
REMARK    6  A    between atoms: C12_19  and  C14_21 
ROOT
HETATM    1  S1  UNK     1      29.259  -5.572  38.171  1.00  0.00    -0.075 SA
HETATM    2  C1  UNK     1      33.477  -7.395  37.142  1.00  0.00     0.005 C 
HETATM    3  C2  UNK     1      34.016  -5.989  37.420  1.00  0.00     0.001 C 
HETATM    4  C3  UNK     1      32.528  -7.928  38.217  1.00  0.00     0.041 C 
HETATM    5  C4  UNK     1      32.986  -4.861  37.303  1.00  0.00     0.005 C 
HETATM    6  C5  UNK     1      31.169  -7.302  38.169  1.00  0.00    -0.026 A 
HETATM    7  C6  UNK     1      31.938  -4.848  38.416  1.00  0.00     0.046 C 
HETATM    8  C7  UNK     1      30.928  -5.942  38.259  1.00  0.00    -0.008 A 
HETATM    9  C8  UNK     1      29.945  -8.035  38.026  1.00  0.00     0.080 A 
HETATM   10  C9  UNK     1      28.837  -7.218  38.012  1.00  0.00     0.094 A 
ENDROOT
BRANCH  10  11
HETATM   11  N1  UNK     1      27.503  -7.503  37.897  1.00  0.00    -0.316 N 
HETATM   12  C11 UNK     1      26.719  -8.218  38.812  1.00  0.00     0.262 C 
HETATM   13  O3  UNK     1      27.058  -8.724  39.874  1.00  0.00    -0.267 OA
HETATM   14  H11 UNK     1      27.059  -7.132  37.062  1.00  0.00     0.169 HD
BRANCH  12  15
HETATM   15  C13 UNK     1      25.313  -8.343  38.374  1.00  0.00     0.108 A 
HETATM   16  C15 UNK     1      24.407  -7.672  39.095  1.00  0.00     0.037 A 
HETATM   17  C16 UNK     1      22.998  -7.731  38.742  1.00  0.00    -0.001 A 
HETATM   18  C18 UNK     1      22.610  -8.495  37.645  1.00  0.00     0.089 A 
HETATM   19  C20 UNK     1      22.018  -7.047  39.467  1.00  0.00     0.014 A 
HETATM   20  O4  UNK     1      23.568  -9.200  36.890  1.00  0.00    -0.274 OA
HETATM   21  C21 UNK     1      21.276  -8.595  37.255  1.00  0.00     0.038 A 
HETATM   22  C17 UNK     1      24.924  -9.161  37.203  1.00  0.00     0.304 A 
HETATM   23  O5  UNK     1      25.751  -9.778  36.540  1.00  0.00    -0.259 OA
HETATM   24  C23 UNK     1      20.306  -7.910  37.983  1.00  0.00     0.003 A 
HETATM   25  C22 UNK     1      20.676  -7.138  39.086  1.00  0.00     0.001 A 
ENDBRANCH  12  15
ENDBRANCH  10  11
BRANCH   9  26
HETATM   26  C10 UNK     1      29.830  -9.468  37.906  1.00  0.00     0.296 C 
HETATM   27  O2  UNK     1      30.111 -10.261  38.816  1.00  0.00    -0.259 OA
BRANCH  26  28
HETATM   28  O1  UNK     1      29.373  -9.890  36.676  1.00  0.00    -0.317 OA
BRANCH  28  29
HETATM   29  C12 UNK     1      30.174  -9.548  35.540  1.00  0.00     0.178 C 
BRANCH  29  30
HETATM   30  C14 UNK     1      31.354 -10.506  35.464  1.00  0.00     0.022 C 
HETATM   31  C19 UNK     1      32.521  -9.906  34.701  1.00  0.00     0.007 C 
ENDBRANCH  29  30
ENDBRANCH  28  29
ENDBRANCH  26  28
ENDBRANCH   9  26
TORSDOF 6
ENDMDL
MODEL 9
REMARK VINA RESULT:      -8.2      2.304      8.355
REMARK  6 active torsions:
REMARK  status: ('A' for Active; 'I' for Inactive)
REMARK    1  A    between atoms: C10_17  and  O1_2 
REMARK    2  A    between atoms: C12_19  and  O1_2 
REMARK       I    between atoms: C11_18  and  N1_7 
REMARK    3  A    between atoms: C9_16  and  N1_7 
REMARK    4  A    between atoms: C10_17  and  C8_15 
REMARK    5  A    between atoms: C11_18  and  C13_20 
REMARK    6  A    between atoms: C12_19  and  C14_21 
ROOT
HETATM    1  S1  UNK     1      20.439  -4.512  37.545  1.00  0.00    -0.075 SA
HETATM    2  C1  UNK     1      21.668  -9.046  37.874  1.00  0.00     0.005 C 
HETATM    3  C2  UNK     1      21.854  -8.760  39.367  1.00  0.00     0.001 C 
HETATM    4  C3  UNK     1      20.348  -8.533  37.296  1.00  0.00     0.041 C 
HETATM    5  C4  UNK     1      22.079  -7.288  39.726  1.00  0.00     0.005 C 
HETATM    6  C5  UNK     1      20.323  -7.048  37.105  1.00  0.00    -0.026 A 
HETATM    7  C6  UNK     1      20.845  -6.402  39.552  1.00  0.00     0.046 C 
HETATM    8  C7  UNK     1      20.544  -6.125  38.112  1.00  0.00    -0.008 A 
HETATM    9  C8  UNK     1      20.064  -6.398  35.854  1.00  0.00     0.080 A 
HETATM   10  C9  UNK     1      20.099  -5.025  35.954  1.00  0.00     0.094 A 
ENDROOT
BRANCH  10  11
HETATM   11  N1  UNK     1      19.909  -4.044  35.019  1.00  0.00    -0.316 N 
HETATM   12  C11 UNK     1      20.548  -2.798  34.971  1.00  0.00     0.262 C 
HETATM   13  O3  UNK     1      21.386  -2.341  35.739  1.00  0.00    -0.267 OA
HETATM   14  H11 UNK     1      19.244  -4.278  34.287  1.00  0.00     0.169 HD
BRANCH  12  15
HETATM   15  C13 UNK     1      20.105  -1.980  33.822  1.00  0.00     0.108 A 
HETATM   16  C15 UNK     1      20.694  -2.240  32.649  1.00  0.00     0.037 A 
HETATM   17  C16 UNK     1      20.324  -1.488  31.460  1.00  0.00    -0.001 A 
HETATM   18  C18 UNK     1      19.352  -0.498  31.565  1.00  0.00     0.089 A 
HETATM   19  C20 UNK     1      20.912  -1.726  30.215  1.00  0.00     0.014 A 
HETATM   20  O4  UNK     1      18.737  -0.228  32.803  1.00  0.00    -0.274 OA
HETATM   21  C21 UNK     1      18.954   0.259  30.465  1.00  0.00     0.038 A 
HETATM   22  C17 UNK     1      19.069  -0.932  33.957  1.00  0.00     0.304 A 
HETATM   23  O5  UNK     1      18.528  -0.690  35.031  1.00  0.00    -0.259 OA
HETATM   24  C23 UNK     1      19.545   0.016  29.228  1.00  0.00     0.003 A 
HETATM   25  C22 UNK     1      20.522  -0.974  29.103  1.00  0.00     0.001 A 
ENDBRANCH  12  15
ENDBRANCH  10  11
BRANCH   9  26
HETATM   26  C10 UNK     1      19.793  -7.058  34.601  1.00  0.00     0.296 C 
HETATM   27  O2  UNK     1      20.669  -7.378  33.786  1.00  0.00    -0.259 OA
BRANCH  26  28
HETATM   28  O1  UNK     1      18.456  -7.310  34.381  1.00  0.00    -0.317 OA
BRANCH  28  29
HETATM   29  C12 UNK     1      17.697  -7.787  35.498  1.00  0.00     0.178 C 
BRANCH  29  30
HETATM   30  C14 UNK     1      16.584  -6.794  35.796  1.00  0.00     0.022 C 
HETATM   31  C19 UNK     1      15.393  -6.987  34.875  1.00  0.00     0.007 C 
ENDBRANCH  29  30
ENDBRANCH  28  29
ENDBRANCH  26  28
ENDBRANCH   9  26
TORSDOF 6
ENDMDL
MODEL 10
REMARK VINA RESULT:      -8.1      5.676     11.510
REMARK  6 active torsions:
REMARK  status: ('A' for Active; 'I' for Inactive)
REMARK    1  A    between atoms: C10_17  and  O1_2 
REMARK    2  A    between atoms: C12_19  and  O1_2 
REMARK       I    between atoms: C11_18  and  N1_7 
REMARK    3  A    between atoms: C9_16  and  N1_7 
REMARK    4  A    between atoms: C10_17  and  C8_15 
REMARK    5  A    between atoms: C11_18  and  C13_20 
REMARK    6  A    between atoms: C12_19  and  C14_21 
ROOT
HETATM    1  S1  UNK     1      18.361   1.765  35.234  1.00  0.00    -0.075 SA
HETATM    2  C1  UNK     1      20.108  -1.718  32.589  1.00  0.00     0.005 C 
HETATM    3  C2  UNK     1      20.158  -2.518  33.894  1.00  0.00     0.001 C 
HETATM    4  C3  UNK     1      18.776  -1.008  32.339  1.00  0.00     0.041 C 
HETATM    5  C4  UNK     1      20.178  -1.677  35.174  1.00  0.00     0.005 C 
HETATM    6  C5  UNK     1      18.583   0.206  33.194  1.00  0.00    -0.026 A 
HETATM    7  C6  UNK     1      18.860  -0.966  35.480  1.00  0.00     0.046 C 
HETATM    8  C7  UNK     1      18.624   0.205  34.577  1.00  0.00    -0.008 A 
HETATM    9  C8  UNK     1      18.331   1.522  32.685  1.00  0.00     0.080 A 
HETATM   10  C9  UNK     1      18.192   2.459  33.685  1.00  0.00     0.094 A 
ENDROOT
BRANCH  10  11
HETATM   11  N1  UNK     1      17.947   3.804  33.637  1.00  0.00    -0.316 N 
HETATM   12  C11 UNK     1      18.611   4.748  32.842  1.00  0.00     0.262 C 
HETATM   13  O3  UNK     1      19.526   4.568  32.048  1.00  0.00    -0.267 OA
HETATM   14  H11 UNK     1      17.189   4.120  34.237  1.00  0.00     0.169 HD
BRANCH  12  15
HETATM   15  C13 UNK     1      18.091   6.118  33.039  1.00  0.00     0.108 A 
HETATM   16  C15 UNK     1      16.766   6.270  32.929  1.00  0.00     0.037 A 
HETATM   17  C16 UNK     1      16.160   7.580  33.107  1.00  0.00    -0.001 A 
HETATM   18  C18 UNK     1      16.980   8.667  33.392  1.00  0.00     0.089 A 
HETATM   19  C20 UNK     1      14.782   7.784  33.000  1.00  0.00     0.014 A 
HETATM   20  O4  UNK     1      18.374   8.502  33.507  1.00  0.00    -0.274 OA
HETATM   21  C21 UNK     1      16.462   9.949  33.573  1.00  0.00     0.038 A 
HETATM   22  C17 UNK     1      18.982   7.260  33.343  1.00  0.00     0.304 A 
HETATM   23  O5  UNK     1      20.197   7.126  33.444  1.00  0.00    -0.259 OA
HETATM   24  C23 UNK     1      15.088  10.143  33.465  1.00  0.00     0.003 A 
HETATM   25  C22 UNK     1      14.249   9.064  33.179  1.00  0.00     0.001 A 
ENDBRANCH  12  15
ENDBRANCH  10  11
BRANCH   9  26
HETATM   26  C10 UNK     1      18.226   1.882  31.292  1.00  0.00     0.296 C 
HETATM   27  O2  UNK     1      17.285   2.534  30.817  1.00  0.00    -0.259 OA
BRANCH  26  28
HETATM   28  O1  UNK     1      19.275   1.433  30.519  1.00  0.00    -0.317 OA
BRANCH  28  29
HETATM   29  C12 UNK     1      19.041   1.335  29.110  1.00  0.00     0.178 C 
BRANCH  29  30
HETATM   30  C14 UNK     1      19.453  -0.052  28.638  1.00  0.00     0.022 C 
HETATM   31  C19 UNK     1      20.773  -0.487  29.249  1.00  0.00     0.007 C 
ENDBRANCH  29  30
ENDBRANCH  28  29
ENDBRANCH  26  28
ENDBRANCH   9  26
TORSDOF 6
ENDMDL
