MODEL 1
REMARK VINA RESULT:      -9.4      0.000      0.000
REMARK  6 active torsions:
REMARK  status: ('A' for Active; 'I' for Inactive)
REMARK    1  A    between atoms: C11_15  and  O2_2 
REMARK    2  A    between atoms: C15_19  and  O2_2 
REMARK    3  A    between atoms: C2_6  and  C4_8 
REMARK    4  A    between atoms: C4_8  and  C7_11 
REMARK    5  A    between atoms: C15_19  and  C18_22 
REMARK    6  A    between atoms: C18_22  and  C19_23 
ROOT
HETATM    1  O1  UNK     1      16.604   8.004  31.538  1.00  0.00    -0.274 OA
HETATM    2  O3  UNK     1      15.182   9.593  32.318  1.00  0.00    -0.259 OA
HETATM    3  C1  UNK     1      18.187   8.367  33.858  1.00  0.00    -0.036 A 
HETATM    4  C2  UNK     1      17.079   9.116  33.678  1.00  0.00     0.029 A 
HETATM    5  C3  UNK     1      18.580   7.392  32.819  1.00  0.00     0.005 A 
HETATM    6  C5  UNK     1      17.772   7.243  31.695  1.00  0.00     0.092 A 
HETATM    7  C6  UNK     1      16.211   8.943  32.477  1.00  0.00     0.295 A 
HETATM    8  C8  UNK     1      19.737   6.599  32.885  1.00  0.00     0.017 A 
HETATM    9  C9  UNK     1      19.063   8.448  35.082  1.00  0.00     0.050 C 
HETATM   10  C10 UNK     1      18.071   6.345  30.667  1.00  0.00     0.075 A 
HETATM   11  C11 UNK     1      19.219   5.566  30.756  1.00  0.00     0.072 A 
HETATM   12  C12 UNK     1      20.052   5.694  31.864  1.00  0.00     0.038 A 
ENDROOT
BRANCH  11  13
HETATM   13  O2  UNK     1      19.527   4.685  29.767  1.00  0.00    -0.344 OA
BRANCH  13  14
HETATM   14  C15 UNK     1      18.504   3.774  29.365  1.00  0.00     0.259 C 
BRANCH  14  15
HETATM   15  C18 UNK     1      18.289   2.728  30.443  1.00  0.00     0.183 C 
HETATM   16  O4  UNK     1      17.589   2.952  31.428  1.00  0.00    -0.290 OA
BRANCH  15  17
HETATM   17  C19 UNK     1      18.949   1.399  30.294  1.00  0.00     0.012 A 
HETATM   18  C21 UNK     1      19.184   0.649  31.424  1.00  0.00     0.016 A 
HETATM   19  C24 UNK     1      19.802  -0.594  31.285  1.00  0.00     0.007 A 
HETATM   20  C23 UNK     1      20.164  -1.055  30.020  1.00  0.00    -0.062 A 
HETATM   21  C25 UNK     1      19.912  -0.271  28.893  1.00  0.00     0.007 A 
HETATM   22  C26 UNK     1      20.825  -2.384  29.870  1.00  0.00     0.048 C 
HETATM   23  C22 UNK     1      19.296   0.972  29.032  1.00  0.00     0.016 A 
ENDBRANCH  15  17
ENDBRANCH  14  15
ENDBRANCH  13  14
ENDBRANCH  11  13
BRANCH   4  24
HETATM   24  C4  UNK     1      16.600  10.188  34.624  1.00  0.00     0.084 C 
BRANCH  24  25
HETATM   25  C7  UNK     1      16.998  11.561  34.171  1.00  0.00    -0.054 A 
HETATM   26  C13 UNK     1      18.330  11.830  33.872  1.00  0.00     0.007 A 
HETATM   27  C16 UNK     1      18.699  13.107  33.451  1.00  0.00     0.001 A 
HETATM   28  C20 UNK     1      17.736  14.108  33.331  1.00  0.00     0.000 A 
HETATM   29  C17 UNK     1      16.402  13.832  33.632  1.00  0.00     0.001 A 
HETATM   30  C14 UNK     1      16.032  12.555  34.054  1.00  0.00     0.007 A 
ENDBRANCH  24  25
ENDBRANCH   4  24
TORSDOF 6
ENDMDL
MODEL 2
REMARK VINA RESULT:      -9.3     15.040     18.327
REMARK  6 active torsions:
REMARK  status: ('A' for Active; 'I' for Inactive)
REMARK    1  A    between atoms: C11_15  and  O2_2 
REMARK    2  A    between atoms: C15_19  and  O2_2 
REMARK    3  A    between atoms: C2_6  and  C4_8 
REMARK    4  A    between atoms: C4_8  and  C7_11 
REMARK    5  A    between atoms: C15_19  and  C18_22 
REMARK    6  A    between atoms: C18_22  and  C19_23 
ROOT
HETATM    1  O1  UNK     1      28.257  -5.081  39.083  1.00  0.00    -0.274 OA
HETATM    2  O3  UNK     1      29.933  -3.588  39.420  1.00  0.00    -0.259 OA
HETATM    3  C1  UNK     1      30.199  -7.008  38.352  1.00  0.00    -0.036 A 
HETATM    4  C2  UNK     1      30.586  -5.757  38.680  1.00  0.00     0.029 A 
HETATM    5  C3  UNK     1      28.760  -7.343  38.342  1.00  0.00     0.005 A 
HETATM    6  C5  UNK     1      27.838  -6.367  38.710  1.00  0.00     0.092 A 
HETATM    7  C6  UNK     1      29.594  -4.719  39.085  1.00  0.00     0.295 A 
HETATM    8  C8  UNK     1      28.249  -8.598  37.971  1.00  0.00     0.017 A 
HETATM    9  C9  UNK     1      31.159  -8.116  38.002  1.00  0.00     0.050 C 
HETATM   10  C10 UNK     1      26.460  -6.601  38.727  1.00  0.00     0.075 A 
HETATM   11  C11 UNK     1      25.978  -7.852  38.362  1.00  0.00     0.072 A 
HETATM   12  C12 UNK     1      26.871  -8.850  37.982  1.00  0.00     0.038 A 
ENDROOT
BRANCH  11  13
HETATM   13  O2  UNK     1      24.640  -8.100  38.373  1.00  0.00    -0.344 OA
BRANCH  13  14
HETATM   14  C15 UNK     1      23.812  -7.169  39.067  1.00  0.00     0.259 C 
BRANCH  14  15
HETATM   15  C18 UNK     1      22.511  -7.834  39.476  1.00  0.00     0.183 C 
HETATM   16  O4  UNK     1      22.468  -8.661  40.384  1.00  0.00    -0.290 OA
BRANCH  15  17
HETATM   17  C19 UNK     1      21.261  -7.470  38.750  1.00  0.00     0.012 A 
HETATM   18  C21 UNK     1      21.258  -6.338  37.967  1.00  0.00     0.016 A 
HETATM   19  C24 UNK     1      20.088  -5.997  37.288  1.00  0.00     0.007 A 
HETATM   20  C23 UNK     1      18.953  -6.799  37.407  1.00  0.00    -0.062 A 
HETATM   21  C25 UNK     1      18.988  -7.942  38.208  1.00  0.00     0.007 A 
HETATM   22  C26 UNK     1      17.702  -6.435  36.682  1.00  0.00     0.048 C 
HETATM   23  C22 UNK     1      20.157  -8.282  38.888  1.00  0.00     0.016 A 
ENDBRANCH  15  17
ENDBRANCH  14  15
ENDBRANCH  13  14
ENDBRANCH  11  13
BRANCH   4  24
HETATM   24  C4  UNK     1      32.010  -5.264  38.669  1.00  0.00     0.084 C 
BRANCH  24  25
HETATM   25  C7  UNK     1      32.554  -5.136  37.277  1.00  0.00    -0.054 A 
HETATM   26  C13 UNK     1      31.821  -4.455  36.312  1.00  0.00     0.007 A 
HETATM   27  C16 UNK     1      32.327  -4.336  35.017  1.00  0.00     0.001 A 
HETATM   28  C20 UNK     1      33.562  -4.899  34.696  1.00  0.00     0.000 A 
HETATM   29  C17 UNK     1      34.292  -5.581  35.670  1.00  0.00     0.001 A 
HETATM   30  C14 UNK     1      33.786  -5.700  36.965  1.00  0.00     0.007 A 
ENDBRANCH  24  25
ENDBRANCH   4  24
TORSDOF 6
ENDMDL
MODEL 3
REMARK VINA RESULT:      -9.1      7.877     14.533
REMARK  6 active torsions:
REMARK  status: ('A' for Active; 'I' for Inactive)
REMARK    1  A    between atoms: C11_15  and  O2_2 
REMARK    2  A    between atoms: C15_19  and  O2_2 
REMARK    3  A    between atoms: C2_6  and  C4_8 
REMARK    4  A    between atoms: C4_8  and  C7_11 
REMARK    5  A    between atoms: C15_19  and  C18_22 
REMARK    6  A    between atoms: C18_22  and  C19_23 
ROOT
HETATM    1  O1  UNK     1      20.321  -5.804  34.598  1.00  0.00    -0.274 OA
HETATM    2  O3  UNK     1      20.444  -8.041  34.231  1.00  0.00    -0.259 OA
HETATM    3  C1  UNK     1      20.230  -6.325  37.380  1.00  0.00    -0.036 A 
HETATM    4  C2  UNK     1      20.289  -7.353  36.507  1.00  0.00     0.029 A 
HETATM    5  C3  UNK     1      20.175  -4.940  36.867  1.00  0.00     0.005 A 
HETATM    6  C5  UNK     1      20.224  -4.728  35.492  1.00  0.00     0.092 A 
HETATM    7  C6  UNK     1      20.354  -7.118  35.035  1.00  0.00     0.295 A 
HETATM    8  C8  UNK     1      20.064  -3.804  37.686  1.00  0.00     0.017 A 
HETATM    9  C9  UNK     1      20.233  -6.498  38.878  1.00  0.00     0.050 C 
HETATM   10  C10 UNK     1      20.177  -3.452  34.925  1.00  0.00     0.075 A 
HETATM   11  C11 UNK     1      20.073  -2.341  35.755  1.00  0.00     0.072 A 
HETATM   12  C12 UNK     1      20.015  -2.517  37.135  1.00  0.00     0.038 A 
ENDROOT
BRANCH  11  13
HETATM   13  O2  UNK     1      20.026  -1.090  35.224  1.00  0.00    -0.344 OA
BRANCH  13  14
HETATM   14  C15 UNK     1      18.770  -0.414  35.262  1.00  0.00     0.259 C 
BRANCH  14  15
HETATM   15  C18 UNK     1      18.008  -0.661  33.974  1.00  0.00     0.183 C 
HETATM   16  O4  UNK     1      16.801  -0.893  33.973  1.00  0.00    -0.290 OA
BRANCH  15  17
HETATM   17  C19 UNK     1      18.752  -0.620  32.682  1.00  0.00     0.012 A 
HETATM   18  C21 UNK     1      19.249  -1.796  32.169  1.00  0.00     0.016 A 
HETATM   19  C24 UNK     1      19.945  -1.757  30.960  1.00  0.00     0.007 A 
HETATM   20  C23 UNK     1      20.123  -0.544  30.296  1.00  0.00    -0.062 A 
HETATM   21  C25 UNK     1      19.607   0.632  30.842  1.00  0.00     0.007 A 
HETATM   22  C26 UNK     1      20.867  -0.502  29.004  1.00  0.00     0.048 C 
HETATM   23  C22 UNK     1      18.912   0.594  32.051  1.00  0.00     0.016 A 
ENDBRANCH  15  17
ENDBRANCH  14  15
ENDBRANCH  13  14
ENDBRANCH  11  13
BRANCH   4  24
HETATM   24  C4  UNK     1      20.287  -8.811  36.890  1.00  0.00     0.084 C 
BRANCH  24  25
HETATM   25  C7  UNK     1      21.616  -9.461  36.648  1.00  0.00    -0.054 A 
HETATM   26  C13 UNK     1      22.780  -8.826  37.066  1.00  0.00     0.007 A 
HETATM   27  C16 UNK     1      24.017  -9.432  36.841  1.00  0.00     0.001 A 
HETATM   28  C20 UNK     1      24.081 -10.669  36.200  1.00  0.00     0.000 A 
HETATM   29  C17 UNK     1      22.909 -11.300  35.784  1.00  0.00     0.001 A 
HETATM   30  C14 UNK     1      21.673 -10.695  36.009  1.00  0.00     0.007 A 
ENDBRANCH  24  25
ENDBRANCH   4  24
TORSDOF 6
ENDMDL
MODEL 4
REMARK VINA RESULT:      -9.1      8.967     16.073
REMARK  6 active torsions:
REMARK  status: ('A' for Active; 'I' for Inactive)
REMARK    1  A    between atoms: C11_15  and  O2_2 
REMARK    2  A    between atoms: C15_19  and  O2_2 
REMARK    3  A    between atoms: C2_6  and  C4_8 
REMARK    4  A    between atoms: C4_8  and  C7_11 
REMARK    5  A    between atoms: C15_19  and  C18_22 
REMARK    6  A    between atoms: C18_22  and  C19_23 
ROOT
HETATM    1  O1  UNK     1      20.894  -7.106  34.861  1.00  0.00    -0.274 OA
HETATM    2  O3  UNK     1      21.574  -8.937  33.704  1.00  0.00    -0.259 OA
HETATM    3  C1  UNK     1      20.898  -8.669  37.222  1.00  0.00    -0.036 A 
HETATM    4  C2  UNK     1      21.223  -9.237  36.041  1.00  0.00     0.029 A 
HETATM    5  C3  UNK     1      20.507  -7.245  37.259  1.00  0.00     0.005 A 
HETATM    6  C5  UNK     1      20.521  -6.511  36.076  1.00  0.00     0.092 A 
HETATM    7  C6  UNK     1      21.247  -8.443  34.779  1.00  0.00     0.295 A 
HETATM    8  C8  UNK     1      20.107  -6.571  38.424  1.00  0.00     0.017 A 
HETATM    9  C9  UNK     1      20.924  -9.403  38.539  1.00  0.00     0.050 C 
HETATM   10  C10 UNK     1      20.165  -5.161  36.022  1.00  0.00     0.075 A 
HETATM   11  C11 UNK     1      19.778  -4.513  37.189  1.00  0.00     0.072 A 
HETATM   12  C12 UNK     1      19.747  -5.217  38.389  1.00  0.00     0.038 A 
ENDROOT
BRANCH  11  13
HETATM   13  O2  UNK     1      19.429  -3.199  37.159  1.00  0.00    -0.344 OA
BRANCH  13  14
HETATM   14  C15 UNK     1      20.165  -2.351  36.280  1.00  0.00     0.259 C 
BRANCH  14  15
HETATM   15  C18 UNK     1      19.222  -1.662  35.311  1.00  0.00     0.183 C 
HETATM   16  O4  UNK     1      18.206  -1.089  35.698  1.00  0.00    -0.290 OA
BRANCH  15  17
HETATM   17  C19 UNK     1      19.544  -1.690  33.855  1.00  0.00     0.012 A 
HETATM   18  C21 UNK     1      18.835  -0.870  33.007  1.00  0.00     0.016 A 
HETATM   19  C24 UNK     1      19.135  -0.896  31.645  1.00  0.00     0.007 A 
HETATM   20  C23 UNK     1      20.138  -1.740  31.168  1.00  0.00    -0.062 A 
HETATM   21  C25 UNK     1      20.839  -2.559  32.053  1.00  0.00     0.007 A 
HETATM   22  C26 UNK     1      20.460  -1.768  29.711  1.00  0.00     0.048 C 
HETATM   23  C22 UNK     1      20.538  -2.534  33.415  1.00  0.00     0.016 A 
ENDBRANCH  15  17
ENDBRANCH  14  15
ENDBRANCH  13  14
ENDBRANCH  11  13
BRANCH   4  24
HETATM   24  C4  UNK     1      21.577 -10.690  35.852  1.00  0.00     0.084 C 
BRANCH  24  25
HETATM   25  C7  UNK     1      23.043 -10.944  36.041  1.00  0.00    -0.054 A 
HETATM   26  C13 UNK     1      23.874  -9.909  36.457  1.00  0.00     0.007 A 
HETATM   27  C16 UNK     1      25.237 -10.145  36.632  1.00  0.00     0.001 A 
HETATM   28  C20 UNK     1      25.762 -11.414  36.391  1.00  0.00     0.000 A 
HETATM   29  C17 UNK     1      24.923 -12.448  35.974  1.00  0.00     0.001 A 
HETATM   30  C14 UNK     1      23.560 -12.212  35.799  1.00  0.00     0.007 A 
ENDBRANCH  24  25
ENDBRANCH   4  24
TORSDOF 6
ENDMDL
MODEL 5
REMARK VINA RESULT:      -9.0     17.097     19.831
REMARK  6 active torsions:
REMARK  status: ('A' for Active; 'I' for Inactive)
REMARK    1  A    between atoms: C11_15  and  O2_2 
REMARK    2  A    between atoms: C15_19  and  O2_2 
REMARK    3  A    between atoms: C2_6  and  C4_8 
REMARK    4  A    between atoms: C4_8  and  C7_11 
REMARK    5  A    between atoms: C15_19  and  C18_22 
REMARK    6  A    between atoms: C18_22  and  C19_23 
ROOT
HETATM    1  O1  UNK     1      31.699  -9.903  35.372  1.00  0.00    -0.274 OA
HETATM    2  O3  UNK     1      31.451  -9.954  37.628  1.00  0.00    -0.259 OA
HETATM    3  C1  UNK     1      32.609  -7.230  35.591  1.00  0.00    -0.036 A 
HETATM    4  C2  UNK     1      32.232  -7.904  36.699  1.00  0.00     0.029 A 
HETATM    5  C3  UNK     1      32.504  -7.888  34.272  1.00  0.00     0.005 A 
HETATM    6  C5  UNK     1      32.054  -9.204  34.209  1.00  0.00     0.092 A 
HETATM    7  C6  UNK     1      31.763  -9.318  36.626  1.00  0.00     0.295 A 
HETATM    8  C8  UNK     1      32.823  -7.262  33.056  1.00  0.00     0.017 A 
HETATM    9  C9  UNK     1      33.156  -5.825  35.611  1.00  0.00     0.050 C 
HETATM   10  C10 UNK     1      31.926  -9.898  33.003  1.00  0.00     0.075 A 
HETATM   11  C11 UNK     1      32.253  -9.261  31.812  1.00  0.00     0.072 A 
HETATM   12  C12 UNK     1      32.700  -7.943  31.838  1.00  0.00     0.038 A 
ENDROOT
BRANCH  11  13
HETATM   13  O2  UNK     1      32.136  -9.919  30.628  1.00  0.00    -0.344 OA
BRANCH  13  14
HETATM   14  C15 UNK     1      32.363  -9.164  29.439  1.00  0.00     0.259 C 
BRANCH  14  15
HETATM   15  C18 UNK     1      31.110  -9.152  28.584  1.00  0.00     0.183 C 
HETATM   16  O4  UNK     1      31.099  -9.626  27.450  1.00  0.00    -0.290 OA
BRANCH  15  17
HETATM   17  C19 UNK     1      29.867  -8.546  29.142  1.00  0.00     0.012 A 
HETATM   18  C21 UNK     1      29.886  -7.220  29.510  1.00  0.00     0.016 A 
HETATM   19  C24 UNK     1      28.724  -6.654  30.033  1.00  0.00     0.007 A 
HETATM   20  C23 UNK     1      27.572  -7.428  30.171  1.00  0.00    -0.062 A 
HETATM   21  C25 UNK     1      27.584  -8.770  29.789  1.00  0.00     0.007 A 
HETATM   22  C26 UNK     1      26.328  -6.823  30.730  1.00  0.00     0.048 C 
HETATM   23  C22 UNK     1      28.747  -9.337  29.268  1.00  0.00     0.016 A 
ENDBRANCH  15  17
ENDBRANCH  14  15
ENDBRANCH  13  14
ENDBRANCH  11  13
BRANCH   4  24
HETATM   24  C4  UNK     1      32.228  -7.333  38.095  1.00  0.00     0.084 C 
BRANCH  24  25
HETATM   25  C7  UNK     1      31.040  -6.451  38.341  1.00  0.00    -0.054 A 
HETATM   26  C13 UNK     1      29.772  -7.013  38.436  1.00  0.00     0.007 A 
HETATM   27  C16 UNK     1      28.668  -6.191  38.665  1.00  0.00     0.001 A 
HETATM   28  C20 UNK     1      28.839  -4.814  38.798  1.00  0.00     0.000 A 
HETATM   29  C17 UNK     1      30.114  -4.257  38.702  1.00  0.00     0.001 A 
HETATM   30  C14 UNK     1      31.218  -5.078  38.473  1.00  0.00     0.007 A 
ENDBRANCH  24  25
ENDBRANCH   4  24
TORSDOF 6
ENDMDL
MODEL 6
REMARK VINA RESULT:      -9.0     17.058     19.907
REMARK  6 active torsions:
REMARK  status: ('A' for Active; 'I' for Inactive)
REMARK    1  A    between atoms: C11_15  and  O2_2 
REMARK    2  A    between atoms: C15_19  and  O2_2 
REMARK    3  A    between atoms: C2_6  and  C4_8 
REMARK    4  A    between atoms: C4_8  and  C7_11 
REMARK    5  A    between atoms: C15_19  and  C18_22 
REMARK    6  A    between atoms: C18_22  and  C19_23 
ROOT
HETATM    1  O1  UNK     1      32.872  -8.910  34.799  1.00  0.00    -0.274 OA
HETATM    2  O3  UNK     1      33.602  -8.031  36.760  1.00  0.00    -0.259 OA
HETATM    3  C1  UNK     1      30.296  -9.174  35.944  1.00  0.00    -0.036 A 
HETATM    4  C2  UNK     1      31.311  -8.680  36.684  1.00  0.00     0.029 A 
HETATM    5  C3  UNK     1      30.554  -9.607  34.555  1.00  0.00     0.005 A 
HETATM    6  C5  UNK     1      31.834  -9.458  34.029  1.00  0.00     0.092 A 
HETATM    7  C6  UNK     1      32.678  -8.512  36.111  1.00  0.00     0.295 A 
HETATM    8  C8  UNK     1      29.582 -10.178  33.717  1.00  0.00     0.017 A 
HETATM    9  C9  UNK     1      28.880  -9.302  36.446  1.00  0.00     0.050 C 
HETATM   10  C10 UNK     1      32.163  -9.842  32.727  1.00  0.00     0.075 A 
HETATM   11  C11 UNK     1      31.183 -10.399  31.913  1.00  0.00     0.072 A 
HETATM   12  C12 UNK     1      29.893 -10.568  32.409  1.00  0.00     0.038 A 
ENDROOT
BRANCH  11  13
HETATM   13  O2  UNK     1      31.482 -10.778  30.642  1.00  0.00    -0.344 OA
BRANCH  13  14
HETATM   14  C15 UNK     1      32.110  -9.808  29.805  1.00  0.00     0.259 C 
BRANCH  14  15
HETATM   15  C18 UNK     1      31.122  -9.294  28.775  1.00  0.00     0.183 C 
HETATM   16  O4  UNK     1      31.336  -9.397  27.569  1.00  0.00    -0.290 OA
BRANCH  15  17
HETATM   17  C19 UNK     1      29.864  -8.647  29.248  1.00  0.00     0.012 A 
HETATM   18  C21 UNK     1      28.693  -9.367  29.195  1.00  0.00     0.016 A 
HETATM   19  C24 UNK     1      27.516  -8.762  29.637  1.00  0.00     0.007 A 
HETATM   20  C23 UNK     1      27.543  -7.454  30.122  1.00  0.00    -0.062 A 
HETATM   21  C25 UNK     1      28.747  -6.751  30.163  1.00  0.00     0.007 A 
HETATM   22  C26 UNK     1      26.285  -6.807  30.595  1.00  0.00     0.048 C 
HETATM   23  C22 UNK     1      29.924  -7.355  29.720  1.00  0.00     0.016 A 
ENDBRANCH  15  17
ENDBRANCH  14  15
ENDBRANCH  13  14
ENDBRANCH  11  13
BRANCH   4  24
HETATM   24  C4  UNK     1      31.202  -8.262  38.128  1.00  0.00     0.084 C 
BRANCH  24  25
HETATM   25  C7  UNK     1      30.592  -6.901  38.278  1.00  0.00    -0.054 A 
HETATM   26  C13 UNK     1      29.302  -6.775  38.783  1.00  0.00     0.007 A 
HETATM   27  C16 UNK     1      28.736  -5.508  38.922  1.00  0.00     0.001 A 
HETATM   28  C20 UNK     1      29.462  -4.375  38.556  1.00  0.00     0.000 A 
HETATM   29  C17 UNK     1      30.755  -4.508  38.050  1.00  0.00     0.001 A 
HETATM   30  C14 UNK     1      31.322  -5.775  37.911  1.00  0.00     0.007 A 
ENDBRANCH  24  25
ENDBRANCH   4  24
TORSDOF 6
ENDMDL
MODEL 7
REMARK VINA RESULT:      -9.0     16.996     19.840
REMARK  6 active torsions:
REMARK  status: ('A' for Active; 'I' for Inactive)
REMARK    1  A    between atoms: C11_15  and  O2_2 
REMARK    2  A    between atoms: C15_19  and  O2_2 
REMARK    3  A    between atoms: C2_6  and  C4_8 
REMARK    4  A    between atoms: C4_8  and  C7_11 
REMARK    5  A    between atoms: C15_19  and  C18_22 
REMARK    6  A    between atoms: C18_22  and  C19_23 
ROOT
HETATM    1  O1  UNK     1      32.737  -8.962  34.871  1.00  0.00    -0.274 OA
HETATM    2  O3  UNK     1      33.399  -8.132  36.877  1.00  0.00    -0.259 OA
HETATM    3  C1  UNK     1      30.121  -9.247  35.919  1.00  0.00    -0.036 A 
HETATM    4  C2  UNK     1      31.111  -8.773  36.705  1.00  0.00     0.029 A 
HETATM    5  C3  UNK     1      30.427  -9.648  34.530  1.00  0.00     0.005 A 
HETATM    6  C5  UNK     1      31.726  -9.489  34.053  1.00  0.00     0.092 A 
HETATM    7  C6  UNK     1      32.498  -8.594  36.185  1.00  0.00     0.295 A 
HETATM    8  C8  UNK     1      29.484 -10.196  33.645  1.00  0.00     0.017 A 
HETATM    9  C9  UNK     1      28.688  -9.384  36.368  1.00  0.00     0.050 C 
HETATM   10  C10 UNK     1      32.099  -9.843  32.754  1.00  0.00     0.075 A 
HETATM   11  C11 UNK     1      31.147 -10.378  31.894  1.00  0.00     0.072 A 
HETATM   12  C12 UNK     1      29.841 -10.556  32.340  1.00  0.00     0.038 A 
ENDROOT
BRANCH  11  13
HETATM   13  O2  UNK     1      31.490 -10.727  30.625  1.00  0.00    -0.344 OA
BRANCH  13  14
HETATM   14  C15 UNK     1      32.015  -9.699  29.787  1.00  0.00     0.259 C 
BRANCH  14  15
HETATM   15  C18 UNK     1      30.976  -9.281  28.764  1.00  0.00     0.183 C 
HETATM   16  O4  UNK     1      31.143  -9.468  27.561  1.00  0.00    -0.290 OA
BRANCH  15  17
HETATM   17  C19 UNK     1      29.724  -8.626  29.241  1.00  0.00     0.012 A 
HETATM   18  C21 UNK     1      29.787  -7.324  29.681  1.00  0.00     0.016 A 
HETATM   19  C24 UNK     1      28.616  -6.711  30.128  1.00  0.00     0.007 A 
HETATM   20  C23 UNK     1      27.412  -7.416  30.119  1.00  0.00    -0.062 A 
HETATM   21  C25 UNK     1      27.381  -8.736  29.666  1.00  0.00     0.007 A 
HETATM   22  C26 UNK     1      26.160  -6.762  30.596  1.00  0.00     0.048 C 
HETATM   23  C22 UNK     1      28.552  -9.349  29.221  1.00  0.00     0.016 A 
ENDBRANCH  15  17
ENDBRANCH  14  15
ENDBRANCH  13  14
ENDBRANCH  11  13
BRANCH   4  24
HETATM   24  C4  UNK     1      30.952  -8.389  38.154  1.00  0.00     0.084 C 
BRANCH  24  25
HETATM   25  C7  UNK     1      30.378  -7.014  38.315  1.00  0.00    -0.054 A 
HETATM   26  C13 UNK     1      31.176  -5.901  38.073  1.00  0.00     0.007 A 
HETATM   27  C16 UNK     1      30.641  -4.621  38.223  1.00  0.00     0.001 A 
HETATM   28  C20 UNK     1      29.312  -4.462  38.614  1.00  0.00     0.000 A 
HETATM   29  C17 UNK     1      28.517  -5.582  38.856  1.00  0.00     0.001 A 
HETATM   30  C14 UNK     1      29.052  -6.862  38.706  1.00  0.00     0.007 A 
ENDBRANCH  24  25
ENDBRANCH   4  24
TORSDOF 6
ENDMDL
MODEL 8
REMARK VINA RESULT:      -8.9     21.576     23.935
REMARK  6 active torsions:
REMARK  status: ('A' for Active; 'I' for Inactive)
REMARK    1  A    between atoms: C11_15  and  O2_2 
REMARK    2  A    between atoms: C15_19  and  O2_2 
REMARK    3  A    between atoms: C2_6  and  C4_8 
REMARK    4  A    between atoms: C4_8  and  C7_11 
REMARK    5  A    between atoms: C15_19  and  C18_22 
REMARK    6  A    between atoms: C18_22  and  C19_23 
ROOT
HETATM    1  O1  UNK     1      12.136   8.351  10.284  1.00  0.00    -0.274 OA
HETATM    2  O3  UNK     1      13.197   9.738  11.735  1.00  0.00    -0.259 OA
HETATM    3  C1  UNK     1      14.598   7.023   9.845  1.00  0.00    -0.036 A 
HETATM    4  C2  UNK     1      14.547   8.081  10.681  1.00  0.00     0.029 A 
HETATM    5  C3  UNK     1      13.371   6.596   9.140  1.00  0.00     0.005 A 
HETATM    6  C5  UNK     1      12.181   7.275   9.386  1.00  0.00     0.092 A 
HETATM    7  C6  UNK     1      13.266   8.797  10.950  1.00  0.00     0.295 A 
HETATM    8  C8  UNK     1      13.326   5.540   8.215  1.00  0.00     0.017 A 
HETATM    9  C9  UNK     1      15.847   6.218   9.588  1.00  0.00     0.050 C 
HETATM   10  C10 UNK     1      10.978   6.936   8.761  1.00  0.00     0.075 A 
HETATM   11  C11 UNK     1      10.955   5.884   7.854  1.00  0.00     0.072 A 
HETATM   12  C12 UNK     1      12.129   5.187   7.579  1.00  0.00     0.038 A 
ENDROOT
BRANCH  11  13
HETATM   13  O2  UNK     1       9.794   5.537   7.236  1.00  0.00    -0.344 OA
BRANCH  13  14
HETATM   14  C15 UNK     1       8.623   6.270   7.594  1.00  0.00     0.259 C 
BRANCH  14  15
HETATM   15  C18 UNK     1       7.731   5.421   8.480  1.00  0.00     0.183 C 
HETATM   16  O4  UNK     1       7.407   4.278   8.162  1.00  0.00    -0.290 OA
BRANCH  15  17
HETATM   17  C19 UNK     1       7.238   5.997   9.764  1.00  0.00     0.012 A 
HETATM   18  C21 UNK     1       7.214   7.365   9.907  1.00  0.00     0.016 A 
HETATM   19  C24 UNK     1       6.753   7.904  11.109  1.00  0.00     0.007 A 
HETATM   20  C23 UNK     1       6.327   7.060  12.134  1.00  0.00    -0.062 A 
HETATM   21  C25 UNK     1       6.364   5.676  11.958  1.00  0.00     0.007 A 
HETATM   22  C26 UNK     1       5.835   7.635  13.419  1.00  0.00     0.048 C 
HETATM   23  C22 UNK     1       6.825   5.137  10.757  1.00  0.00     0.016 A 
ENDBRANCH  15  17
ENDBRANCH  14  15
ENDBRANCH  13  14
ENDBRANCH  11  13
BRANCH   4  24
HETATM   24  C4  UNK     1      15.731   8.660  11.413  1.00  0.00     0.084 C 
BRANCH  24  25
HETATM   25  C7  UNK     1      16.366   9.789  10.658  1.00  0.00    -0.054 A 
HETATM   26  C13 UNK     1      16.146  11.100  11.066  1.00  0.00     0.007 A 
HETATM   27  C16 UNK     1      16.736  12.151  10.363  1.00  0.00     0.001 A 
HETATM   28  C20 UNK     1      17.543  11.884   9.258  1.00  0.00     0.000 A 
HETATM   29  C17 UNK     1      17.760  10.567   8.854  1.00  0.00     0.001 A 
HETATM   30  C14 UNK     1      17.169   9.516   9.557  1.00  0.00     0.007 A 
ENDBRANCH  24  25
ENDBRANCH   4  24
TORSDOF 6
ENDMDL
MODEL 9
REMARK VINA RESULT:      -8.9     22.871     24.920
REMARK  6 active torsions:
REMARK  status: ('A' for Active; 'I' for Inactive)
REMARK    1  A    between atoms: C11_15  and  O2_2 
REMARK    2  A    between atoms: C15_19  and  O2_2 
REMARK    3  A    between atoms: C2_6  and  C4_8 
REMARK    4  A    between atoms: C4_8  and  C7_11 
REMARK    5  A    between atoms: C15_19  and  C18_22 
REMARK    6  A    between atoms: C18_22  and  C19_23 
ROOT
HETATM    1  O1  UNK     1      18.737  10.740   9.338  1.00  0.00    -0.274 OA
HETATM    2  O3  UNK     1      20.346  12.298   8.964  1.00  0.00    -0.259 OA
HETATM    3  C1  UNK     1      16.906  12.380   7.930  1.00  0.00    -0.036 A 
HETATM    4  C2  UNK     1      18.179  12.793   8.105  1.00  0.00     0.029 A 
HETATM    5  C3  UNK     1      16.476  11.091   8.511  1.00  0.00     0.005 A 
HETATM    6  C5  UNK     1      17.408  10.314   9.194  1.00  0.00     0.092 A 
HETATM    7  C6  UNK     1      19.176  11.951   8.827  1.00  0.00     0.295 A 
HETATM    8  C8  UNK     1      15.165  10.592   8.428  1.00  0.00     0.017 A 
HETATM    9  C9  UNK     1      15.874  13.155   7.151  1.00  0.00     0.050 C 
HETATM   10  C10 UNK     1      17.084   9.085   9.772  1.00  0.00     0.075 A 
HETATM   11  C11 UNK     1      15.782   8.607   9.673  1.00  0.00     0.072 A 
HETATM   12  C12 UNK     1      14.823   9.361   9.003  1.00  0.00     0.038 A 
ENDROOT
BRANCH  11  13
HETATM   13  O2  UNK     1      15.447   7.412  10.229  1.00  0.00    -0.344 OA
BRANCH  13  14
HETATM   14  C15 UNK     1      16.111   6.253   9.728  1.00  0.00     0.259 C 
BRANCH  14  15
HETATM   15  C18 UNK     1      15.111   5.132   9.515  1.00  0.00     0.183 C 
HETATM   16  O4  UNK     1      15.335   3.987   9.901  1.00  0.00    -0.290 OA
BRANCH  15  17
HETATM   17  C19 UNK     1      13.829   5.439   8.817  1.00  0.00     0.012 A 
HETATM   18  C21 UNK     1      12.647   5.063   9.413  1.00  0.00     0.016 A 
HETATM   19  C24 UNK     1      11.448   5.348   8.761  1.00  0.00     0.007 A 
HETATM   20  C23 UNK     1      11.463   6.005   7.530  1.00  0.00    -0.062 A 
HETATM   21  C25 UNK     1      12.678   6.374   6.951  1.00  0.00     0.007 A 
HETATM   22  C26 UNK     1      10.181   6.311   6.832  1.00  0.00     0.048 C 
HETATM   23  C22 UNK     1      13.877   6.087   7.603  1.00  0.00     0.016 A 
ENDBRANCH  15  17
ENDBRANCH  14  15
ENDBRANCH  13  14
ENDBRANCH  11  13
BRANCH   4  24
HETATM   24  C4  UNK     1      18.732  14.110   7.623  1.00  0.00     0.084 C 
BRANCH  24  25
HETATM   25  C7  UNK     1      19.508  13.965   6.348  1.00  0.00    -0.054 A 
HETATM   26  C13 UNK     1      19.015  13.159   5.329  1.00  0.00     0.007 A 
HETATM   27  C16 UNK     1      19.738  13.024   4.143  1.00  0.00     0.001 A 
HETATM   28  C20 UNK     1      20.949  13.696   3.985  1.00  0.00     0.000 A 
HETATM   29  C17 UNK     1      21.438  14.503   5.011  1.00  0.00     0.001 A 
HETATM   30  C14 UNK     1      20.715  14.638   6.197  1.00  0.00     0.007 A 
ENDBRANCH  24  25
ENDBRANCH   4  24
TORSDOF 6
ENDMDL
MODEL 10
REMARK VINA RESULT:      -8.9     22.676     25.398
REMARK  6 active torsions:
REMARK  status: ('A' for Active; 'I' for Inactive)
REMARK    1  A    between atoms: C11_15  and  O2_2 
REMARK    2  A    between atoms: C15_19  and  O2_2 
REMARK    3  A    between atoms: C2_6  and  C4_8 
REMARK    4  A    between atoms: C4_8  and  C7_11 
REMARK    5  A    between atoms: C15_19  and  C18_22 
REMARK    6  A    between atoms: C18_22  and  C19_23 
ROOT
HETATM    1  O1  UNK     1      15.940   6.339   9.783  1.00  0.00    -0.274 OA
HETATM    2  O3  UNK     1      14.813   4.369   9.733  1.00  0.00    -0.259 OA
HETATM    3  C1  UNK     1      13.454   7.695   9.766  1.00  0.00    -0.036 A 
HETATM    4  C2  UNK     1      13.483   6.346   9.717  1.00  0.00     0.029 A 
HETATM    5  C3  UNK     1      14.725   8.447   9.788  1.00  0.00     0.005 A 
HETATM    6  C5  UNK     1      15.926   7.742   9.798  1.00  0.00     0.092 A 
HETATM    7  C6  UNK     1      14.772   5.596   9.741  1.00  0.00     0.295 A 
HETATM    8  C8  UNK     1      14.807   9.849   9.790  1.00  0.00     0.017 A 
HETATM    9  C9  UNK     1      12.182   8.503   9.815  1.00  0.00     0.050 C 
HETATM   10  C10 UNK     1      17.171   8.375   9.819  1.00  0.00     0.075 A 
HETATM   11  C11 UNK     1      17.228   9.764   9.827  1.00  0.00     0.072 A 
HETATM   12  C12 UNK     1      16.047  10.501   9.811  1.00  0.00     0.038 A 
ENDROOT
BRANCH  11  13
HETATM   13  O2  UNK     1      18.430  10.400   9.848  1.00  0.00    -0.344 OA
BRANCH  13  14
HETATM   14  C15 UNK     1      18.504  11.671   9.204  1.00  0.00     0.259 C 
BRANCH  14  15
HETATM   15  C18 UNK     1      19.940  11.975   8.819  1.00  0.00     0.183 C 
HETATM   16  O4  UNK     1      20.881  11.675   9.550  1.00  0.00    -0.290 OA
BRANCH  15  17
HETATM   17  C19 UNK     1      20.205  12.658   7.520  1.00  0.00     0.012 A 
HETATM   18  C21 UNK     1      19.216  12.660   6.562  1.00  0.00     0.016 A 
HETATM   19  C24 UNK     1      19.464  13.298   5.346  1.00  0.00     0.007 A 
HETATM   20  C23 UNK     1      20.693  13.920   5.123  1.00  0.00    -0.062 A 
HETATM   21  C25 UNK     1      21.674  13.901   6.114  1.00  0.00     0.007 A 
HETATM   22  C26 UNK     1      20.958  14.602   3.823  1.00  0.00     0.048 C 
HETATM   23  C22 UNK     1      21.427  13.262   7.329  1.00  0.00     0.016 A 
ENDBRANCH  15  17
ENDBRANCH  14  15
ENDBRANCH  13  14
ENDBRANCH  11  13
BRANCH   4  24
HETATM   24  C4  UNK     1      12.266   5.460   9.627  1.00  0.00     0.084 C 
BRANCH  24  25
HETATM   25  C7  UNK     1      11.439   5.758   8.412  1.00  0.00    -0.054 A 
HETATM   26  C13 UNK     1      10.059   5.886   8.532  1.00  0.00     0.007 A 
HETATM   27  C16 UNK     1       9.290   6.163   7.402  1.00  0.00     0.001 A 
HETATM   28  C20 UNK     1       9.904   6.311   6.159  1.00  0.00     0.000 A 
HETATM   29  C17 UNK     1      11.288   6.181   6.045  1.00  0.00     0.001 A 
HETATM   30  C14 UNK     1      12.058   5.904   7.176  1.00  0.00     0.007 A 
ENDBRANCH  24  25
ENDBRANCH   4  24
TORSDOF 6
ENDMDL
