MODEL 1
REMARK VINA RESULT:      -8.6      0.000      0.000
REMARK  4 active torsions:
REMARK  status: ('A' for Active; 'I' for Inactive)
REMARK    1  A    between atoms: C9_15  and  O3_3 
REMARK    2  A    between atoms: C6_12  and  N1_6 
REMARK       I    between atoms: C7_13  and  N1_6 
REMARK    3  A    between atoms: C3_9  and  C7_13 
REMARK    4  A    between atoms: C11_17  and  C6_12 
ROOT
HETATM    1  O1  UNK     1      19.102   0.406  28.700  1.00  0.00    -0.274 OA
HETATM    2  O5  UNK     1      18.198   2.406  28.067  1.00  0.00    -0.259 OA
HETATM    3  C1  UNK     1      19.681   0.035  31.032  1.00  0.00     0.002 A 
HETATM    4  C2  UNK     1      19.616  -0.420  29.719  1.00  0.00     0.089 A 
HETATM    5  C3  UNK     1      18.724   2.158  30.363  1.00  0.00     0.108 A 
HETATM    6  C4  UNK     1      19.210   1.376  31.335  1.00  0.00     0.037 A 
HETATM    7  C5  UNK     1      20.196  -0.814  32.015  1.00  0.00     0.051 A 
HETATM    8  C8  UNK     1      20.051  -1.694  29.361  1.00  0.00     0.041 A 
HETATM    9  C9  UNK     1      20.636  -2.096  31.671  1.00  0.00     0.069 A 
HETATM   10  C10 UNK     1      18.644   1.694  28.960  1.00  0.00     0.304 A 
HETATM   11  C12 UNK     1      20.564  -2.535  30.347  1.00  0.00     0.039 A 
ENDROOT
BRANCH   5  12
HETATM   12  C7  UNK     1      18.273   3.493  30.769  1.00  0.00     0.258 C 
HETATM   13  O4  UNK     1      17.410   3.633  31.634  1.00  0.00    -0.267 OA
HETATM   14  N1  UNK     1      18.914   4.510  30.084  1.00  0.00    -0.351 N 
HETATM   15  H6  UNK     1      19.606   4.290  29.373  1.00  0.00     0.163 HD
BRANCH  14  16
HETATM   16  C6  UNK     1      18.638   5.910  30.310  1.00  0.00     0.187 C 
BRANCH  16  17
HETATM   17  C11 UNK     1      19.228   6.399  31.601  1.00  0.00     0.070 A 
HETATM   18  O2  UNK     1      18.412   7.167  32.344  1.00  0.00    -0.325 OA
HETATM   19  C15 UNK     1      19.134   7.495  33.448  1.00  0.00     0.142 A 
HETATM   20  C14 UNK     1      20.389   6.935  33.390  1.00  0.00     0.027 A 
HETATM   21  C13 UNK     1      20.441   6.216  32.171  1.00  0.00     0.036 A 
ENDBRANCH  16  17
ENDBRANCH  14  16
ENDBRANCH   5  12
BRANCH   9  22
HETATM   22  O3  UNK     1      21.139  -2.921  32.631  1.00  0.00    -0.356 OA
HETATM   23  C16 UNK     1      20.603  -2.787  33.946  1.00  0.00     0.210 C 
ENDBRANCH   9  22
TORSDOF 4
ENDMDL
MODEL 2
REMARK VINA RESULT:      -8.5     12.607     16.023
REMARK  4 active torsions:
REMARK  status: ('A' for Active; 'I' for Inactive)
REMARK    1  A    between atoms: C9_15  and  O3_3 
REMARK    2  A    between atoms: C6_12  and  N1_6 
REMARK       I    between atoms: C7_13  and  N1_6 
REMARK    3  A    between atoms: C3_9  and  C7_13 
REMARK    4  A    between atoms: C11_17  and  C6_12 
ROOT
HETATM    1  O1  UNK     1      19.267   1.015  15.538  1.00  0.00    -0.274 OA
HETATM    2  O5  UNK     1      19.415  -0.567  13.896  1.00  0.00    -0.259 OA
HETATM    3  C1  UNK     1      18.984   0.321  17.851  1.00  0.00     0.002 A 
HETATM    4  C2  UNK     1      19.119   1.330  16.903  1.00  0.00     0.089 A 
HETATM    5  C3  UNK     1      19.140  -1.359  16.112  1.00  0.00     0.108 A 
HETATM    6  C4  UNK     1      19.000  -1.065  17.410  1.00  0.00     0.037 A 
HETATM    7  C5  UNK     1      18.841   0.674  19.195  1.00  0.00     0.051 A 
HETATM    8  C8  UNK     1      19.112   2.677  17.258  1.00  0.00     0.041 A 
HETATM    9  C9  UNK     1      18.832   2.022  19.567  1.00  0.00     0.069 A 
HETATM   10  C10 UNK     1      19.285  -0.302  15.086  1.00  0.00     0.304 A 
HETATM   11  C12 UNK     1      18.968   3.021  18.601  1.00  0.00     0.039 A 
ENDROOT
BRANCH   5  12
HETATM   12  C7  UNK     1      19.144  -2.785  15.767  1.00  0.00     0.258 C 
HETATM   13  O4  UNK     1      20.175  -3.450  15.845  1.00  0.00    -0.267 OA
HETATM   14  N1  UNK     1      17.903  -3.245  15.366  1.00  0.00    -0.351 N 
HETATM   15  H6  UNK     1      17.111  -2.610  15.320  1.00  0.00     0.163 HD
BRANCH  14  16
HETATM   16  C6  UNK     1      17.659  -4.615  14.975  1.00  0.00     0.187 C 
BRANCH  16  17
HETATM   17  C11 UNK     1      16.896  -5.372  16.023  1.00  0.00     0.070 A 
HETATM   18  O2  UNK     1      16.186  -4.610  16.873  1.00  0.00    -0.325 OA
HETATM   19  C15 UNK     1      15.585  -5.483  17.724  1.00  0.00     0.142 A 
HETATM   20  C14 UNK     1      15.920  -6.778  17.405  1.00  0.00     0.027 A 
HETATM   21  C13 UNK     1      16.784  -6.695  16.286  1.00  0.00     0.036 A 
ENDBRANCH  16  17
ENDBRANCH  14  16
ENDBRANCH   5  12
BRANCH   9  22
HETATM   22  O3  UNK     1      18.691   2.362  20.879  1.00  0.00    -0.356 OA
HETATM   23  C16 UNK     1      19.782   2.064  21.747  1.00  0.00     0.210 C 
ENDBRANCH   9  22
TORSDOF 4
ENDMDL
MODEL 3
REMARK VINA RESULT:      -8.3      1.820      7.870
REMARK  4 active torsions:
REMARK  status: ('A' for Active; 'I' for Inactive)
REMARK    1  A    between atoms: C9_15  and  O3_3 
REMARK    2  A    between atoms: C6_12  and  N1_6 
REMARK       I    between atoms: C7_13  and  N1_6 
REMARK    3  A    between atoms: C3_9  and  C7_13 
REMARK    4  A    between atoms: C11_17  and  C6_12 
ROOT
HETATM    1  O1  UNK     1      17.767   4.030  33.622  1.00  0.00    -0.274 OA
HETATM    2  O5  UNK     1      17.967   1.933  32.736  1.00  0.00    -0.259 OA
HETATM    3  C1  UNK     1      18.165   5.971  32.213  1.00  0.00     0.002 A 
HETATM    4  C2  UNK     1      17.833   5.426  33.449  1.00  0.00     0.089 A 
HETATM    5  C3  UNK     1      18.379   3.749  31.271  1.00  0.00     0.108 A 
HETATM    6  C4  UNK     1      18.443   5.076  31.102  1.00  0.00     0.037 A 
HETATM    7  C5  UNK     1      18.219   7.361  32.082  1.00  0.00     0.051 A 
HETATM    8  C8  UNK     1      17.555   6.228  34.554  1.00  0.00     0.041 A 
HETATM    9  C9  UNK     1      17.943   8.179  33.182  1.00  0.00     0.069 A 
HETATM   10  C10 UNK     1      18.028   3.148  32.577  1.00  0.00     0.304 A 
HETATM   11  C12 UNK     1      17.612   7.613  34.415  1.00  0.00     0.039 A 
ENDROOT
BRANCH   5  12
HETATM   12  C7  UNK     1      18.676   2.930  30.091  1.00  0.00     0.258 C 
HETATM   13  O4  UNK     1      18.325   3.289  28.968  1.00  0.00    -0.267 OA
HETATM   14  N1  UNK     1      19.361   1.768  30.399  1.00  0.00    -0.351 N 
HETATM   15  H6  UNK     1      19.593   1.553  31.364  1.00  0.00     0.163 HD
BRANCH  14  16
HETATM   16  C6  UNK     1      19.762   0.802  29.403  1.00  0.00     0.187 C 
BRANCH  16  17
HETATM   17  C11 UNK     1      20.139  -0.516  30.017  1.00  0.00     0.070 A 
HETATM   18  O2  UNK     1      20.331  -0.490  31.347  1.00  0.00    -0.325 OA
HETATM   19  C15 UNK     1      20.659  -1.764  31.688  1.00  0.00     0.142 A 
HETATM   20  C14 UNK     1      20.671  -2.575  30.577  1.00  0.00     0.027 A 
HETATM   21  C13 UNK     1      20.329  -1.744  29.482  1.00  0.00     0.036 A 
ENDBRANCH  16  17
ENDBRANCH  14  16
ENDBRANCH   5  12
BRANCH   9  22
HETATM   22  O3  UNK     1      17.998   9.533  33.050  1.00  0.00    -0.356 OA
HETATM   23  C16 UNK     1      17.202  10.305  33.947  1.00  0.00     0.210 C 
ENDBRANCH   9  22
TORSDOF 4
ENDMDL
MODEL 4
REMARK VINA RESULT:      -8.3     14.867     17.077
REMARK  4 active torsions:
REMARK  status: ('A' for Active; 'I' for Inactive)
REMARK    1  A    between atoms: C9_15  and  O3_3 
REMARK    2  A    between atoms: C6_12  and  N1_6 
REMARK       I    between atoms: C7_13  and  N1_6 
REMARK    3  A    between atoms: C3_9  and  C7_13 
REMARK    4  A    between atoms: C11_17  and  C6_12 
ROOT
HETATM    1  O1  UNK     1      19.351  -2.211  12.744  1.00  0.00    -0.274 OA
HETATM    2  O5  UNK     1      19.282  -0.377  14.105  1.00  0.00    -0.259 OA
HETATM    3  C1  UNK     1      18.587  -4.360  13.587  1.00  0.00     0.002 A 
HETATM    4  C2  UNK     1      19.113  -3.587  12.557  1.00  0.00     0.089 A 
HETATM    5  C3  UNK     1      18.515  -2.418  15.033  1.00  0.00     0.108 A 
HETATM    6  C4  UNK     1      18.286  -3.725  14.860  1.00  0.00     0.037 A 
HETATM    7  C5  UNK     1      18.365  -5.721  13.363  1.00  0.00     0.051 A 
HETATM    8  C8  UNK     1      19.423  -4.134  11.314  1.00  0.00     0.041 A 
HETATM    9  C9  UNK     1      18.671  -6.284  12.120  1.00  0.00     0.069 A 
HETATM   10  C10 UNK     1      19.073  -1.576  13.951  1.00  0.00     0.304 A 
HETATM   11  C12 UNK     1      19.199  -5.492  11.098  1.00  0.00     0.039 A 
ENDROOT
BRANCH   5  12
HETATM   12  C7  UNK     1      18.178  -1.869  16.351  1.00  0.00     0.258 C 
HETATM   13  O4  UNK     1      17.056  -2.021  16.831  1.00  0.00    -0.267 OA
HETATM   14  N1  UNK     1      19.234  -1.198  16.941  1.00  0.00    -0.351 N 
HETATM   15  H6  UNK     1      20.122  -1.114  16.455  1.00  0.00     0.163 HD
BRANCH  14  16
HETATM   16  C6  UNK     1      19.143  -0.572  18.240  1.00  0.00     0.187 C 
BRANCH  16  17
HETATM   17  C11 UNK     1      19.168   0.926  18.146  1.00  0.00     0.070 A 
HETATM   18  O2  UNK     1      19.260   1.417  16.898  1.00  0.00    -0.325 OA
HETATM   19  C15 UNK     1      19.267   2.769  17.041  1.00  0.00     0.142 A 
HETATM   20  C14 UNK     1      19.180   3.114  18.370  1.00  0.00     0.027 A 
HETATM   21  C13 UNK     1      19.116   1.896  19.088  1.00  0.00     0.036 A 
ENDBRANCH  16  17
ENDBRANCH  14  16
ENDBRANCH   5  12
BRANCH   9  22
HETATM   22  O3  UNK     1      18.454  -7.611  11.905  1.00  0.00    -0.356 OA
HETATM   23  C16 UNK     1      17.475  -8.249  12.722  1.00  0.00     0.210 C 
ENDBRANCH   9  22
TORSDOF 4
ENDMDL
MODEL 5
REMARK VINA RESULT:      -8.2      3.788      6.421
REMARK  4 active torsions:
REMARK  status: ('A' for Active; 'I' for Inactive)
REMARK    1  A    between atoms: C9_15  and  O3_3 
REMARK    2  A    between atoms: C6_12  and  N1_6 
REMARK       I    between atoms: C7_13  and  N1_6 
REMARK    3  A    between atoms: C3_9  and  C7_13 
REMARK    4  A    between atoms: C11_17  and  C6_12 
ROOT
HETATM    1  O1  UNK     1      20.721  -2.649  31.501  1.00  0.00    -0.274 OA
HETATM    2  O5  UNK     1      20.943  -3.633  33.551  1.00  0.00    -0.259 OA
HETATM    3  C1  UNK     1      19.493  -0.560  31.299  1.00  0.00     0.002 A 
HETATM    4  C2  UNK     1      20.223  -1.590  30.716  1.00  0.00     0.089 A 
HETATM    5  C3  UNK     1      19.726  -1.602  33.474  1.00  0.00     0.108 A 
HETATM    6  C4  UNK     1      19.251  -0.594  32.733  1.00  0.00     0.037 A 
HETATM    7  C5  UNK     1      19.017   0.473  30.488  1.00  0.00     0.051 A 
HETATM    8  C8  UNK     1      20.489  -1.618  29.349  1.00  0.00     0.041 A 
HETATM    9  C9  UNK     1      19.276   0.459  29.114  1.00  0.00     0.069 A 
HETATM   10  C10 UNK     1      20.506  -2.708  32.875  1.00  0.00     0.304 A 
HETATM   11  C12 UNK     1      20.011  -0.585  28.546  1.00  0.00     0.039 A 
ENDROOT
BRANCH   5  12
HETATM   12  C7  UNK     1      19.431  -1.546  34.910  1.00  0.00     0.258 C 
HETATM   13  O4  UNK     1      20.323  -1.336  35.731  1.00  0.00    -0.267 OA
HETATM   14  N1  UNK     1      18.092  -1.752  35.193  1.00  0.00    -0.351 N 
HETATM   15  H6  UNK     1      17.433  -1.933  34.443  1.00  0.00     0.163 HD
BRANCH  14  16
HETATM   16  C6  UNK     1      17.561  -1.744  36.537  1.00  0.00     0.187 C 
BRANCH  16  17
HETATM   17  C11 UNK     1      17.274  -0.352  37.021  1.00  0.00     0.070 A 
HETATM   18  O2  UNK     1      18.048   0.068  38.036  1.00  0.00    -0.325 OA
HETATM   19  C15 UNK     1      17.626   1.331  38.313  1.00  0.00     0.142 A 
HETATM   20  C14 UNK     1      16.596   1.690  37.475  1.00  0.00     0.027 A 
HETATM   21  C13 UNK     1      16.371   0.577  36.630  1.00  0.00     0.036 A 
ENDBRANCH  16  17
ENDBRANCH  14  16
ENDBRANCH   5  12
BRANCH   9  22
HETATM   22  O3  UNK     1      18.810   1.467  28.325  1.00  0.00    -0.356 OA
HETATM   23  C16 UNK     1      17.973   2.441  28.945  1.00  0.00     0.210 C 
ENDBRANCH   9  22
TORSDOF 4
ENDMDL
MODEL 6
REMARK VINA RESULT:      -8.2      1.168      1.417
REMARK  4 active torsions:
REMARK  status: ('A' for Active; 'I' for Inactive)
REMARK    1  A    between atoms: C9_15  and  O3_3 
REMARK    2  A    between atoms: C6_12  and  N1_6 
REMARK       I    between atoms: C7_13  and  N1_6 
REMARK    3  A    between atoms: C3_9  and  C7_13 
REMARK    4  A    between atoms: C11_17  and  C6_12 
ROOT
HETATM    1  O1  UNK     1      19.996  -0.834  29.435  1.00  0.00    -0.274 OA
HETATM    2  O5  UNK     1      19.309   0.954  28.189  1.00  0.00    -0.259 OA
HETATM    3  C1  UNK     1      19.716  -0.794  31.849  1.00  0.00     0.002 A 
HETATM    4  C2  UNK     1      20.140  -1.445  30.696  1.00  0.00     0.089 A 
HETATM    5  C3  UNK     1      18.987   1.104  30.531  1.00  0.00     0.108 A 
HETATM    6  C4  UNK     1      19.121   0.528  31.732  1.00  0.00     0.037 A 
HETATM    7  C5  UNK     1      19.874  -1.433  33.082  1.00  0.00     0.051 A 
HETATM    8  C8  UNK     1      20.718  -2.712  30.739  1.00  0.00     0.041 A 
HETATM    9  C9  UNK     1      20.453  -2.704  33.141  1.00  0.00     0.069 A 
HETATM   10  C10 UNK     1      19.431   0.429  29.291  1.00  0.00     0.304 A 
HETATM   11  C12 UNK     1      20.874  -3.342  31.971  1.00  0.00     0.039 A 
ENDROOT
BRANCH   5  12
HETATM   12  C7  UNK     1      18.375   2.437  30.517  1.00  0.00     0.258 C 
HETATM   13  O4  UNK     1      17.165   2.579  30.690  1.00  0.00    -0.267 OA
HETATM   14  N1  UNK     1      19.292   3.449  30.292  1.00  0.00    -0.351 N 
HETATM   15  H6  UNK     1      20.272   3.227  30.145  1.00  0.00     0.163 HD
BRANCH  14  16
HETATM   16  C6  UNK     1      18.926   4.845  30.233  1.00  0.00     0.187 C 
BRANCH  16  17
HETATM   17  C11 UNK     1      19.079   5.525  31.563  1.00  0.00     0.070 A 
HETATM   18  O2  UNK     1      18.003   5.452  32.366  1.00  0.00    -0.325 OA
HETATM   19  C15 UNK     1      18.352   6.121  33.497  1.00  0.00     0.142 A 
HETATM   20  C14 UNK     1      19.635   6.605  33.395  1.00  0.00     0.027 A 
HETATM   21  C13 UNK     1      20.105   6.209  32.120  1.00  0.00     0.036 A 
ENDBRANCH  16  17
ENDBRANCH  14  16
ENDBRANCH   5  12
BRANCH   9  22
HETATM   22  O3  UNK     1      20.607  -3.324  34.344  1.00  0.00    -0.356 OA
HETATM   23  C16 UNK     1      20.294  -2.565  35.509  1.00  0.00     0.210 C 
ENDBRANCH   9  22
TORSDOF 4
ENDMDL
MODEL 7
REMARK VINA RESULT:      -8.0      3.403      8.694
REMARK  4 active torsions:
REMARK  status: ('A' for Active; 'I' for Inactive)
REMARK    1  A    between atoms: C9_15  and  O3_3 
REMARK    2  A    between atoms: C6_12  and  N1_6 
REMARK       I    between atoms: C7_13  and  N1_6 
REMARK    3  A    between atoms: C3_9  and  C7_13 
REMARK    4  A    between atoms: C11_17  and  C6_12 
ROOT
HETATM    1  O1  UNK     1      20.813  -2.769  30.812  1.00  0.00    -0.274 OA
HETATM    2  O5  UNK     1      21.366  -4.213  32.493  1.00  0.00    -0.259 OA
HETATM    3  C1  UNK     1      19.721  -0.664  31.348  1.00  0.00     0.002 A 
HETATM    4  C2  UNK     1      20.247  -1.544  30.407  1.00  0.00     0.089 A 
HETATM    5  C3  UNK     1      20.304  -2.194  33.133  1.00  0.00     0.108 A 
HETATM    6  C4  UNK     1      19.765  -1.029  32.755  1.00  0.00     0.037 A 
HETATM    7  C5  UNK     1      19.168   0.541  30.908  1.00  0.00     0.051 A 
HETATM    8  C8  UNK     1      20.235  -1.255  29.045  1.00  0.00     0.041 A 
HETATM    9  C9  UNK     1      19.149   0.845  29.543  1.00  0.00     0.069 A 
HETATM   10  C10 UNK     1      20.870  -3.145  32.150  1.00  0.00     0.304 A 
HETATM   11  C12 UNK     1      19.682  -0.051  28.614  1.00  0.00     0.039 A 
ENDROOT
BRANCH   5  12
HETATM   12  C7  UNK     1      20.303  -2.471  34.574  1.00  0.00     0.258 C 
HETATM   13  O4  UNK     1      20.612  -1.600  35.385  1.00  0.00    -0.267 OA
HETATM   14  N1  UNK     1      19.931  -3.770  34.872  1.00  0.00    -0.351 N 
HETATM   15  H6  UNK     1      19.708  -4.422  34.126  1.00  0.00     0.163 HD
BRANCH  14  16
HETATM   16  C6  UNK     1      19.857  -4.278  36.223  1.00  0.00     0.187 C 
BRANCH  16  17
HETATM   17  C11 UNK     1      19.800  -5.778  36.258  1.00  0.00     0.070 A 
HETATM   18  O2  UNK     1      20.482  -6.397  35.279  1.00  0.00    -0.325 OA
HETATM   19  C15 UNK     1      20.298  -7.726  35.497  1.00  0.00     0.142 A 
HETATM   20  C14 UNK     1      19.507  -7.930  36.603  1.00  0.00     0.027 A 
HETATM   21  C13 UNK     1      19.184  -6.643  37.097  1.00  0.00     0.036 A 
ENDBRANCH  16  17
ENDBRANCH  14  16
ENDBRANCH   5  12
BRANCH   9  22
HETATM   22  O3  UNK     1      18.609   2.021  29.118  1.00  0.00    -0.356 OA
HETATM   23  C16 UNK     1      18.673   3.126  30.016  1.00  0.00     0.210 C 
ENDBRANCH   9  22
TORSDOF 4
ENDMDL
MODEL 8
REMARK VINA RESULT:      -8.0     13.538     16.900
REMARK  4 active torsions:
REMARK  status: ('A' for Active; 'I' for Inactive)
REMARK    1  A    between atoms: C9_15  and  O3_3 
REMARK    2  A    between atoms: C6_12  and  N1_6 
REMARK       I    between atoms: C7_13  and  N1_6 
REMARK    3  A    between atoms: C3_9  and  C7_13 
REMARK    4  A    between atoms: C11_17  and  C6_12 
ROOT
HETATM    1  O1  UNK     1      19.360   1.110  15.551  1.00  0.00    -0.274 OA
HETATM    2  O5  UNK     1      19.377  -0.423  13.857  1.00  0.00    -0.259 OA
HETATM    3  C1  UNK     1      18.863   0.388  17.819  1.00  0.00     0.002 A 
HETATM    4  C2  UNK     1      19.185   1.399  16.918  1.00  0.00     0.089 A 
HETATM    5  C3  UNK     1      18.879  -1.240  16.024  1.00  0.00     0.108 A 
HETATM    6  C4  UNK     1      18.712  -0.971  17.325  1.00  0.00     0.037 A 
HETATM    7  C5  UNK     1      18.698   0.714  19.167  1.00  0.00     0.051 A 
HETATM    8  C8  UNK     1      19.344   2.722  17.326  1.00  0.00     0.041 A 
HETATM    9  C9  UNK     1      18.855   2.037  19.591  1.00  0.00     0.069 A 
HETATM   10  C10 UNK     1      19.222  -0.180  15.049  1.00  0.00     0.304 A 
HETATM   11  C12 UNK     1      19.178   3.038  18.673  1.00  0.00     0.039 A 
ENDROOT
BRANCH   5  12
HETATM   12  C7  UNK     1      18.706  -2.640  15.624  1.00  0.00     0.258 C 
HETATM   13  O4  UNK     1      17.585  -3.107  15.426  1.00  0.00    -0.267 OA
HETATM   14  N1  UNK     1      19.905  -3.321  15.510  1.00  0.00    -0.351 N 
HETATM   15  H6  UNK     1      20.782  -2.848  15.711  1.00  0.00     0.163 HD
BRANCH  14  16
HETATM   16  C6  UNK     1      19.989  -4.712  15.130  1.00  0.00     0.187 C 
BRANCH  16  17
HETATM   17  C11 UNK     1      19.752  -4.910  13.661  1.00  0.00     0.070 A 
HETATM   18  O2  UNK     1      20.659  -4.331  12.855  1.00  0.00    -0.325 OA
HETATM   19  C15 UNK     1      20.260  -4.630  11.590  1.00  0.00     0.142 A 
HETATM   20  C14 UNK     1      19.113  -5.388  11.612  1.00  0.00     0.027 A 
HETATM   21  C13 UNK     1      18.786  -5.566  12.978  1.00  0.00     0.036 A 
ENDBRANCH  16  17
ENDBRANCH  14  16
ENDBRANCH   5  12
BRANCH   9  22
HETATM   22  O3  UNK     1      18.693   2.351  20.907  1.00  0.00    -0.356 OA
HETATM   23  C16 UNK     1      19.784   2.071  21.780  1.00  0.00     0.210 C 
ENDBRANCH   9  22
TORSDOF 4
ENDMDL
MODEL 9
REMARK VINA RESULT:      -7.9     15.062     17.361
REMARK  4 active torsions:
REMARK  status: ('A' for Active; 'I' for Inactive)
REMARK    1  A    between atoms: C9_15  and  O3_3 
REMARK    2  A    between atoms: C6_12  and  N1_6 
REMARK       I    between atoms: C7_13  and  N1_6 
REMARK    3  A    between atoms: C3_9  and  C7_13 
REMARK    4  A    between atoms: C11_17  and  C6_12 
ROOT
HETATM    1  O1  UNK     1      18.355  -4.465  13.657  1.00  0.00    -0.274 OA
HETATM    2  O5  UNK     1      17.336  -4.569  15.699  1.00  0.00    -0.259 OA
HETATM    3  C1  UNK     1      19.521  -2.435  13.000  1.00  0.00     0.002 A 
HETATM    4  C2  UNK     1      19.111  -3.734  12.719  1.00  0.00     0.089 A 
HETATM    5  C3  UNK     1      18.440  -2.542  15.166  1.00  0.00     0.108 A 
HETATM    6  C4  UNK     1      19.159  -1.844  14.278  1.00  0.00     0.037 A 
HETATM    7  C5  UNK     1      20.270  -1.743  12.045  1.00  0.00     0.051 A 
HETATM    8  C8  UNK     1      19.424  -4.358  11.513  1.00  0.00     0.041 A 
HETATM    9  C9  UNK     1      20.592  -2.356  10.831  1.00  0.00     0.069 A 
HETATM   10  C10 UNK     1      17.993  -3.925  14.888  1.00  0.00     0.304 A 
HETATM   11  C12 UNK     1      20.170  -3.661  10.566  1.00  0.00     0.039 A 
ENDROOT
BRANCH   5  12
HETATM   12  C7  UNK     1      18.126  -1.860  16.426  1.00  0.00     0.258 C 
HETATM   13  O4  UNK     1      16.986  -1.880  16.887  1.00  0.00    -0.267 OA
HETATM   14  N1  UNK     1      19.223  -1.230  16.986  1.00  0.00    -0.351 N 
HETATM   15  H6  UNK     1      20.124  -1.259  16.517  1.00  0.00     0.163 HD
BRANCH  14  16
HETATM   16  C6  UNK     1      19.159  -0.492  18.227  1.00  0.00     0.187 C 
BRANCH  16  17
HETATM   17  C11 UNK     1      19.216   0.992  18.003  1.00  0.00     0.070 A 
HETATM   18  O2  UNK     1      19.320   1.732  19.120  1.00  0.00    -0.325 OA
HETATM   19  C15 UNK     1      19.354   3.023  18.695  1.00  0.00     0.142 A 
HETATM   20  C14 UNK     1      19.271   3.082  17.323  1.00  0.00     0.027 A 
HETATM   21  C13 UNK     1      19.180   1.742  16.877  1.00  0.00     0.036 A 
ENDBRANCH  16  17
ENDBRANCH  14  16
ENDBRANCH   5  12
BRANCH   9  22
HETATM   22  O3  UNK     1      21.322  -1.678   9.901  1.00  0.00    -0.356 OA
HETATM   23  C16 UNK     1      21.955  -2.451   8.884  1.00  0.00     0.210 C 
ENDBRANCH   9  22
TORSDOF 4
ENDMDL
MODEL 10
REMARK VINA RESULT:      -7.8      2.161      7.968
REMARK  4 active torsions:
REMARK  status: ('A' for Active; 'I' for Inactive)
REMARK    1  A    between atoms: C9_15  and  O3_3 
REMARK    2  A    between atoms: C6_12  and  N1_6 
REMARK       I    between atoms: C7_13  and  N1_6 
REMARK    3  A    between atoms: C3_9  and  C7_13 
REMARK    4  A    between atoms: C11_17  and  C6_12 
ROOT
HETATM    1  O1  UNK     1      20.369   6.817  32.594  1.00  0.00    -0.274 OA
HETATM    2  O5  UNK     1      21.420   5.439  31.105  1.00  0.00    -0.259 OA
HETATM    3  C1  UNK     1      17.941   6.835  32.705  1.00  0.00     0.002 A 
HETATM    4  C2  UNK     1      19.172   7.304  33.153  1.00  0.00     0.089 A 
HETATM    5  C3  UNK     1      19.051   5.374  31.124  1.00  0.00     0.108 A 
HETATM    6  C4  UNK     1      17.911   5.833  31.652  1.00  0.00     0.037 A 
HETATM    7  C5  UNK     1      16.775   7.343  33.285  1.00  0.00     0.051 A 
HETATM    8  C8  UNK     1      19.270   8.264  34.158  1.00  0.00     0.041 A 
HETATM    9  C9  UNK     1      16.858   8.306  34.295  1.00  0.00     0.069 A 
HETATM   10  C10 UNK     1      20.372   5.858  31.585  1.00  0.00     0.304 A 
HETATM   11  C12 UNK     1      18.103   8.765  34.730  1.00  0.00     0.039 A 
ENDROOT
BRANCH   5  12
HETATM   12  C7  UNK     1      18.917   4.365  30.068  1.00  0.00     0.258 C 
HETATM   13  O4  UNK     1      18.682   4.693  28.906  1.00  0.00    -0.267 OA
HETATM   14  N1  UNK     1      19.080   3.072  30.534  1.00  0.00    -0.351 N 
HETATM   15  H6  UNK     1      19.258   2.903  31.520  1.00  0.00     0.163 HD
BRANCH  14  16
HETATM   16  C6  UNK     1      18.991   1.909  29.681  1.00  0.00     0.187 C 
BRANCH  16  17
HETATM   17  C11 UNK     1      19.464   0.665  30.375  1.00  0.00     0.070 A 
HETATM   18  O2  UNK     1      18.738   0.299  31.445  1.00  0.00    -0.325 OA
HETATM   19  C15 UNK     1      19.330  -0.832  31.913  1.00  0.00     0.142 A 
HETATM   20  C14 UNK     1      20.417  -1.165  31.138  1.00  0.00     0.027 A 
HETATM   21  C13 UNK     1      20.497  -0.174  30.129  1.00  0.00     0.036 A 
ENDBRANCH  16  17
ENDBRANCH  14  16
ENDBRANCH   5  12
BRANCH   9  22
HETATM   22  O3  UNK     1      15.720   8.799  34.857  1.00  0.00    -0.356 OA
HETATM   23  C16 UNK     1      14.524   8.710  34.085  1.00  0.00     0.210 C 
ENDBRANCH   9  22
TORSDOF 4
ENDMDL
