MODEL 1
REMARK VINA RESULT:     -10.3      0.000      0.000
REMARK  3 active torsions:
REMARK  status: ('A' for Active; 'I' for Inactive)
REMARK    1  A    between atoms: C1_8  and  N2_6 
REMARK       I    between atoms: C8_15  and  N2_6 
REMARK    2  A    between atoms: C2_9  and  C5_12 
REMARK    3  A    between atoms: C7_14  and  C8_15 
ROOT
HETATM    1  O2  UNK     1      21.540  -2.052  34.987  1.00  0.00    -0.267 OA
HETATM    2  N2  UNK     1      19.285  -2.212  34.328  1.00  0.00    -0.306 N 
HETATM    3  C8  UNK     1      20.432  -2.585  35.015  1.00  0.00     0.263 C 
HETATM    4  H1  UNK     1      18.516  -2.877  34.309  1.00  0.00     0.170 HD
ENDROOT
BRANCH   2   5
HETATM    5  C1  UNK     1      19.129  -1.126  33.432  1.00  0.00     0.146 A 
HETATM    6  N1  UNK     1      19.562  -1.183  32.159  1.00  0.00    -0.290 N 
HETATM    7  C3  UNK     1      19.236   0.052  31.605  1.00  0.00     0.136 A 
HETATM    8  C4  UNK     1      20.203  -2.198  31.454  1.00  0.00     0.100 A 
HETATM    9  N3  UNK     1      18.637   0.827  32.486  1.00  0.00    -0.226 NA
HETATM   10  C6  UNK     1      19.588   0.263  30.240  1.00  0.00     0.051 A 
HETATM   11  C2  UNK     1      18.570   0.081  33.636  1.00  0.00     0.120 A 
HETATM   12  C11 UNK     1      20.209  -0.715  29.552  1.00  0.00     0.005 A 
HETATM   13  C10 UNK     1      20.531  -1.992  30.168  1.00  0.00     0.018 A 
BRANCH  11  14
HETATM   14  C5  UNK     1      17.969   0.575  34.885  1.00  0.00     0.037 A 
HETATM   15  C14 UNK     1      18.614   1.384  35.798  1.00  0.00     0.022 A 
HETATM   16  C18 UNK     1      17.787   1.706  36.912  1.00  0.00     0.008 A 
HETATM   17  C19 UNK     1      16.539   1.132  36.812  1.00  0.00     0.050 A 
HETATM   18  S1  UNK     1      16.368   0.209  35.379  1.00  0.00    -0.100 SA
ENDBRANCH  11  14
ENDBRANCH   2   5
BRANCH   3  19
HETATM   19  C7  UNK     1      20.213  -3.767  35.857  1.00  0.00     0.108 A 
HETATM   20  C12 UNK     1      20.121  -4.939  35.219  1.00  0.00     0.037 A 
HETATM   21  C9  UNK     1      19.905  -6.167  35.968  1.00  0.00    -0.001 A 
HETATM   22  C13 UNK     1      19.795  -6.100  37.353  1.00  0.00     0.089 A 
HETATM   23  C16 UNK     1      19.803  -7.413  35.343  1.00  0.00     0.014 A 
HETATM   24  O1  UNK     1      19.892  -4.863  38.020  1.00  0.00    -0.274 OA
HETATM   25  C17 UNK     1      19.587  -7.239  38.128  1.00  0.00     0.038 A 
HETATM   26  C15 UNK     1      20.100  -3.671  37.330  1.00  0.00     0.304 A 
HETATM   27  O3  UNK     1      20.183  -2.599  37.919  1.00  0.00    -0.259 OA
HETATM   28  C21 UNK     1      19.486  -8.477  37.498  1.00  0.00     0.003 A 
HETATM   29  C20 UNK     1      19.594  -8.564  36.107  1.00  0.00     0.001 A 
ENDBRANCH   3  19
TORSDOF 3
ENDMDL
MODEL 2
REMARK VINA RESULT:     -10.3      5.126      8.929
REMARK  3 active torsions:
REMARK  status: ('A' for Active; 'I' for Inactive)
REMARK    1  A    between atoms: C1_8  and  N2_6 
REMARK       I    between atoms: C8_15  and  N2_6 
REMARK    2  A    between atoms: C2_9  and  C5_12 
REMARK    3  A    between atoms: C7_14  and  C8_15 
ROOT
HETATM    1  O2  UNK     1      17.267   2.633  30.721  1.00  0.00    -0.267 OA
HETATM    2  N2  UNK     1      18.774   2.159  32.468  1.00  0.00    -0.306 N 
HETATM    3  C8  UNK     1      18.011   2.972  31.640  1.00  0.00     0.263 C 
HETATM    4  H1  UNK     1      19.483   2.612  33.039  1.00  0.00     0.170 HD
ENDROOT
BRANCH   2   5
HETATM    5  C1  UNK     1      18.868   0.747  32.442  1.00  0.00     0.146 A 
HETATM    6  N1  UNK     1      19.459   0.089  31.427  1.00  0.00    -0.290 N 
HETATM    7  C3  UNK     1      19.356  -1.260  31.755  1.00  0.00     0.136 A 
HETATM    8  C4  UNK     1      20.065   0.555  30.263  1.00  0.00     0.100 A 
HETATM    9  N3  UNK     1      18.738  -1.426  32.907  1.00  0.00    -0.226 NA
HETATM   10  C6  UNK     1      19.912  -2.195  30.834  1.00  0.00     0.051 A 
HETATM   11  C2  UNK     1      18.433  -0.159  33.337  1.00  0.00     0.120 A 
HETATM   12  C11 UNK     1      20.500  -1.751  29.706  1.00  0.00     0.005 A 
HETATM   13  C10 UNK     1      20.586  -0.332  29.400  1.00  0.00     0.018 A 
BRANCH  11  14
HETATM   14  C5  UNK     1      17.728   0.117  34.599  1.00  0.00     0.037 A 
HETATM   15  C14 UNK     1      16.363   0.012  34.772  1.00  0.00     0.022 A 
HETATM   16  C18 UNK     1      15.962   0.340  36.099  1.00  0.00     0.008 A 
HETATM   17  C19 UNK     1      17.033   0.682  36.894  1.00  0.00     0.050 A 
HETATM   18  S1  UNK     1      18.517   0.608  36.040  1.00  0.00    -0.100 SA
ENDBRANCH  11  14
ENDBRANCH   2   5
BRANCH   3  19
HETATM   19  C7  UNK     1      18.165   4.395  31.965  1.00  0.00     0.108 A 
HETATM   20  C12 UNK     1      17.532   4.822  33.064  1.00  0.00     0.037 A 
HETATM   21  C9  UNK     1      17.627   6.217  33.468  1.00  0.00    -0.001 A 
HETATM   22  C13 UNK     1      18.380   7.092  32.695  1.00  0.00     0.089 A 
HETATM   23  C16 UNK     1      16.984   6.706  34.608  1.00  0.00     0.014 A 
HETATM   24  O1  UNK     1      19.043   6.637  31.538  1.00  0.00    -0.274 OA
HETATM   25  C17 UNK     1      18.510   8.439  33.027  1.00  0.00     0.038 A 
HETATM   26  C15 UNK     1      18.973   5.308  31.127  1.00  0.00     0.304 A 
HETATM   27  O3  UNK     1      19.554   4.921  30.118  1.00  0.00    -0.259 OA
HETATM   28  C21 UNK     1      17.866   8.920  34.164  1.00  0.00     0.003 A 
HETATM   29  C20 UNK     1      17.104   8.055  34.954  1.00  0.00     0.001 A 
ENDBRANCH   3  19
TORSDOF 3
ENDMDL
MODEL 3
REMARK VINA RESULT:      -9.6      2.013      4.649
REMARK  3 active torsions:
REMARK  status: ('A' for Active; 'I' for Inactive)
REMARK    1  A    between atoms: C1_8  and  N2_6 
REMARK       I    between atoms: C8_15  and  N2_6 
REMARK    2  A    between atoms: C2_9  and  C5_12 
REMARK    3  A    between atoms: C7_14  and  C8_15 
ROOT
HETATM    1  O2  UNK     1      21.343  -3.354  36.879  1.00  0.00    -0.267 OA
HETATM    2  N2  UNK     1      19.250  -3.311  35.801  1.00  0.00    -0.306 N 
HETATM    3  C8  UNK     1      20.337  -3.901  36.433  1.00  0.00     0.263 C 
HETATM    4  H1  UNK     1      18.602  -3.927  35.317  1.00  0.00     0.170 HD
ENDROOT
BRANCH   2   5
HETATM    5  C1  UNK     1      19.053  -1.936  35.527  1.00  0.00     0.146 A 
HETATM    6  N1  UNK     1      18.577  -1.083  36.454  1.00  0.00    -0.290 N 
HETATM    7  C3  UNK     1      18.524   0.155  35.821  1.00  0.00     0.136 A 
HETATM    8  C4  UNK     1      18.193  -1.290  37.777  1.00  0.00     0.100 A 
HETATM    9  N3  UNK     1      18.942   0.073  34.575  1.00  0.00    -0.226 NA
HETATM   10  C6  UNK     1      18.048   1.256  36.591  1.00  0.00     0.051 A 
HETATM   11  C2  UNK     1      19.276  -1.246  34.393  1.00  0.00     0.120 A 
HETATM   12  C11 UNK     1      17.675   1.064  37.871  1.00  0.00     0.005 A 
HETATM   13  C10 UNK     1      17.746  -0.247  38.495  1.00  0.00     0.018 A 
BRANCH  11  14
HETATM   14  C5  UNK     1      19.793  -1.780  33.124  1.00  0.00     0.037 A 
HETATM   15  C14 UNK     1      20.767  -2.752  33.023  1.00  0.00     0.022 A 
HETATM   16  C18 UNK     1      21.069  -3.074  31.668  1.00  0.00     0.008 A 
HETATM   17  C19 UNK     1      20.316  -2.337  30.782  1.00  0.00     0.050 A 
HETATM   18  S1  UNK     1      19.249  -1.262  31.582  1.00  0.00    -0.100 SA
ENDBRANCH  11  14
ENDBRANCH   2   5
BRANCH   3  19
HETATM   19  C7  UNK     1      20.189  -5.357  36.543  1.00  0.00     0.108 A 
HETATM   20  C12 UNK     1      20.095  -5.850  37.784  1.00  0.00     0.037 A 
HETATM   21  C9  UNK     1      19.945  -7.282  37.994  1.00  0.00    -0.001 A 
HETATM   22  C13 UNK     1      19.905  -8.124  36.888  1.00  0.00     0.089 A 
HETATM   23  C16 UNK     1      19.842  -7.839  39.271  1.00  0.00     0.014 A 
HETATM   24  O1  UNK     1      20.007  -7.600  35.585  1.00  0.00    -0.274 OA
HETATM   25  C17 UNK     1      19.765  -9.504  37.022  1.00  0.00     0.038 A 
HETATM   26  C15 UNK     1      20.149  -6.234  35.352  1.00  0.00     0.304 A 
HETATM   27  O3  UNK     1      20.236  -5.787  34.213  1.00  0.00    -0.259 OA
HETATM   28  C21 UNK     1      19.663 -10.052  38.298  1.00  0.00     0.003 A 
HETATM   29  C20 UNK     1      19.700  -9.222  39.421  1.00  0.00     0.001 A 
ENDBRANCH   3  19
TORSDOF 3
ENDMDL
MODEL 4
REMARK VINA RESULT:      -9.4     17.070     20.705
REMARK  3 active torsions:
REMARK  status: ('A' for Active; 'I' for Inactive)
REMARK    1  A    between atoms: C1_8  and  N2_6 
REMARK       I    between atoms: C8_15  and  N2_6 
REMARK    2  A    between atoms: C2_9  and  C5_12 
REMARK    3  A    between atoms: C7_14  and  C8_15 
ROOT
HETATM    1  O2  UNK     1      20.511  -3.245  16.062  1.00  0.00    -0.267 OA
HETATM    2  N2  UNK     1      18.449  -2.958  14.960  1.00  0.00    -0.306 N 
HETATM    3  C8  UNK     1      19.512  -2.589  15.773  1.00  0.00     0.263 C 
HETATM    4  H1  UNK     1      17.615  -2.378  14.991  1.00  0.00     0.170 HD
ENDROOT
BRANCH   2   5
HETATM    5  C1  UNK     1      18.274  -4.183  14.272  1.00  0.00     0.146 A 
HETATM    6  N1  UNK     1      17.647  -5.234  14.834  1.00  0.00    -0.290 N 
HETATM    7  C3  UNK     1      17.671  -6.236  13.867  1.00  0.00     0.136 A 
HETATM    8  C4  UNK     1      17.070  -5.391  16.092  1.00  0.00     0.100 A 
HETATM    9  N3  UNK     1      18.278  -5.827  12.772  1.00  0.00    -0.226 NA
HETATM   10  C6  UNK     1      17.064  -7.480  14.208  1.00  0.00     0.051 A 
HETATM   11  C2  UNK     1      18.655  -4.533  13.030  1.00  0.00     0.120 A 
HETATM   12  C11 UNK     1      16.504  -7.638  15.423  1.00  0.00     0.005 A 
HETATM   13  C10 UNK     1      16.499  -6.566  16.404  1.00  0.00     0.018 A 
BRANCH  11  14
HETATM   14  C5  UNK     1      19.373  -3.693  12.059  1.00  0.00     0.037 A 
HETATM   15  C14 UNK     1      20.408  -2.838  12.378  1.00  0.00     0.022 A 
HETATM   16  C18 UNK     1      20.913  -2.153  11.236  1.00  0.00     0.008 A 
HETATM   17  C19 UNK     1      20.247  -2.508  10.084  1.00  0.00     0.050 A 
HETATM   18  S1  UNK     1      19.018  -3.663  10.381  1.00  0.00    -0.100 SA
ENDBRANCH  11  14
ENDBRANCH   2   5
BRANCH   3  19
HETATM   19  C7  UNK     1      19.349  -1.235  16.317  1.00  0.00     0.108 A 
HETATM   20  C12 UNK     1      19.208  -1.143  17.644  1.00  0.00     0.037 A 
HETATM   21  C9  UNK     1      19.041   0.157  18.276  1.00  0.00    -0.001 A 
HETATM   22  C13 UNK     1      19.028   1.296  17.478  1.00  0.00     0.089 A 
HETATM   23  C16 UNK     1      18.892   0.300  19.658  1.00  0.00     0.014 A 
HETATM   24  O1  UNK     1      19.174   1.193  16.080  1.00  0.00    -0.274 OA
HETATM   25  C17 UNK     1      18.871   2.570  18.020  1.00  0.00     0.038 A 
HETATM   26  C15 UNK     1      19.338  -0.037  15.448  1.00  0.00     0.304 A 
HETATM   27  O3  UNK     1      19.465  -0.116  14.231  1.00  0.00    -0.259 OA
HETATM   28  C21 UNK     1      18.722   2.704  19.398  1.00  0.00     0.003 A 
HETATM   29  C20 UNK     1      18.734   1.571  20.216  1.00  0.00     0.001 A 
ENDBRANCH   3  19
TORSDOF 3
ENDMDL
MODEL 5
REMARK VINA RESULT:      -9.3      1.268      1.950
REMARK  3 active torsions:
REMARK  status: ('A' for Active; 'I' for Inactive)
REMARK    1  A    between atoms: C1_8  and  N2_6 
REMARK       I    between atoms: C8_15  and  N2_6 
REMARK    2  A    between atoms: C2_9  and  C5_12 
REMARK    3  A    between atoms: C7_14  and  C8_15 
ROOT
HETATM    1  O2  UNK     1      20.708  -1.625  35.723  1.00  0.00    -0.267 OA
HETATM    2  N2  UNK     1      19.492  -2.411  33.866  1.00  0.00    -0.306 N 
HETATM    3  C8  UNK     1      20.180  -2.521  35.067  1.00  0.00     0.263 C 
HETATM    4  H1  UNK     1      19.297  -3.272  33.361  1.00  0.00     0.170 HD
ENDROOT
BRANCH   2   5
HETATM    5  C1  UNK     1      19.238  -1.235  33.120  1.00  0.00     0.146 A 
HETATM    6  N1  UNK     1      19.615  -1.110  31.833  1.00  0.00    -0.290 N 
HETATM    7  C3  UNK     1      19.199   0.163  31.452  1.00  0.00     0.136 A 
HETATM    8  C4  UNK     1      20.276  -1.992  30.983  1.00  0.00     0.100 A 
HETATM    9  N3  UNK     1      18.601   0.788  32.445  1.00  0.00    -0.226 NA
HETATM   10  C6  UNK     1      19.477   0.560  30.111  1.00  0.00     0.051 A 
HETATM   11  C2  UNK     1      18.627  -0.096  33.494  1.00  0.00     0.120 A 
HETATM   12  C11 UNK     1      20.117  -0.289  29.283  1.00  0.00     0.005 A 
HETATM   13  C10 UNK     1      20.533  -1.610  29.721  1.00  0.00     0.018 A 
BRANCH  11  14
HETATM   14  C5  UNK     1      18.058   0.206  34.818  1.00  0.00     0.037 A 
HETATM   15  C14 UNK     1      16.872  -0.311  35.296  1.00  0.00     0.022 A 
HETATM   16  C18 UNK     1      16.572   0.154  36.609  1.00  0.00     0.008 A 
HETATM   17  C19 UNK     1      17.539   1.010  37.087  1.00  0.00     0.050 A 
HETATM   18  S1  UNK     1      18.803   1.250  35.956  1.00  0.00    -0.100 SA
ENDBRANCH  11  14
ENDBRANCH   2   5
BRANCH   3  19
HETATM   19  C7  UNK     1      20.241  -3.907  35.545  1.00  0.00     0.108 A 
HETATM   20  C12 UNK     1      20.093  -4.085  36.863  1.00  0.00     0.037 A 
HETATM   21  C9  UNK     1      20.138  -5.423  37.432  1.00  0.00    -0.001 A 
HETATM   22  C13 UNK     1      20.340  -6.508  36.585  1.00  0.00     0.089 A 
HETATM   23  C16 UNK     1      19.986  -5.656  38.801  1.00  0.00     0.014 A 
HETATM   24  O1  UNK     1      20.497  -6.315  35.199  1.00  0.00    -0.274 OA
HETATM   25  C17 UNK     1      20.394  -7.814  37.066  1.00  0.00     0.038 A 
HETATM   26  C15 UNK     1      20.457  -5.046  34.625  1.00  0.00     0.304 A 
HETATM   27  O3  UNK     1      20.595  -4.888  33.417  1.00  0.00    -0.259 OA
HETATM   28  C21 UNK     1      20.242  -8.038  38.433  1.00  0.00     0.003 A 
HETATM   29  C20 UNK     1      20.038  -6.960  39.299  1.00  0.00     0.001 A 
ENDBRANCH   3  19
TORSDOF 3
ENDMDL
MODEL 6
REMARK VINA RESULT:      -9.1      5.122     10.052
REMARK  3 active torsions:
REMARK  status: ('A' for Active; 'I' for Inactive)
REMARK    1  A    between atoms: C1_8  and  N2_6 
REMARK       I    between atoms: C8_15  and  N2_6 
REMARK    2  A    between atoms: C2_9  and  C5_12 
REMARK    3  A    between atoms: C7_14  and  C8_15 
ROOT
HETATM    1  O2  UNK     1      19.464   3.960  34.609  1.00  0.00    -0.267 OA
HETATM    2  N2  UNK     1      17.920   2.666  33.388  1.00  0.00    -0.306 N 
HETATM    3  C8  UNK     1      18.523   3.838  33.828  1.00  0.00     0.263 C 
HETATM    4  H1  UNK     1      17.031   2.754  32.904  1.00  0.00     0.170 HD
ENDROOT
BRANCH   2   5
HETATM    5  C1  UNK     1      18.256   1.337  33.743  1.00  0.00     0.146 A 
HETATM    6  N1  UNK     1      18.058   0.857  34.985  1.00  0.00    -0.290 N 
HETATM    7  C3  UNK     1      18.504  -0.461  34.944  1.00  0.00     0.136 A 
HETATM    8  C4  UNK     1      17.534   1.459  36.126  1.00  0.00     0.100 A 
HETATM    9  N3  UNK     1      18.951  -0.777  33.747  1.00  0.00    -0.226 NA
HETATM   10  C6  UNK     1      18.406  -1.215  36.150  1.00  0.00     0.051 A 
HETATM   11  C2  UNK     1      18.793   0.358  32.992  1.00  0.00     0.120 A 
HETATM   12  C11 UNK     1      17.899  -0.639  37.258  1.00  0.00     0.005 A 
HETATM   13  C10 UNK     1      17.444   0.742  37.258  1.00  0.00     0.018 A 
BRANCH  11  14
HETATM   14  C5  UNK     1      19.174   0.443  31.573  1.00  0.00     0.037 A 
HETATM   15  C14 UNK     1      18.645   1.346  30.673  1.00  0.00     0.022 A 
HETATM   16  C18 UNK     1      19.202   1.197  29.371  1.00  0.00     0.008 A 
HETATM   17  C19 UNK     1      20.137   0.188  29.320  1.00  0.00     0.050 A 
HETATM   18  S1  UNK     1      20.340  -0.577  30.839  1.00  0.00    -0.100 SA
ENDBRANCH  11  14
ENDBRANCH   2   5
BRANCH   3  19
HETATM   19  C7  UNK     1      17.904   5.032  33.241  1.00  0.00     0.108 A 
HETATM   20  C12 UNK     1      17.174   5.788  34.071  1.00  0.00     0.037 A 
HETATM   21  C9  UNK     1      16.521   6.993  33.582  1.00  0.00    -0.001 A 
HETATM   22  C13 UNK     1      16.667   7.341  32.244  1.00  0.00     0.089 A 
HETATM   23  C16 UNK     1      15.751   7.811  34.412  1.00  0.00     0.014 A 
HETATM   24  O1  UNK     1      17.435   6.541  31.375  1.00  0.00    -0.274 OA
HETATM   25  C17 UNK     1      16.068   8.482  31.713  1.00  0.00     0.038 A 
HETATM   26  C15 UNK     1      18.073   5.384  31.814  1.00  0.00     0.304 A 
HETATM   27  O3  UNK     1      18.740   4.694  31.050  1.00  0.00    -0.259 OA
HETATM   28  C21 UNK     1      15.301   9.292  32.547  1.00  0.00     0.003 A 
HETATM   29  C20 UNK     1      15.143   8.958  33.894  1.00  0.00     0.001 A 
ENDBRANCH   3  19
TORSDOF 3
ENDMDL
MODEL 7
REMARK VINA RESULT:      -8.8     16.700     20.104
REMARK  3 active torsions:
REMARK  status: ('A' for Active; 'I' for Inactive)
REMARK    1  A    between atoms: C1_8  and  N2_6 
REMARK       I    between atoms: C8_15  and  N2_6 
REMARK    2  A    between atoms: C2_9  and  C5_12 
REMARK    3  A    between atoms: C7_14  and  C8_15 
ROOT
HETATM    1  O2  UNK     1      20.513  -3.350  16.032  1.00  0.00    -0.267 OA
HETATM    2  N2  UNK     1      18.445  -3.046  14.947  1.00  0.00    -0.306 N 
HETATM    3  C8  UNK     1      19.511  -2.691  15.763  1.00  0.00     0.263 C 
HETATM    4  H1  UNK     1      17.609  -2.469  14.995  1.00  0.00     0.170 HD
ENDROOT
BRANCH   2   5
HETATM    5  C1  UNK     1      18.269  -4.257  14.235  1.00  0.00     0.146 A 
HETATM    6  N1  UNK     1      18.801  -4.451  13.013  1.00  0.00    -0.290 N 
HETATM    7  C3  UNK     1      18.417  -5.737  12.646  1.00  0.00     0.136 A 
HETATM    8  C4  UNK     1      19.574  -3.618  12.209  1.00  0.00     0.100 A 
HETATM    9  N3  UNK     1      17.691  -6.306  13.586  1.00  0.00    -0.226 NA
HETATM   10  C6  UNK     1      18.854  -6.205  11.372  1.00  0.00     0.051 A 
HETATM   11  C2  UNK     1      17.600  -5.371  14.586  1.00  0.00     0.120 A 
HETATM   12  C11 UNK     1      19.603  -5.404  10.589  1.00  0.00     0.005 A 
HETATM   13  C10 UNK     1      19.982  -4.066  11.010  1.00  0.00     0.018 A 
BRANCH  11  14
HETATM   14  C5  UNK     1      16.864  -5.598  15.840  1.00  0.00     0.037 A 
HETATM   15  C14 UNK     1      16.760  -6.818  16.476  1.00  0.00     0.022 A 
HETATM   16  C18 UNK     1      15.988  -6.738  17.671  1.00  0.00     0.008 A 
HETATM   17  C19 UNK     1      15.530  -5.461  17.906  1.00  0.00     0.050 A 
HETATM   18  S1  UNK     1      16.030  -4.364  16.690  1.00  0.00    -0.100 SA
ENDBRANCH  11  14
ENDBRANCH   2   5
BRANCH   3  19
HETATM   19  C7  UNK     1      19.346  -1.349  16.335  1.00  0.00     0.108 A 
HETATM   20  C12 UNK     1      19.219  -1.285  17.666  1.00  0.00     0.037 A 
HETATM   21  C9  UNK     1      19.052   0.001  18.325  1.00  0.00    -0.001 A 
HETATM   22  C13 UNK     1      19.025   1.156  17.551  1.00  0.00     0.089 A 
HETATM   23  C16 UNK     1      18.917   0.115  19.711  1.00  0.00     0.014 A 
HETATM   24  O1  UNK     1      19.157   1.083  16.150  1.00  0.00    -0.274 OA
HETATM   25  C17 UNK     1      18.867   2.418  18.120  1.00  0.00     0.038 A 
HETATM   26  C15 UNK     1      19.321  -0.133  15.491  1.00  0.00     0.304 A 
HETATM   27  O3  UNK     1      19.435  -0.187  14.272  1.00  0.00    -0.259 OA
HETATM   28  C21 UNK     1      18.732   2.523  19.503  1.00  0.00     0.003 A 
HETATM   29  C20 UNK     1      18.758   1.374  20.297  1.00  0.00     0.001 A 
ENDBRANCH   3  19
TORSDOF 3
ENDMDL
MODEL 8
REMARK VINA RESULT:      -8.6      5.759      9.892
REMARK  3 active torsions:
REMARK  status: ('A' for Active; 'I' for Inactive)
REMARK    1  A    between atoms: C1_8  and  N2_6 
REMARK       I    between atoms: C8_15  and  N2_6 
REMARK    2  A    between atoms: C2_9  and  C5_12 
REMARK    3  A    between atoms: C7_14  and  C8_15 
ROOT
HETATM    1  O2  UNK     1      19.711   4.984  34.038  1.00  0.00    -0.267 OA
HETATM    2  N2  UNK     1      17.776   4.090  33.035  1.00  0.00    -0.306 N 
HETATM    3  C8  UNK     1      18.545   5.065  33.655  1.00  0.00     0.263 C 
HETATM    4  H1  UNK     1      16.776   4.257  32.970  1.00  0.00     0.170 HD
ENDROOT
BRANCH   2   5
HETATM    5  C1  UNK     1      18.164   2.770  32.698  1.00  0.00     0.146 A 
HETATM    6  N1  UNK     1      18.486   2.420  31.438  1.00  0.00    -0.290 N 
HETATM    7  C3  UNK     1      18.806   1.066  31.505  1.00  0.00     0.136 A 
HETATM    8  C4  UNK     1      18.522   3.163  30.262  1.00  0.00     0.100 A 
HETATM    9  N3  UNK     1      18.689   0.608  32.734  1.00  0.00    -0.226 NA
HETATM   10  C6  UNK     1      19.190   0.431  30.287  1.00  0.00     0.051 A 
HETATM   11  C2  UNK     1      18.285   1.684  33.483  1.00  0.00     0.120 A 
HETATM   12  C11 UNK     1      19.227   1.145  29.146  1.00  0.00     0.005 A 
HETATM   13  C10 UNK     1      18.885   2.558  29.120  1.00  0.00     0.018 A 
BRANCH  11  14
HETATM   14  C5  UNK     1      18.031   1.610  34.931  1.00  0.00     0.037 A 
HETATM   15  C14 UNK     1      16.862   1.145  35.498  1.00  0.00     0.022 A 
HETATM   16  C18 UNK     1      16.899   1.189  36.921  1.00  0.00     0.008 A 
HETATM   17  C19 UNK     1      18.094   1.684  37.392  1.00  0.00     0.050 A 
HETATM   18  S1  UNK     1      19.166   2.095  36.121  1.00  0.00    -0.100 SA
ENDBRANCH  11  14
ENDBRANCH   2   5
BRANCH   3  19
HETATM   19  C7  UNK     1      17.804   6.318  33.842  1.00  0.00     0.108 A 
HETATM   20  C12 UNK     1      16.586   6.373  33.290  1.00  0.00     0.037 A 
HETATM   21  C9  UNK     1      15.774   7.573  33.422  1.00  0.00    -0.001 A 
HETATM   22  C13 UNK     1      16.286   8.658  34.125  1.00  0.00     0.089 A 
HETATM   23  C16 UNK     1      14.497   7.673  32.863  1.00  0.00     0.014 A 
HETATM   24  O1  UNK     1      17.570   8.596  34.703  1.00  0.00    -0.274 OA
HETATM   25  C17 UNK     1      15.561   9.837  34.287  1.00  0.00     0.038 A 
HETATM   26  C15 UNK     1      18.369   7.460  34.595  1.00  0.00     0.304 A 
HETATM   27  O3  UNK     1      19.485   7.416  35.101  1.00  0.00    -0.259 OA
HETATM   28  C21 UNK     1      14.288   9.929  33.727  1.00  0.00     0.003 A 
HETATM   29  C20 UNK     1      13.757   8.849  33.017  1.00  0.00     0.001 A 
ENDBRANCH   3  19
TORSDOF 3
ENDMDL
MODEL 9
REMARK VINA RESULT:      -8.5     11.174     13.157
REMARK  3 active torsions:
REMARK  status: ('A' for Active; 'I' for Inactive)
REMARK    1  A    between atoms: C1_8  and  N2_6 
REMARK       I    between atoms: C8_15  and  N2_6 
REMARK    2  A    between atoms: C2_9  and  C5_12 
REMARK    3  A    between atoms: C7_14  and  C8_15 
ROOT
HETATM    1  O2  UNK     1      28.374  -6.317  34.141  1.00  0.00    -0.267 OA
HETATM    2  N2  UNK     1      29.519  -8.062  35.232  1.00  0.00    -0.306 N 
HETATM    3  C8  UNK     1      29.040  -7.350  34.140  1.00  0.00     0.263 C 
HETATM    4  H1  UNK     1      29.877  -8.998  35.057  1.00  0.00     0.170 HD
ENDROOT
BRANCH   2   5
HETATM    5  C1  UNK     1      29.347  -7.758  36.604  1.00  0.00     0.146 A 
HETATM    6  N1  UNK     1      28.448  -8.403  37.371  1.00  0.00    -0.290 N 
HETATM    7  C3  UNK     1      28.572  -7.835  38.636  1.00  0.00     0.136 A 
HETATM    8  C4  UNK     1      27.549  -9.422  37.068  1.00  0.00     0.100 A 
HETATM    9  N3  UNK     1      29.493  -6.894  38.649  1.00  0.00    -0.226 NA
HETATM   10  C6  UNK     1      27.720  -8.343  39.660  1.00  0.00     0.051 A 
HETATM   11  C2  UNK     1      29.980  -6.848  37.367  1.00  0.00     0.120 A 
HETATM   12  C11 UNK     1      26.848  -9.329  39.374  1.00  0.00     0.005 A 
HETATM   13  C10 UNK     1      26.751  -9.895  38.039  1.00  0.00     0.018 A 
BRANCH  11  14
HETATM   14  C5  UNK     1      31.038  -5.920  36.938  1.00  0.00     0.037 A 
HETATM   15  C14 UNK     1      30.916  -4.546  36.925  1.00  0.00     0.022 A 
HETATM   16  C18 UNK     1      32.101  -3.905  36.462  1.00  0.00     0.008 A 
HETATM   17  C19 UNK     1      33.087  -4.810  36.138  1.00  0.00     0.050 A 
HETATM   18  S1  UNK     1      32.583  -6.427  36.392  1.00  0.00    -0.100 SA
ENDBRANCH  11  14
ENDBRANCH   2   5
BRANCH   3  19
HETATM   19  C7  UNK     1      29.420  -7.970  32.865  1.00  0.00     0.108 A 
HETATM   20  C12 UNK     1      28.422  -8.222  32.010  1.00  0.00     0.037 A 
HETATM   21  C9  UNK     1      28.699  -8.835  30.720  1.00  0.00    -0.001 A 
HETATM   22  C13 UNK     1      30.013  -9.155  30.395  1.00  0.00     0.089 A 
HETATM   23  C16 UNK     1      27.689  -9.115  29.796  1.00  0.00     0.014 A 
HETATM   24  O1  UNK     1      31.059  -8.889  31.300  1.00  0.00    -0.274 OA
HETATM   25  C17 UNK     1      30.345  -9.744  29.177  1.00  0.00     0.038 A 
HETATM   26  C15 UNK     1      30.825  -8.301  32.541  1.00  0.00     0.304 A 
HETATM   27  O3  UNK     1      31.743  -8.073  33.321  1.00  0.00    -0.259 OA
HETATM   28  C21 UNK     1      29.332 -10.020  28.261  1.00  0.00     0.003 A 
HETATM   29  C20 UNK     1      28.006  -9.706  28.570  1.00  0.00     0.001 A 
ENDBRANCH   3  19
TORSDOF 3
ENDMDL
MODEL 10
REMARK VINA RESULT:      -8.5     11.411     13.443
REMARK  3 active torsions:
REMARK  status: ('A' for Active; 'I' for Inactive)
REMARK    1  A    between atoms: C1_8  and  N2_6 
REMARK       I    between atoms: C8_15  and  N2_6 
REMARK    2  A    between atoms: C2_9  and  C5_12 
REMARK    3  A    between atoms: C7_14  and  C8_15 
ROOT
HETATM    1  O2  UNK     1      28.613  -5.838  33.578  1.00  0.00    -0.267 OA
HETATM    2  N2  UNK     1      30.262  -7.158  34.620  1.00  0.00    -0.306 N 
HETATM    3  C8  UNK     1      29.479  -6.711  33.564  1.00  0.00     0.263 C 
HETATM    4  H1  UNK     1      30.783  -8.019  34.481  1.00  0.00     0.170 HD
ENDROOT
BRANCH   2   5
HETATM    5  C1  UNK     1      30.241  -6.706  35.962  1.00  0.00     0.146 A 
HETATM    6  N1  UNK     1      29.227  -7.000  36.798  1.00  0.00    -0.290 N 
HETATM    7  C3  UNK     1      29.559  -6.392  38.005  1.00  0.00     0.136 A 
HETATM    8  C4  UNK     1      28.062  -7.737  36.601  1.00  0.00     0.100 A 
HETATM    9  N3  UNK     1      30.711  -5.759  37.920  1.00  0.00    -0.226 NA
HETATM   10  C6  UNK     1      28.640  -6.547  39.084  1.00  0.00     0.051 A 
HETATM   11  C2  UNK     1      31.138  -5.960  36.631  1.00  0.00     0.120 A 
HETATM   12  C11 UNK     1      27.511  -7.259  38.900  1.00  0.00     0.005 A 
HETATM   13  C10 UNK     1      27.201  -7.879  37.622  1.00  0.00     0.018 A 
BRANCH  11  14
HETATM   14  C5  UNK     1      32.400  -5.415  36.105  1.00  0.00     0.037 A 
HETATM   15  C14 UNK     1      32.491  -4.326  35.263  1.00  0.00     0.022 A 
HETATM   16  C18 UNK     1      33.839  -4.024  34.916  1.00  0.00     0.008 A 
HETATM   17  C19 UNK     1      34.731  -4.893  35.504  1.00  0.00     0.050 A 
HETATM   18  S1  UNK     1      33.943  -6.067  36.471  1.00  0.00    -0.100 SA
ENDBRANCH  11  14
ENDBRANCH   2   5
BRANCH   3  19
HETATM   19  C7  UNK     1      29.784  -7.414  32.312  1.00  0.00     0.108 A 
HETATM   20  C12 UNK     1      28.738  -7.920  31.649  1.00  0.00     0.037 A 
HETATM   21  C9  UNK     1      28.940  -8.635  30.397  1.00  0.00    -0.001 A 
HETATM   22  C13 UNK     1      30.234  -8.783  29.908  1.00  0.00     0.089 A 
HETATM   23  C16 UNK     1      27.878  -9.179  29.671  1.00  0.00     0.014 A 
HETATM   24  O1  UNK     1      31.331  -8.249  30.612  1.00  0.00    -0.274 OA
HETATM   25  C17 UNK     1      30.495  -9.456  28.716  1.00  0.00     0.038 A 
HETATM   26  C15 UNK     1      31.169  -7.559  31.811  1.00  0.00     0.304 A 
HETATM   27  O3  UNK     1      32.131  -7.098  32.416  1.00  0.00    -0.259 OA
HETATM   28  C21 UNK     1      29.430  -9.996  27.998  1.00  0.00     0.003 A 
HETATM   29  C20 UNK     1      28.124  -9.857  28.474  1.00  0.00     0.001 A 
ENDBRANCH   3  19
TORSDOF 3
ENDMDL
