MODEL 1
REMARK VINA RESULT:      -9.9      0.000      0.000
REMARK  3 active torsions:
REMARK  status: ('A' for Active; 'I' for Inactive)
REMARK    1  A    between atoms: C11_15  and  N1_4 
REMARK       I    between atoms: C12_16  and  N1_4 
REMARK    2  A    between atoms: C1_5  and  C11_15 
REMARK    3  A    between atoms: C12_16  and  C13_17 
ROOT
HETATM    1  O1  UNK     1      18.235   3.577  28.846  1.00  0.00    -0.267 OA
HETATM    2  N1  UNK     1      18.848   4.445  30.924  1.00  0.00    -0.356 N 
HETATM    3  C12 UNK     1      18.628   3.432  29.999  1.00  0.00     0.257 C 
HETATM    4  H18 UNK     1      19.083   4.197  31.880  1.00  0.00     0.162 HD
ENDROOT
BRANCH   2   5
HETATM    5  C11 UNK     1      18.635   5.829  30.638  1.00  0.00     0.132 C 
BRANCH   5   6
HETATM    6  C1  UNK     1      18.187   6.583  31.893  1.00  0.00    -0.023 C 
HETATM    7  C5  UNK     1      17.192   7.707  31.516  1.00  0.00     0.015 C 
HETATM    8  C2  UNK     1      16.738   8.467  32.775  1.00  0.00    -0.013 C 
HETATM    9  C8  UNK     1      16.056   7.485  33.742  1.00  0.00     0.009 C 
HETATM   10  C9  UNK     1      17.967   9.084  33.463  1.00  0.00     0.009 C 
HETATM   11  C3  UNK     1      17.038   6.372  34.143  1.00  0.00    -0.013 C 
HETATM   12  C10 UNK     1      18.266   7.000  34.824  1.00  0.00     0.009 C 
HETATM   13  C6  UNK     1      17.491   5.617  32.880  1.00  0.00     0.015 C 
HETATM   14  C4  UNK     1      18.959   7.979  33.862  1.00  0.00    -0.013 C 
HETATM   15  C7  UNK     1      19.406   7.220  32.602  1.00  0.00     0.015 C 
ENDBRANCH   5   6
ENDBRANCH   2   5
BRANCH   3  16
HETATM   16  C13 UNK     1      18.922   2.088  30.529  1.00  0.00     0.108 A 
HETATM   17  C14 UNK     1      19.566   1.255  29.704  1.00  0.00     0.037 A 
HETATM   18  C16 UNK     1      19.900  -0.094  30.136  1.00  0.00    -0.001 A 
HETATM   19  C17 UNK     1      19.539  -0.498  31.417  1.00  0.00     0.089 A 
HETATM   20  C18 UNK     1      20.572  -0.996  29.308  1.00  0.00     0.014 A 
HETATM   21  O2  UNK     1      18.861   0.383  32.282  1.00  0.00    -0.274 OA
HETATM   22  C19 UNK     1      19.829  -1.776  31.892  1.00  0.00     0.038 A 
HETATM   23  C15 UNK     1      18.527   1.679  31.896  1.00  0.00     0.304 A 
HETATM   24  O3  UNK     1      17.936   2.440  32.655  1.00  0.00    -0.259 OA
HETATM   25  C21 UNK     1      20.499  -2.670  31.060  1.00  0.00     0.003 A 
HETATM   26  C20 UNK     1      20.869  -2.281  29.771  1.00  0.00     0.001 A 
ENDBRANCH   3  16
TORSDOF 3
ENDMDL
MODEL 2
REMARK VINA RESULT:      -9.4      1.610      2.433
REMARK  3 active torsions:
REMARK  status: ('A' for Active; 'I' for Inactive)
REMARK    1  A    between atoms: C11_15  and  N1_4 
REMARK       I    between atoms: C12_16  and  N1_4 
REMARK    2  A    between atoms: C1_5  and  C11_15 
REMARK    3  A    between atoms: C12_16  and  C13_17 
ROOT
HETATM    1  O1  UNK     1      17.369   2.065  29.306  1.00  0.00    -0.267 OA
HETATM    2  N1  UNK     1      19.277   3.075  30.191  1.00  0.00    -0.356 N 
HETATM    3  C12 UNK     1      18.476   1.999  29.829  1.00  0.00     0.257 C 
HETATM    4  H18 UNK     1      20.136   2.900  30.704  1.00  0.00     0.162 HD
ENDROOT
BRANCH   2   5
HETATM    5  C11 UNK     1      18.899   4.439  29.992  1.00  0.00     0.132 C 
BRANCH   5   6
HETATM    6  C1  UNK     1      18.836   5.188  31.325  1.00  0.00    -0.023 C 
HETATM    7  C5  UNK     1      17.923   6.432  31.200  1.00  0.00     0.015 C 
HETATM    8  C2  UNK     1      17.858   7.187  32.539  1.00  0.00    -0.013 C 
HETATM    9  C8  UNK     1      17.298   6.251  33.622  1.00  0.00     0.009 C 
HETATM   10  C9  UNK     1      19.274   7.633  32.937  1.00  0.00     0.009 C 
HETATM   11  C3  UNK     1      18.205   5.019  33.775  1.00  0.00    -0.013 C 
HETATM   12  C10 UNK     1      19.620   5.476  34.167  1.00  0.00     0.009 C 
HETATM   13  C6  UNK     1      18.270   4.268  32.433  1.00  0.00     0.015 C 
HETATM   14  C4  UNK     1      20.192   6.408  33.086  1.00  0.00    -0.013 C 
HETATM   15  C7  UNK     1      20.251   5.654  31.747  1.00  0.00     0.015 C 
ENDBRANCH   5   6
ENDBRANCH   2   5
BRANCH   3  16
HETATM   16  C13 UNK     1      19.088   0.692  30.132  1.00  0.00     0.108 A 
HETATM   17  C14 UNK     1      19.163   0.361  31.426  1.00  0.00     0.037 A 
HETATM   18  C16 UNK     1      19.751  -0.909  31.826  1.00  0.00    -0.001 A 
HETATM   19  C17 UNK     1      20.231  -1.767  30.841  1.00  0.00     0.089 A 
HETATM   20  C18 UNK     1      19.851  -1.296  33.164  1.00  0.00     0.014 A 
HETATM   21  O2  UNK     1      20.148  -1.413  29.480  1.00  0.00    -0.274 OA
HETATM   22  C19 UNK     1      20.806  -2.997  31.156  1.00  0.00     0.038 A 
HETATM   23  C15 UNK     1      19.592  -0.204  29.068  1.00  0.00     0.304 A 
HETATM   24  O3  UNK     1      19.524   0.096  27.881  1.00  0.00    -0.259 OA
HETATM   25  C21 UNK     1      20.901  -3.375  32.493  1.00  0.00     0.003 A 
HETATM   26  C20 UNK     1      20.425  -2.526  33.495  1.00  0.00     0.001 A 
ENDBRANCH   3  16
TORSDOF 3
ENDMDL
MODEL 3
REMARK VINA RESULT:      -9.2      5.325     10.186
REMARK  3 active torsions:
REMARK  status: ('A' for Active; 'I' for Inactive)
REMARK    1  A    between atoms: C11_15  and  N1_4 
REMARK       I    between atoms: C12_16  and  N1_4 
REMARK    2  A    between atoms: C1_5  and  C11_15 
REMARK    3  A    between atoms: C12_16  and  C13_17 
ROOT
HETATM    1  O1  UNK     1      18.059  -1.625  36.168  1.00  0.00    -0.267 OA
HETATM    2  N1  UNK     1      19.960  -2.866  35.626  1.00  0.00    -0.356 N 
HETATM    3  C12 UNK     1      18.962  -1.927  35.395  1.00  0.00     0.257 C 
HETATM    4  H18 UNK     1      20.600  -3.100  34.873  1.00  0.00     0.162 HD
ENDROOT
BRANCH   2   5
HETATM    5  C11 UNK     1      20.062  -3.623  36.834  1.00  0.00     0.132 C 
BRANCH   5   6
HETATM    6  C1  UNK     1      19.856  -5.115  36.562  1.00  0.00    -0.023 C 
HETATM    7  C5  UNK     1      20.823  -5.957  37.429  1.00  0.00     0.015 C 
HETATM    8  C2  UNK     1      20.618  -7.459  37.159  1.00  0.00    -0.013 C 
HETATM    9  C8  UNK     1      19.167  -7.841  37.495  1.00  0.00     0.009 C 
HETATM   10  C9  UNK     1      20.886  -7.745  35.672  1.00  0.00     0.009 C 
HETATM   11  C3  UNK     1      18.192  -7.027  36.627  1.00  0.00    -0.013 C 
HETATM   12  C10 UNK     1      18.473  -7.317  35.143  1.00  0.00     0.009 C 
HETATM   13  C6  UNK     1      18.403  -5.527  36.898  1.00  0.00     0.015 C 
HETATM   14  C4  UNK     1      19.921  -6.931  34.795  1.00  0.00    -0.013 C 
HETATM   15  C7  UNK     1      20.126  -5.433  35.072  1.00  0.00     0.015 C 
ENDBRANCH   5   6
ENDBRANCH   2   5
BRANCH   3  16
HETATM   16  C13 UNK     1      19.073  -1.275  34.077  1.00  0.00     0.108 A 
HETATM   17  C14 UNK     1      19.670  -1.986  33.114  1.00  0.00     0.037 A 
HETATM   18  C16 UNK     1      19.827  -1.427  31.780  1.00  0.00    -0.001 A 
HETATM   19  C17 UNK     1      19.347  -0.147  31.526  1.00  0.00     0.089 A 
HETATM   20  C18 UNK     1      20.443  -2.133  30.744  1.00  0.00     0.014 A 
HETATM   21  O2  UNK     1      18.719   0.597  32.544  1.00  0.00    -0.274 OA
HETATM   22  C19 UNK     1      19.465   0.447  30.271  1.00  0.00     0.038 A 
HETATM   23  C15 UNK     1      18.555   0.090  33.831  1.00  0.00     0.304 A 
HETATM   24  O3  UNK     1      18.007   0.744  34.711  1.00  0.00    -0.259 OA
HETATM   25  C21 UNK     1      20.082  -0.265  29.244  1.00  0.00     0.003 A 
HETATM   26  C20 UNK     1      20.570  -1.552  29.480  1.00  0.00     0.001 A 
ENDBRANCH   3  16
TORSDOF 3
ENDMDL
MODEL 4
REMARK VINA RESULT:      -9.2      5.732     10.711
REMARK  3 active torsions:
REMARK  status: ('A' for Active; 'I' for Inactive)
REMARK    1  A    between atoms: C11_15  and  N1_4 
REMARK       I    between atoms: C12_16  and  N1_4 
REMARK    2  A    between atoms: C1_5  and  C11_15 
REMARK    3  A    between atoms: C12_16  and  C13_17 
ROOT
HETATM    1  O1  UNK     1      21.119  -1.679  35.375  1.00  0.00    -0.267 OA
HETATM    2  N1  UNK     1      19.807  -3.585  35.070  1.00  0.00    -0.356 N 
HETATM    3  C12 UNK     1      20.501  -2.456  34.654  1.00  0.00     0.257 C 
HETATM    4  H18 UNK     1      19.254  -4.101  34.393  1.00  0.00     0.162 HD
ENDROOT
BRANCH   2   5
HETATM    5  C11 UNK     1      19.720  -3.995  36.436  1.00  0.00     0.132 C 
BRANCH   5   6
HETATM    6  C1  UNK     1      19.865  -5.514  36.561  1.00  0.00    -0.023 C 
HETATM    7  C5  UNK     1      19.976  -6.159  35.159  1.00  0.00     0.015 C 
HETATM    8  C2  UNK     1      20.123  -7.687  35.281  1.00  0.00    -0.013 C 
HETATM    9  C8  UNK     1      21.387  -8.011  36.093  1.00  0.00     0.009 C 
HETATM   10  C9  UNK     1      18.893  -8.255  36.008  1.00  0.00     0.009 C 
HETATM   11  C3  UNK     1      21.285  -7.394  37.498  1.00  0.00    -0.013 C 
HETATM   12  C10 UNK     1      20.049  -7.965  38.214  1.00  0.00     0.009 C 
HETATM   13  C6  UNK     1      21.135  -5.867  37.371  1.00  0.00     0.015 C 
HETATM   14  C4  UNK     1      18.778  -7.640  37.412  1.00  0.00    -0.013 C 
HETATM   15  C7  UNK     1      18.636  -6.114  37.285  1.00  0.00     0.015 C 
ENDBRANCH   5   6
ENDBRANCH   2   5
BRANCH   3  16
HETATM   16  C13 UNK     1      20.447  -2.246  33.195  1.00  0.00     0.108 A 
HETATM   17  C14 UNK     1      19.936  -1.080  32.785  1.00  0.00     0.037 A 
HETATM   18  C16 UNK     1      19.840  -0.780  31.364  1.00  0.00    -0.001 A 
HETATM   19  C17 UNK     1      20.287  -1.724  30.446  1.00  0.00     0.089 A 
HETATM   20  C18 UNK     1      19.313   0.424  30.891  1.00  0.00     0.014 A 
HETATM   21  O2  UNK     1      20.825  -2.950  30.884  1.00  0.00    -0.274 OA
HETATM   22  C19 UNK     1      20.223  -1.500  29.072  1.00  0.00     0.038 A 
HETATM   23  C15 UNK     1      20.929  -3.266  32.237  1.00  0.00     0.304 A 
HETATM   24  O3  UNK     1      21.398  -4.336  32.609  1.00  0.00    -0.259 OA
HETATM   25  C21 UNK     1      19.696  -0.296  28.609  1.00  0.00     0.003 A 
HETATM   26  C20 UNK     1      19.242   0.664  29.516  1.00  0.00     0.001 A 
ENDBRANCH   3  16
TORSDOF 3
ENDMDL
MODEL 5
REMARK VINA RESULT:      -9.1      0.812      1.667
REMARK  3 active torsions:
REMARK  status: ('A' for Active; 'I' for Inactive)
REMARK    1  A    between atoms: C11_15  and  N1_4 
REMARK       I    between atoms: C12_16  and  N1_4 
REMARK    2  A    between atoms: C1_5  and  C11_15 
REMARK    3  A    between atoms: C12_16  and  C13_17 
ROOT
HETATM    1  O1  UNK     1      18.720   4.345  28.953  1.00  0.00    -0.267 OA
HETATM    2  N1  UNK     1      18.456   5.071  31.155  1.00  0.00    -0.356 N 
HETATM    3  C12 UNK     1      18.663   4.126  30.158  1.00  0.00     0.257 C 
HETATM    4  H18 UNK     1      18.333   4.758  32.113  1.00  0.00     0.162 HD
ENDROOT
BRANCH   2   5
HETATM    5  C11 UNK     1      18.275   6.464  30.892  1.00  0.00     0.132 C 
BRANCH   5   6
HETATM    6  C1  UNK     1      17.649   7.171  32.096  1.00  0.00    -0.023 C 
HETATM    7  C5  UNK     1      16.778   6.181  32.906  1.00  0.00     0.015 C 
HETATM    8  C2  UNK     1      16.147   6.888  34.119  1.00  0.00    -0.013 C 
HETATM    9  C8  UNK     1      17.262   7.442  35.020  1.00  0.00     0.009 C 
HETATM   10  C9  UNK     1      15.270   8.051  33.625  1.00  0.00     0.009 C 
HETATM   11  C3  UNK     1      18.126   8.444  34.236  1.00  0.00    -0.013 C 
HETATM   12  C10 UNK     1      17.239   9.599  33.742  1.00  0.00     0.009 C 
HETATM   13  C6  UNK     1      18.752   7.733  33.023  1.00  0.00     0.015 C 
HETATM   14  C4  UNK     1      16.123   9.056  32.834  1.00  0.00    -0.013 C 
HETATM   15  C7  UNK     1      16.755   8.344  31.626  1.00  0.00     0.015 C 
ENDBRANCH   5   6
ENDBRANCH   2   5
BRANCH   3  16
HETATM   16  C13 UNK     1      18.826   2.757  30.681  1.00  0.00     0.108 A 
HETATM   17  C14 UNK     1      19.408   1.876  29.860  1.00  0.00     0.037 A 
HETATM   18  C16 UNK     1      19.612   0.499  30.285  1.00  0.00    -0.001 A 
HETATM   19  C17 UNK     1      19.191   0.119  31.555  1.00  0.00     0.089 A 
HETATM   20  C18 UNK     1      20.215  -0.454  29.461  1.00  0.00     0.014 A 
HETATM   21  O2  UNK     1      18.579   1.051  32.416  1.00  0.00    -0.274 OA
HETATM   22  C19 UNK     1      19.357  -1.183  32.024  1.00  0.00     0.038 A 
HETATM   23  C15 UNK     1      18.370   2.374  32.037  1.00  0.00     0.304 A 
HETATM   24  O3  UNK     1      17.836   3.179  32.792  1.00  0.00    -0.259 OA
HETATM   25  C21 UNK     1      19.959  -2.127  31.195  1.00  0.00     0.003 A 
HETATM   26  C20 UNK     1      20.387  -1.764  29.917  1.00  0.00     0.001 A 
ENDBRANCH   3  16
TORSDOF 3
ENDMDL
MODEL 6
REMARK VINA RESULT:      -8.9     12.246     15.005
REMARK  3 active torsions:
REMARK  status: ('A' for Active; 'I' for Inactive)
REMARK    1  A    between atoms: C11_15  and  N1_4 
REMARK       I    between atoms: C12_16  and  N1_4 
REMARK    2  A    between atoms: C1_5  and  C11_15 
REMARK    3  A    between atoms: C12_16  and  C13_17 
ROOT
HETATM    1  O1  UNK     1      26.018  -9.171  39.550  1.00  0.00    -0.267 OA
HETATM    2  N1  UNK     1      24.667  -7.956  38.086  1.00  0.00    -0.356 N 
HETATM    3  C12 UNK     1      25.804  -8.188  38.849  1.00  0.00     0.257 C 
HETATM    4  H18 UNK     1      24.560  -7.061  37.620  1.00  0.00     0.162 HD
ENDROOT
BRANCH   2   5
HETATM    5  C11 UNK     1      23.566  -8.865  38.020  1.00  0.00     0.132 C 
BRANCH   5   6
HETATM    6  C1  UNK     1      22.234  -8.111  38.001  1.00  0.00    -0.023 C 
HETATM    7  C5  UNK     1      21.683  -8.031  36.556  1.00  0.00     0.015 C 
HETATM    8  C2  UNK     1      20.344  -7.274  36.533  1.00  0.00    -0.013 C 
HETATM    9  C8  UNK     1      19.331  -8.008  37.426  1.00  0.00     0.009 C 
HETATM   10  C9  UNK     1      20.559  -5.851  37.075  1.00  0.00     0.009 C 
HETATM   11  C3  UNK     1      19.853  -8.078  38.870  1.00  0.00    -0.013 C 
HETATM   12  C10 UNK     1      20.070  -6.651  39.400  1.00  0.00     0.009 C 
HETATM   13  C6  UNK     1      21.194  -8.834  38.888  1.00  0.00     0.015 C 
HETATM   14  C4  UNK     1      21.088  -5.910  38.517  1.00  0.00    -0.013 C 
HETATM   15  C7  UNK     1      22.424  -6.671  38.536  1.00  0.00     0.015 C 
ENDBRANCH   5   6
ENDBRANCH   2   5
BRANCH   3  16
HETATM   16  C13 UNK     1      26.800  -7.105  38.750  1.00  0.00     0.108 A 
HETATM   17  C14 UNK     1      28.077  -7.487  38.633  1.00  0.00     0.037 A 
HETATM   18  C16 UNK     1      29.134  -6.492  38.529  1.00  0.00    -0.001 A 
HETATM   19  C17 UNK     1      28.793  -5.144  38.554  1.00  0.00     0.089 A 
HETATM   20  C18 UNK     1      30.480  -6.845  38.406  1.00  0.00     0.014 A 
HETATM   21  O2  UNK     1      27.446  -4.748  38.676  1.00  0.00    -0.274 OA
HETATM   22  C19 UNK     1      29.756  -4.141  38.458  1.00  0.00     0.038 A 
HETATM   23  C15 UNK     1      26.414  -5.677  38.779  1.00  0.00     0.304 A 
HETATM   24  O3  UNK     1      25.244  -5.323  38.885  1.00  0.00    -0.259 OA
HETATM   25  C21 UNK     1      31.096  -4.502  38.336  1.00  0.00     0.003 A 
HETATM   26  C20 UNK     1      31.457  -5.850  38.310  1.00  0.00     0.001 A 
ENDBRANCH   3  16
TORSDOF 3
ENDMDL
MODEL 7
REMARK VINA RESULT:      -8.9      2.577      3.615
REMARK  3 active torsions:
REMARK  status: ('A' for Active; 'I' for Inactive)
REMARK    1  A    between atoms: C11_15  and  N1_4 
REMARK       I    between atoms: C12_16  and  N1_4 
REMARK    2  A    between atoms: C1_5  and  C11_15 
REMARK    3  A    between atoms: C12_16  and  C13_17 
ROOT
HETATM    1  O1  UNK     1      17.551   2.717  31.058  1.00  0.00    -0.267 OA
HETATM    2  N1  UNK     1      18.577   4.101  32.632  1.00  0.00    -0.356 N 
HETATM    3  C12 UNK     1      18.070   2.899  32.154  1.00  0.00     0.257 C 
HETATM    4  H18 UNK     1      18.899   4.153  33.594  1.00  0.00     0.162 HD
ENDROOT
BRANCH   2   5
HETATM    5  C11 UNK     1      18.556   5.317  31.881  1.00  0.00     0.132 C 
BRANCH   5   6
HETATM    6  C1  UNK     1      18.045   6.479  32.736  1.00  0.00    -0.023 C 
HETATM    7  C5  UNK     1      17.129   7.402  31.897  1.00  0.00     0.015 C 
HETATM    8  C2  UNK     1      16.614   8.571  32.754  1.00  0.00    -0.013 C 
HETATM    9  C8  UNK     1      15.820   8.013  33.947  1.00  0.00     0.009 C 
HETATM   10  C9  UNK     1      17.812   9.381  33.277  1.00  0.00     0.009 C 
HETATM   11  C3  UNK     1      16.721   7.109  34.804  1.00  0.00    -0.013 C 
HETATM   12  C10 UNK     1      17.918   7.927  35.317  1.00  0.00     0.009 C 
HETATM   13  C6  UNK     1      17.237   5.943  33.942  1.00  0.00     0.015 C 
HETATM   14  C4  UNK     1      18.723   8.484  34.131  1.00  0.00    -0.013 C 
HETATM   15  C7  UNK     1      19.233   7.315  33.271  1.00  0.00     0.015 C 
ENDBRANCH   5   6
ENDBRANCH   2   5
BRANCH   3  16
HETATM   16  C13 UNK     1      18.212   1.788  33.113  1.00  0.00     0.108 A 
HETATM   17  C14 UNK     1      17.859   2.048  34.376  1.00  0.00     0.037 A 
HETATM   18  C16 UNK     1      17.964   1.015  35.396  1.00  0.00    -0.001 A 
HETATM   19  C17 UNK     1      18.436  -0.242  35.033  1.00  0.00     0.089 A 
HETATM   20  C18 UNK     1      17.606   1.243  36.727  1.00  0.00     0.014 A 
HETATM   21  O2  UNK     1      18.806  -0.510  33.701  1.00  0.00    -0.274 OA
HETATM   22  C19 UNK     1      18.561  -1.275  35.960  1.00  0.00     0.038 A 
HETATM   23  C15 UNK     1      18.718   0.458  32.704  1.00  0.00     0.304 A 
HETATM   24  O3  UNK     1      19.042   0.215  31.546  1.00  0.00    -0.259 OA
HETATM   25  C21 UNK     1      18.203  -1.039  37.286  1.00  0.00     0.003 A 
HETATM   26  C20 UNK     1      17.727   0.217  37.669  1.00  0.00     0.001 A 
ENDBRANCH   3  16
TORSDOF 3
ENDMDL
MODEL 8
REMARK VINA RESULT:      -8.7      6.402     11.640
REMARK  3 active torsions:
REMARK  status: ('A' for Active; 'I' for Inactive)
REMARK    1  A    between atoms: C11_15  and  N1_4 
REMARK       I    between atoms: C12_16  and  N1_4 
REMARK    2  A    between atoms: C1_5  and  C11_15 
REMARK    3  A    between atoms: C12_16  and  C13_17 
ROOT
HETATM    1  O1  UNK     1      19.715  -2.455  38.074  1.00  0.00    -0.267 OA
HETATM    2  N1  UNK     1      20.572  -4.272  36.886  1.00  0.00    -0.356 N 
HETATM    3  C12 UNK     1      19.981  -3.022  37.020  1.00  0.00     0.257 C 
HETATM    4  H18 UNK     1      20.657  -4.680  35.961  1.00  0.00     0.162 HD
ENDROOT
BRANCH   2   5
HETATM    5  C11 UNK     1      20.956  -5.082  37.999  1.00  0.00     0.132 C 
BRANCH   5   6
HETATM    6  C1  UNK     1      20.716  -6.565  37.704  1.00  0.00    -0.023 C 
HETATM    7  C5  UNK     1      19.477  -7.073  38.481  1.00  0.00     0.015 C 
HETATM    8  C2  UNK     1      19.232  -8.564  38.186  1.00  0.00    -0.013 C 
HETATM    9  C8  UNK     1      19.000  -8.750  36.678  1.00  0.00     0.009 C 
HETATM   10  C9  UNK     1      20.468  -9.372  38.612  1.00  0.00     0.009 C 
HETATM   11  C3  UNK     1      20.230  -8.269  35.891  1.00  0.00    -0.013 C 
HETATM   12  C10 UNK     1      21.461  -9.080  36.329  1.00  0.00     0.009 C 
HETATM   13  C6  UNK     1      20.473  -6.779  36.191  1.00  0.00     0.015 C 
HETATM   14  C4  UNK     1      21.706  -8.894  37.836  1.00  0.00    -0.013 C 
HETATM   15  C7  UNK     1      21.944  -7.404  38.130  1.00  0.00     0.015 C 
ENDBRANCH   5   6
ENDBRANCH   2   5
BRANCH   3  16
HETATM   16  C13 UNK     1      19.681  -2.380  35.726  1.00  0.00     0.108 A 
HETATM   17  C14 UNK     1      20.411  -2.787  34.682  1.00  0.00     0.037 A 
HETATM   18  C16 UNK     1      20.190  -2.212  33.363  1.00  0.00    -0.001 A 
HETATM   19  C17 UNK     1      19.210  -1.237  33.211  1.00  0.00     0.089 A 
HETATM   20  C18 UNK     1      20.928  -2.607  32.245  1.00  0.00     0.014 A 
HETATM   21  O2  UNK     1      18.445  -0.812  34.315  1.00  0.00    -0.274 OA
HETATM   22  C19 UNK     1      18.948  -0.646  31.976  1.00  0.00     0.038 A 
HETATM   23  C15 UNK     1      18.634  -1.343  35.588  1.00  0.00     0.304 A 
HETATM   24  O3  UNK     1      17.963  -0.967  36.544  1.00  0.00    -0.259 OA
HETATM   25  C21 UNK     1      19.690  -1.045  30.866  1.00  0.00     0.003 A 
HETATM   26  C20 UNK     1      20.677  -2.024  31.000  1.00  0.00     0.001 A 
ENDBRANCH   3  16
TORSDOF 3
ENDMDL
MODEL 9
REMARK VINA RESULT:      -8.7      7.116     12.519
REMARK  3 active torsions:
REMARK  status: ('A' for Active; 'I' for Inactive)
REMARK    1  A    between atoms: C11_15  and  N1_4 
REMARK       I    between atoms: C12_16  and  N1_4 
REMARK    2  A    between atoms: C1_5  and  C11_15 
REMARK    3  A    between atoms: C12_16  and  C13_17 
ROOT
HETATM    1  O1  UNK     1      21.804  -3.911  37.204  1.00  0.00    -0.267 OA
HETATM    2  N1  UNK     1      19.808  -4.795  38.029  1.00  0.00    -0.356 N 
HETATM    3  C12 UNK     1      20.581  -3.905  37.294  1.00  0.00     0.257 C 
HETATM    4  H18 UNK     1      18.808  -4.635  38.104  1.00  0.00     0.162 HD
ENDROOT
BRANCH   2   5
HETATM    5  C11 UNK     1      20.360  -5.866  38.799  1.00  0.00     0.132 C 
BRANCH   5   6
HETATM    6  C1  UNK     1      20.318  -7.180  38.016  1.00  0.00    -0.023 C 
HETATM    7  C5  UNK     1      21.691  -7.458  37.358  1.00  0.00     0.015 C 
HETATM    8  C2  UNK     1      21.652  -8.780  36.571  1.00  0.00    -0.013 C 
HETATM    9  C8  UNK     1      21.303  -9.931  37.529  1.00  0.00     0.009 C 
HETATM   10  C9  UNK     1      20.573  -8.686  35.479  1.00  0.00     0.009 C 
HETATM   11  C3  UNK     1      19.931  -9.681  38.177  1.00  0.00    -0.013 C 
HETATM   12  C10 UNK     1      18.861  -9.582  37.076  1.00  0.00     0.009 C 
HETATM   13  C6  UNK     1      19.974  -8.357  38.960  1.00  0.00     0.015 C 
HETATM   14  C4  UNK     1      19.198  -8.429  36.116  1.00  0.00    -0.013 C 
HETATM   15  C7  UNK     1      19.243  -7.110  36.905  1.00  0.00     0.015 C 
ENDBRANCH   5   6
ENDBRANCH   2   5
BRANCH   3  16
HETATM   16  C13 UNK     1      19.780  -2.893  36.581  1.00  0.00     0.108 A 
HETATM   17  C14 UNK     1      18.971  -2.141  37.336  1.00  0.00     0.037 A 
HETATM   18  C16 UNK     1      18.140  -1.115  36.724  1.00  0.00    -0.001 A 
HETATM   19  C17 UNK     1      18.203  -0.932  35.347  1.00  0.00     0.089 A 
HETATM   20  C18 UNK     1      17.281  -0.307  37.473  1.00  0.00     0.014 A 
HETATM   21  O2  UNK     1      19.057  -1.726  34.557  1.00  0.00    -0.274 OA
HETATM   22  C19 UNK     1      17.434   0.033  34.698  1.00  0.00     0.038 A 
HETATM   23  C15 UNK     1      19.863  -2.716  35.114  1.00  0.00     0.304 A 
HETATM   24  O3  UNK     1      20.604  -3.404  34.419  1.00  0.00    -0.259 OA
HETATM   25  C21 UNK     1      16.579   0.834  35.453  1.00  0.00     0.003 A 
HETATM   26  C20 UNK     1      16.503   0.665  36.837  1.00  0.00     0.001 A 
ENDBRANCH   3  16
TORSDOF 3
ENDMDL
MODEL 10
REMARK VINA RESULT:      -8.5     13.773     15.715
REMARK  3 active torsions:
REMARK  status: ('A' for Active; 'I' for Inactive)
REMARK    1  A    between atoms: C11_15  and  N1_4 
REMARK       I    between atoms: C12_16  and  N1_4 
REMARK    2  A    between atoms: C1_5  and  C11_15 
REMARK    3  A    between atoms: C12_16  and  C13_17 
ROOT
HETATM    1  O1  UNK     1      25.955 -10.784  36.368  1.00  0.00    -0.267 OA
HETATM    2  N1  UNK     1      24.266  -9.275  36.932  1.00  0.00    -0.356 N 
HETATM    3  C12 UNK     1      25.579  -9.723  36.854  1.00  0.00     0.257 C 
HETATM    4  H18 UNK     1      24.066  -8.421  37.442  1.00  0.00     0.162 HD
ENDROOT
BRANCH   2   5
HETATM    5  C11 UNK     1      23.151 -10.021  36.437  1.00  0.00     0.132 C 
BRANCH   5   6
HETATM    6  C1  UNK     1      21.840  -9.503  37.034  1.00  0.00    -0.023 C 
HETATM    7  C5  UNK     1      22.119  -8.697  38.325  1.00  0.00     0.015 C 
HETATM    8  C2  UNK     1      20.803  -8.174  38.927  1.00  0.00    -0.013 C 
HETATM    9  C8  UNK     1      20.101  -7.269  37.902  1.00  0.00     0.009 C 
HETATM   10  C9  UNK     1      19.891  -9.366  39.258  1.00  0.00     0.009 C 
HETATM   11  C3  UNK     1      19.798  -8.060  36.619  1.00  0.00    -0.013 C 
HETATM   12  C10 UNK     1      18.890  -9.253  36.962  1.00  0.00     0.009 C 
HETATM   13  C6  UNK     1      21.116  -8.583  36.022  1.00  0.00     0.015 C 
HETATM   14  C4  UNK     1      19.586 -10.169  37.983  1.00  0.00    -0.013 C 
HETATM   15  C7  UNK     1      20.904 -10.685  37.383  1.00  0.00     0.015 C 
ENDBRANCH   5   6
ENDBRANCH   2   5
BRANCH   3  16
HETATM   16  C13 UNK     1      26.550  -8.774  37.429  1.00  0.00     0.108 A 
HETATM   17  C14 UNK     1      27.340  -8.137  36.557  1.00  0.00     0.037 A 
HETATM   18  C16 UNK     1      28.332  -7.182  37.028  1.00  0.00    -0.001 A 
HETATM   19  C17 UNK     1      28.442  -6.945  38.394  1.00  0.00     0.089 A 
HETATM   20  C18 UNK     1      29.177  -6.494  36.154  1.00  0.00     0.014 A 
HETATM   21  O2  UNK     1      27.607  -7.619  39.307  1.00  0.00    -0.274 OA
HETATM   22  C19 UNK     1      29.371  -6.043  38.910  1.00  0.00     0.038 A 
HETATM   23  C15 UNK     1      26.651  -8.539  38.887  1.00  0.00     0.304 A 
HETATM   24  O3  UNK     1      25.928  -9.121  39.689  1.00  0.00    -0.259 OA
HETATM   25  C21 UNK     1      30.211  -5.362  38.031  1.00  0.00     0.003 A 
HETATM   26  C20 UNK     1      30.114  -5.587  36.657  1.00  0.00     0.001 A 
ENDBRANCH   3  16
TORSDOF 3
ENDMDL
