MODEL 1
REMARK VINA RESULT:      -8.9      0.000      0.000
REMARK  3 active torsions:
REMARK  status: ('A' for Active; 'I' for Inactive)
REMARK    1  A    between atoms: C6_14  and  S1_1 
REMARK    2  A    between atoms: N1_7  and  S1_1 
REMARK       I    between atoms: C5_13  and  N2_8 
REMARK    3  A    between atoms: C5_13  and  C7_15 
ROOT
HETATM    1  O3  UNK     1      15.364  11.354  11.212  1.00  0.00    -0.267 OA
HETATM    2  N1  UNK     1      13.016   7.445   9.283  1.00  0.00    -0.203 NA
HETATM    3  N2  UNK     1      14.394   9.912   9.665  1.00  0.00    -0.345 N 
HETATM    4  C1  UNK     1      13.206   7.990  10.660  1.00  0.00     0.127 C 
HETATM    5  C2  UNK     1      14.156   7.806   8.391  1.00  0.00     0.127 C 
HETATM    6  C3  UNK     1      13.327   9.507  10.583  1.00  0.00     0.141 C 
HETATM    7  C4  UNK     1      14.295   9.325   8.321  1.00  0.00     0.141 C 
HETATM    8  C5  UNK     1      15.345  10.835  10.095  1.00  0.00     0.260 C 
ENDROOT
BRANCH   8   9
HETATM    9  C7  UNK     1      16.403  11.226   9.142  1.00  0.00     0.108 A 
HETATM   10  C10 UNK     1      16.156  12.310   8.398  1.00  0.00     0.037 A 
HETATM   11  C12 UNK     1      17.138  12.774   7.430  1.00  0.00    -0.001 A 
HETATM   12  C15 UNK     1      18.330  12.072   7.291  1.00  0.00     0.089 A 
HETATM   13  C17 UNK     1      16.924  13.902   6.633  1.00  0.00     0.014 A 
HETATM   14  O4  UNK     1      18.585  10.931   8.078  1.00  0.00    -0.274 OA
HETATM   15  C18 UNK     1      19.312  12.464   6.383  1.00  0.00     0.038 A 
HETATM   16  C11 UNK     1      17.665  10.464   9.012  1.00  0.00     0.304 A 
HETATM   17  O5  UNK     1      17.894   9.468   9.691  1.00  0.00    -0.259 OA
HETATM   18  C20 UNK     1      19.090  13.589   5.593  1.00  0.00     0.003 A 
HETATM   19  C19 UNK     1      17.898  14.307   5.717  1.00  0.00     0.001 A 
ENDBRANCH   8   9
BRANCH   2  20
HETATM   20  S1  UNK     1      12.513   5.808   9.206  1.00  0.00     0.243 S 
HETATM   21  O1  UNK     1      11.990   5.414  10.497  1.00  0.00    -0.206 OA
HETATM   22  O2  UNK     1      13.541   5.031   8.549  1.00  0.00    -0.206 OA
BRANCH  20  23
HETATM   23  C6  UNK     1      11.150   5.959   8.095  1.00  0.00     0.074 A 
HETATM   24  C8  UNK     1       9.863   6.019   8.605  1.00  0.00     0.025 A 
HETATM   25  C13 UNK     1       8.785   6.135   7.726  1.00  0.00     0.002 A 
HETATM   26  C16 UNK     1       9.010   6.191   6.351  1.00  0.00     0.000 A 
HETATM   27  C14 UNK     1      10.312   6.130   5.853  1.00  0.00     0.002 A 
HETATM   28  C9  UNK     1      11.389   6.012   6.731  1.00  0.00     0.025 A 
ENDBRANCH  20  23
ENDBRANCH   2  20
TORSDOF 3
ENDMDL
MODEL 2
REMARK VINA RESULT:      -8.6     33.801     35.762
REMARK  3 active torsions:
REMARK  status: ('A' for Active; 'I' for Inactive)
REMARK    1  A    between atoms: C6_14  and  S1_1 
REMARK    2  A    between atoms: N1_7  and  S1_1 
REMARK       I    between atoms: C5_13  and  N2_8 
REMARK    3  A    between atoms: C5_13  and  C7_15 
ROOT
HETATM    1  O3  UNK     1      35.829  -5.842  36.386  1.00  0.00    -0.267 OA
HETATM    2  N1  UNK     1      34.938  -7.512  31.811  1.00  0.00    -0.203 NA
HETATM    3  N2  UNK     1      34.747  -6.811  34.569  1.00  0.00    -0.345 N 
HETATM    4  C1  UNK     1      36.152  -7.062  32.554  1.00  0.00     0.127 C 
HETATM    5  C2  UNK     1      33.706  -6.847  32.326  1.00  0.00     0.127 C 
HETATM    6  C3  UNK     1      35.982  -7.389  34.033  1.00  0.00     0.141 C 
HETATM    7  C4  UNK     1      33.535  -7.157  33.812  1.00  0.00     0.141 C 
HETATM    8  C5  UNK     1      34.802  -6.063  35.743  1.00  0.00     0.260 C 
ENDROOT
BRANCH   8   9
HETATM    9  C7  UNK     1      33.538  -5.500  36.258  1.00  0.00     0.108 A 
HETATM   10  C10 UNK     1      32.788  -6.319  37.004  1.00  0.00     0.037 A 
HETATM   11  C12 UNK     1      31.525  -5.856  37.558  1.00  0.00    -0.001 A 
HETATM   12  C15 UNK     1      31.112  -4.554  37.296  1.00  0.00     0.089 A 
HETATM   13  C17 UNK     1      30.709  -6.676  38.343  1.00  0.00     0.014 A 
HETATM   14  O4  UNK     1      31.907  -3.696  36.510  1.00  0.00    -0.274 OA
HETATM   15  C18 UNK     1      29.914  -4.049  37.796  1.00  0.00     0.038 A 
HETATM   16  C11 UNK     1      33.120  -4.111  35.968  1.00  0.00     0.304 A 
HETATM   17  O5  UNK     1      33.804  -3.357  35.284  1.00  0.00    -0.259 OA
HETATM   18  C20 UNK     1      29.107  -4.873  38.578  1.00  0.00     0.003 A 
HETATM   19  C19 UNK     1      29.504  -6.184  38.851  1.00  0.00     0.001 A 
ENDBRANCH   8   9
BRANCH   2  20
HETATM   20  S1  UNK     1      35.095  -7.548  30.105  1.00  0.00     0.243 S 
HETATM   21  O1  UNK     1      35.926  -8.672  29.732  1.00  0.00    -0.206 OA
HETATM   22  O2  UNK     1      35.388  -6.212  29.632  1.00  0.00    -0.206 OA
BRANCH  20  23
HETATM   23  C6  UNK     1      33.432  -7.933  29.653  1.00  0.00     0.074 A 
HETATM   24  C8  UNK     1      32.586  -6.912  29.250  1.00  0.00     0.025 A 
HETATM   25  C13 UNK     1      31.271  -7.216  28.894  1.00  0.00     0.002 A 
HETATM   26  C16 UNK     1      30.822  -8.535  28.945  1.00  0.00     0.000 A 
HETATM   27  C14 UNK     1      31.687  -9.552  29.353  1.00  0.00     0.002 A 
HETATM   28  C9  UNK     1      33.000  -9.248  29.709  1.00  0.00     0.025 A 
ENDBRANCH  20  23
ENDBRANCH   2  20
TORSDOF 3
ENDMDL
MODEL 3
REMARK VINA RESULT:      -8.6     32.901     35.042
REMARK  3 active torsions:
REMARK  status: ('A' for Active; 'I' for Inactive)
REMARK    1  A    between atoms: C6_14  and  S1_1 
REMARK    2  A    between atoms: N1_7  and  S1_1 
REMARK       I    between atoms: C5_13  and  N2_8 
REMARK    3  A    between atoms: C5_13  and  C7_15 
ROOT
HETATM    1  O3  UNK     1      31.124  -5.616  36.280  1.00  0.00    -0.267 OA
HETATM    2  N1  UNK     1      29.157  -6.905  31.923  1.00  0.00    -0.203 NA
HETATM    3  N2  UNK     1      30.318  -6.917  34.528  1.00  0.00    -0.345 N 
HETATM    4  C1  UNK     1      29.705  -5.644  32.504  1.00  0.00     0.127 C 
HETATM    5  C2  UNK     1      28.600  -7.796  32.981  1.00  0.00     0.127 C 
HETATM    6  C3  UNK     1      30.802  -5.989  33.503  1.00  0.00     0.141 C 
HETATM    7  C4  UNK     1      29.689  -8.135  33.997  1.00  0.00     0.141 C 
HETATM    8  C5  UNK     1      30.539  -6.620  35.870  1.00  0.00     0.260 C 
ENDROOT
BRANCH   8   9
HETATM    9  C7  UNK     1      30.044  -7.579  36.877  1.00  0.00     0.108 A 
HETATM   10  C10 UNK     1      28.766  -7.438  37.250  1.00  0.00     0.037 A 
HETATM   11  C12 UNK     1      28.187  -8.336  38.237  1.00  0.00    -0.001 A 
HETATM   12  C15 UNK     1      28.981  -9.337  38.785  1.00  0.00     0.089 A 
HETATM   13  C17 UNK     1      26.858  -8.226  38.656  1.00  0.00     0.014 A 
HETATM   14  O4  UNK     1      30.325  -9.482  38.388  1.00  0.00    -0.274 OA
HETATM   15  C18 UNK     1      28.487 -10.230  39.734  1.00  0.00     0.038 A 
HETATM   16  C11 UNK     1      30.907  -8.639  37.446  1.00  0.00     0.304 A 
HETATM   17  O5  UNK     1      32.078  -8.771  37.107  1.00  0.00    -0.259 OA
HETATM   18  C20 UNK     1      27.162 -10.113  40.146  1.00  0.00     0.003 A 
HETATM   19  C19 UNK     1      26.348  -9.113  39.608  1.00  0.00     0.001 A 
ENDBRANCH   8   9
BRANCH   2  20
HETATM   20  S1  UNK     1      28.171  -6.706  30.536  1.00  0.00     0.243 S 
HETATM   21  O1  UNK     1      28.490  -5.442  29.908  1.00  0.00    -0.206 OA
HETATM   22  O2  UNK     1      26.806  -7.048  30.877  1.00  0.00    -0.206 OA
BRANCH  20  23
HETATM   23  C6  UNK     1      28.815  -7.993  29.514  1.00  0.00     0.074 A 
HETATM   24  C8  UNK     1      30.109  -7.890  29.029  1.00  0.00     0.025 A 
HETATM   25  C13 UNK     1      30.618  -8.907  28.219  1.00  0.00     0.002 A 
HETATM   26  C16 UNK     1      29.826 -10.012  27.908  1.00  0.00     0.000 A 
HETATM   27  C14 UNK     1      28.525 -10.101  28.404  1.00  0.00     0.002 A 
HETATM   28  C9  UNK     1      28.016  -9.084  29.212  1.00  0.00     0.025 A 
ENDBRANCH  20  23
ENDBRANCH   2  20
TORSDOF 3
ENDMDL
MODEL 4
REMARK VINA RESULT:      -8.6     33.142     34.914
REMARK  3 active torsions:
REMARK  status: ('A' for Active; 'I' for Inactive)
REMARK    1  A    between atoms: C6_14  and  S1_1 
REMARK    2  A    between atoms: N1_7  and  S1_1 
REMARK       I    between atoms: C5_13  and  N2_8 
REMARK    3  A    between atoms: C5_13  and  C7_15 
ROOT
HETATM    1  O3  UNK     1      36.279  -5.831  31.521  1.00  0.00    -0.267 OA
HETATM    2  N1  UNK     1      32.913  -8.975  29.708  1.00  0.00    -0.203 NA
HETATM    3  N2  UNK     1      34.831  -7.642  31.344  1.00  0.00    -0.345 N 
HETATM    4  C1  UNK     1      33.742  -7.872  29.140  1.00  0.00     0.127 C 
HETATM    5  C2  UNK     1      32.631  -8.756  31.156  1.00  0.00     0.127 C 
HETATM    6  C3  UNK     1      35.058  -7.793  29.905  1.00  0.00     0.141 C 
HETATM    7  C4  UNK     1      33.944  -8.659  31.929  1.00  0.00     0.141 C 
HETATM    8  C5  UNK     1      35.495  -6.631  32.034  1.00  0.00     0.260 C 
ENDROOT
BRANCH   8   9
HETATM    9  C7  UNK     1      35.248  -6.512  33.484  1.00  0.00     0.108 A 
HETATM   10  C10 UNK     1      34.116  -5.895  33.842  1.00  0.00     0.037 A 
HETATM   11  C12 UNK     1      33.784  -5.728  35.249  1.00  0.00    -0.001 A 
HETATM   12  C15 UNK     1      34.662  -6.218  36.210  1.00  0.00     0.089 A 
HETATM   13  C17 UNK     1      32.613  -5.092  35.669  1.00  0.00     0.014 A 
HETATM   14  O4  UNK     1      35.853  -6.867  35.827  1.00  0.00    -0.274 OA
HETATM   15  C18 UNK     1      34.404  -6.091  37.573  1.00  0.00     0.038 A 
HETATM   16  C11 UNK     1      36.196  -7.041  34.489  1.00  0.00     0.304 A 
HETATM   17  O5  UNK     1      37.236  -7.606  34.166  1.00  0.00    -0.259 OA
HETATM   18  C20 UNK     1      33.234  -5.455  37.983  1.00  0.00     0.003 A 
HETATM   19  C19 UNK     1      32.340  -4.957  37.032  1.00  0.00     0.001 A 
ENDBRANCH   8   9
BRANCH   2  20
HETATM   20  S1  UNK     1      31.564  -9.441  28.759  1.00  0.00     0.243 S 
HETATM   21  O1  UNK     1      31.348 -10.863  28.912  1.00  0.00    -0.206 OA
HETATM   22  O2  UNK     1      31.681  -8.840  27.448  1.00  0.00    -0.206 OA
BRANCH  20  23
HETATM   23  C6  UNK     1      30.275  -8.604  29.628  1.00  0.00     0.074 A 
HETATM   24  C8  UNK     1      30.128  -7.235  29.468  1.00  0.00     0.025 A 
HETATM   25  C13 UNK     1      29.110  -6.573  30.157  1.00  0.00     0.002 A 
HETATM   26  C16 UNK     1      28.254  -7.288  30.993  1.00  0.00     0.000 A 
HETATM   27  C14 UNK     1      28.415  -8.666  31.143  1.00  0.00     0.002 A 
HETATM   28  C9  UNK     1      29.432  -9.328  30.456  1.00  0.00     0.025 A 
ENDBRANCH  20  23
ENDBRANCH   2  20
TORSDOF 3
ENDMDL
MODEL 5
REMARK VINA RESULT:      -8.5      2.991      3.817
REMARK  3 active torsions:
REMARK  status: ('A' for Active; 'I' for Inactive)
REMARK    1  A    between atoms: C6_14  and  S1_1 
REMARK    2  A    between atoms: N1_7  and  S1_1 
REMARK       I    between atoms: C5_13  and  N2_8 
REMARK    3  A    between atoms: C5_13  and  C7_15 
ROOT
HETATM    1  O3  UNK     1      16.676  12.915   8.447  1.00  0.00    -0.267 OA
HETATM    2  N1  UNK     1      14.758   8.471   9.489  1.00  0.00    -0.203 NA
HETATM    3  N2  UNK     1      16.511  10.633   8.870  1.00  0.00    -0.345 N 
HETATM    4  C1  UNK     1      14.199   9.795   9.086  1.00  0.00     0.127 C 
HETATM    5  C2  UNK     1      16.041   8.624  10.234  1.00  0.00     0.127 C 
HETATM    6  C3  UNK     1      15.211  10.516   8.205  1.00  0.00     0.141 C 
HETATM    7  C4  UNK     1      17.058   9.361   9.364  1.00  0.00     0.141 C 
HETATM    8  C5  UNK     1      17.136  11.877   8.925  1.00  0.00     0.260 C 
ENDROOT
BRANCH   8   9
HETATM    9  C7  UNK     1      18.447  11.957   9.598  1.00  0.00     0.108 A 
HETATM   10  C10 UNK     1      18.439  12.407  10.858  1.00  0.00     0.037 A 
HETATM   11  C12 UNK     1      19.682  12.523  11.605  1.00  0.00    -0.001 A 
HETATM   12  C15 UNK     1      20.874  12.162  10.987  1.00  0.00     0.089 A 
HETATM   13  C17 UNK     1      19.720  12.986  12.923  1.00  0.00     0.014 A 
HETATM   14  O4  UNK     1      20.878  11.689   9.660  1.00  0.00    -0.274 OA
HETATM   15  C18 UNK     1      22.099  12.248  11.646  1.00  0.00     0.038 A 
HETATM   16  C11 UNK     1      19.704  11.566   8.921  1.00  0.00     0.304 A 
HETATM   17  O5  UNK     1      19.717  11.155   7.766  1.00  0.00    -0.259 OA
HETATM   18  C20 UNK     1      22.127  12.711  12.959  1.00  0.00     0.003 A 
HETATM   19  C19 UNK     1      20.940  13.080  13.597  1.00  0.00     0.001 A 
ENDBRANCH   8   9
BRANCH   2  20
HETATM   20  S1  UNK     1      13.632   7.381  10.182  1.00  0.00     0.243 S 
HETATM   21  O1  UNK     1      12.850   8.080  11.179  1.00  0.00    -0.206 OA
HETATM   22  O2  UNK     1      14.310   6.142  10.499  1.00  0.00    -0.206 OA
BRANCH  20  23
HETATM   23  C6  UNK     1      12.590   7.088   8.788  1.00  0.00     0.074 A 
HETATM   24  C8  UNK     1      11.239   7.383   8.878  1.00  0.00     0.025 A 
HETATM   25  C13 UNK     1      10.414   7.150   7.776  1.00  0.00     0.002 A 
HETATM   26  C16 UNK     1      10.952   6.627   6.601  1.00  0.00     0.000 A 
HETATM   27  C14 UNK     1      12.315   6.335   6.526  1.00  0.00     0.002 A 
HETATM   28  C9  UNK     1      13.139   6.568   7.627  1.00  0.00     0.025 A 
ENDBRANCH  20  23
ENDBRANCH   2  20
TORSDOF 3
ENDMDL
MODEL 6
REMARK VINA RESULT:      -8.5     32.698     34.598
REMARK  3 active torsions:
REMARK  status: ('A' for Active; 'I' for Inactive)
REMARK    1  A    between atoms: C6_14  and  S1_1 
REMARK    2  A    between atoms: N1_7  and  S1_1 
REMARK       I    between atoms: C5_13  and  N2_8 
REMARK    3  A    between atoms: C5_13  and  C7_15 
ROOT
HETATM    1  O3  UNK     1      34.316  -7.500  35.205  1.00  0.00    -0.267 OA
HETATM    2  N1  UNK     1      31.954  -7.862  30.869  1.00  0.00    -0.203 NA
HETATM    3  N2  UNK     1      32.603  -7.631  33.637  1.00  0.00    -0.345 N 
HETATM    4  C1  UNK     1      33.359  -8.065  31.327  1.00  0.00     0.127 C 
HETATM    5  C2  UNK     1      31.242  -6.864  31.719  1.00  0.00     0.127 C 
HETATM    6  C3  UNK     1      33.349  -8.549  32.771  1.00  0.00     0.141 C 
HETATM    7  C4  UNK     1      31.240  -7.333  33.173  1.00  0.00     0.141 C 
HETATM    8  C5  UNK     1      33.191  -7.182  34.816  1.00  0.00     0.260 C 
ENDROOT
BRANCH   8   9
HETATM    9  C7  UNK     1      32.409  -6.264  35.667  1.00  0.00     0.108 A 
HETATM   10  C10 UNK     1      31.563  -6.836  36.532  1.00  0.00     0.037 A 
HETATM   11  C12 UNK     1      30.748  -6.014  37.414  1.00  0.00    -0.001 A 
HETATM   12  C15 UNK     1      30.862  -4.630  37.339  1.00  0.00     0.089 A 
HETATM   13  C17 UNK     1      29.854  -6.568  38.333  1.00  0.00     0.014 A 
HETATM   14  O4  UNK     1      31.754  -4.033  36.426  1.00  0.00    -0.274 OA
HETATM   15  C18 UNK     1      30.110  -3.787  38.155  1.00  0.00     0.038 A 
HETATM   16  C11 UNK     1      32.546  -4.793  35.571  1.00  0.00     0.304 A 
HETATM   17  O5  UNK     1      33.319  -4.265  34.778  1.00  0.00    -0.259 OA
HETATM   18  C20 UNK     1      29.221  -4.347  39.069  1.00  0.00     0.003 A 
HETATM   19  C19 UNK     1      29.092  -5.735  39.158  1.00  0.00     0.001 A 
ENDBRANCH   8   9
BRANCH   2  20
HETATM   20  S1  UNK     1      31.755  -7.661  29.179  1.00  0.00     0.243 S 
HETATM   21  O1  UNK     1      32.798  -8.392  28.491  1.00  0.00    -0.206 OA
HETATM   22  O2  UNK     1      31.512  -6.263  28.897  1.00  0.00    -0.206 OA
BRANCH  20  23
HETATM   23  C6  UNK     1      30.239  -8.535  28.943  1.00  0.00     0.074 A 
HETATM   24  C8  UNK     1      30.207  -9.614  28.073  1.00  0.00     0.025 A 
HETATM   25  C13 UNK     1      29.009 -10.303  27.885  1.00  0.00     0.002 A 
HETATM   26  C16 UNK     1      27.860  -9.905  28.568  1.00  0.00     0.000 A 
HETATM   27  C14 UNK     1      27.909  -8.817  29.440  1.00  0.00     0.002 A 
HETATM   28  C9  UNK     1      29.106  -8.127  29.628  1.00  0.00     0.025 A 
ENDBRANCH  20  23
ENDBRANCH   2  20
TORSDOF 3
ENDMDL
MODEL 7
REMARK VINA RESULT:      -8.4     35.187     37.440
REMARK  3 active torsions:
REMARK  status: ('A' for Active; 'I' for Inactive)
REMARK    1  A    between atoms: C6_14  and  S1_1 
REMARK    2  A    between atoms: N1_7  and  S1_1 
REMARK       I    between atoms: C5_13  and  N2_8 
REMARK    3  A    between atoms: C5_13  and  C7_15 
ROOT
HETATM    1  O3  UNK     1      28.675 -10.323  39.202  1.00  0.00    -0.267 OA
HETATM    2  N1  UNK     1      31.100  -6.423  37.354  1.00  0.00    -0.203 NA
HETATM    3  N2  UNK     1      29.327  -8.620  37.759  1.00  0.00    -0.345 N 
HETATM    4  C1  UNK     1      31.322  -7.363  38.491  1.00  0.00     0.127 C 
HETATM    5  C2  UNK     1      29.649  -6.274  37.045  1.00  0.00     0.127 C 
HETATM    6  C3  UNK     1      30.739  -8.725  38.135  1.00  0.00     0.141 C 
HETATM    7  C4  UNK     1      29.052  -7.636  36.701  1.00  0.00     0.141 C 
HETATM    8  C5  UNK     1      28.400  -9.468  38.360  1.00  0.00     0.260 C 
ENDROOT
BRANCH   8   9
HETATM    9  C7  UNK     1      26.987  -9.339  37.954  1.00  0.00     0.108 A 
HETATM   10  C10 UNK     1      26.490 -10.340  37.218  1.00  0.00     0.037 A 
HETATM   11  C12 UNK     1      25.106 -10.304  36.770  1.00  0.00    -0.001 A 
HETATM   12  C15 UNK     1      24.315  -9.214  37.115  1.00  0.00     0.089 A 
HETATM   13  C17 UNK     1      24.545 -11.327  36.002  1.00  0.00     0.014 A 
HETATM   14  O4  UNK     1      24.844  -8.162  37.890  1.00  0.00    -0.274 OA
HETATM   15  C18 UNK     1      22.983  -9.118  36.718  1.00  0.00     0.038 A 
HETATM   16  C11 UNK     1      26.163  -8.170  38.334  1.00  0.00     0.304 A 
HETATM   17  O5  UNK     1      26.615  -7.249  39.007  1.00  0.00    -0.259 OA
HETATM   18  C20 UNK     1      22.431 -10.143  35.952  1.00  0.00     0.003 A 
HETATM   19  C19 UNK     1      23.211 -11.246  35.594  1.00  0.00     0.001 A 
ENDBRANCH   8   9
BRANCH   2  20
HETATM   20  S1  UNK     1      31.990  -4.960  37.428  1.00  0.00     0.243 S 
HETATM   21  O1  UNK     1      32.525  -4.800  38.763  1.00  0.00    -0.206 OA
HETATM   22  O2  UNK     1      31.218  -3.908  36.802  1.00  0.00    -0.206 OA
BRANCH  20  23
HETATM   23  C6  UNK     1      33.332  -5.362  36.354  1.00  0.00     0.074 A 
HETATM   24  C8  UNK     1      33.192  -5.163  34.990  1.00  0.00     0.025 A 
HETATM   25  C13 UNK     1      34.252  -5.483  34.140  1.00  0.00     0.002 A 
HETATM   26  C16 UNK     1      35.437  -5.996  34.667  1.00  0.00     0.000 A 
HETATM   27  C14 UNK     1      35.562  -6.191  36.043  1.00  0.00     0.002 A 
HETATM   28  C9  UNK     1      34.502  -5.872  36.892  1.00  0.00     0.025 A 
ENDBRANCH  20  23
ENDBRANCH   2  20
TORSDOF 3
ENDMDL
MODEL 8
REMARK VINA RESULT:      -8.4     33.185     35.274
REMARK  3 active torsions:
REMARK  status: ('A' for Active; 'I' for Inactive)
REMARK    1  A    between atoms: C6_14  and  S1_1 
REMARK    2  A    between atoms: N1_7  and  S1_1 
REMARK       I    between atoms: C5_13  and  N2_8 
REMARK    3  A    between atoms: C5_13  and  C7_15 
ROOT
HETATM    1  O3  UNK     1      33.473  -7.661  36.022  1.00  0.00    -0.267 OA
HETATM    2  N1  UNK     1      31.496  -7.540  31.485  1.00  0.00    -0.203 NA
HETATM    3  N2  UNK     1      31.985  -7.970  34.262  1.00  0.00    -0.345 N 
HETATM    4  C1  UNK     1      32.851  -7.283  32.054  1.00  0.00     0.127 C 
HETATM    5  C2  UNK     1      30.423  -7.257  32.482  1.00  0.00     0.127 C 
HETATM    6  C3  UNK     1      33.054  -8.166  33.279  1.00  0.00     0.141 C 
HETATM    7  C4  UNK     1      30.626  -8.126  33.720  1.00  0.00     0.141 C 
HETATM    8  C5  UNK     1      32.321  -7.726  35.590  1.00  0.00     0.260 C 
ENDROOT
BRANCH   8   9
HETATM    9  C7  UNK     1      31.219  -7.540  36.555  1.00  0.00     0.108 A 
HETATM   10  C10 UNK     1      30.715  -8.653  37.099  1.00  0.00     0.037 A 
HETATM   11  C12 UNK     1      29.626  -8.572  38.060  1.00  0.00    -0.001 A 
HETATM   12  C15 UNK     1      29.120  -7.322  38.400  1.00  0.00     0.089 A 
HETATM   13  C17 UNK     1      29.069  -9.708  38.654  1.00  0.00     0.014 A 
HETATM   14  O4  UNK     1      29.655  -6.153  37.824  1.00  0.00    -0.274 OA
HETATM   15  C18 UNK     1      28.078  -7.175  39.314  1.00  0.00     0.038 A 
HETATM   16  C11 UNK     1      30.697  -6.199  36.903  1.00  0.00     0.304 A 
HETATM   17  O5  UNK     1      31.155  -5.176  36.405  1.00  0.00    -0.259 OA
HETATM   18  C20 UNK     1      27.529  -8.313  39.901  1.00  0.00     0.003 A 
HETATM   19  C19 UNK     1      28.024  -9.577  39.572  1.00  0.00     0.001 A 
ENDBRANCH   8   9
BRANCH   2  20
HETATM   20  S1  UNK     1      31.227  -6.905  29.916  1.00  0.00     0.243 S 
HETATM   21  O1  UNK     1      32.466  -6.951  29.170  1.00  0.00    -0.206 OA
HETATM   22  O2  UNK     1      30.468  -5.678  30.029  1.00  0.00    -0.206 OA
BRANCH  20  23
HETATM   23  C6  UNK     1      30.158  -8.148  29.261  1.00  0.00     0.074 A 
HETATM   24  C8  UNK     1      28.853  -8.231  29.722  1.00  0.00     0.025 A 
HETATM   25  C13 UNK     1      28.008  -9.214  29.206  1.00  0.00     0.002 A 
HETATM   26  C16 UNK     1      28.479 -10.099  28.236  1.00  0.00     0.000 A 
HETATM   27  C14 UNK     1      29.795 -10.003  27.783  1.00  0.00     0.002 A 
HETATM   28  C9  UNK     1      30.640  -9.020  28.299  1.00  0.00     0.025 A 
ENDBRANCH  20  23
ENDBRANCH   2  20
TORSDOF 3
ENDMDL
MODEL 9
REMARK VINA RESULT:      -8.4      2.419      8.503
REMARK  3 active torsions:
REMARK  status: ('A' for Active; 'I' for Inactive)
REMARK    1  A    between atoms: C6_14  and  S1_1 
REMARK    2  A    between atoms: N1_7  and  S1_1 
REMARK       I    between atoms: C5_13  and  N2_8 
REMARK    3  A    between atoms: C5_13  and  C7_15 
ROOT
HETATM    1  O3  UNK     1      15.471   6.879  10.296  1.00  0.00    -0.267 OA
HETATM    2  N1  UNK     1      16.679  11.530   9.105  1.00  0.00    -0.203 NA
HETATM    3  N2  UNK     1      15.576   8.900   9.150  1.00  0.00    -0.345 N 
HETATM    4  C1  UNK     1      17.197  10.519  10.072  1.00  0.00     0.127 C 
HETATM    5  C2  UNK     1      15.227  11.328   8.829  1.00  0.00     0.127 C 
HETATM    6  C3  UNK     1      16.982   9.124   9.499  1.00  0.00     0.141 C 
HETATM    7  C4  UNK     1      14.999   9.926   8.268  1.00  0.00     0.141 C 
HETATM    8  C5  UNK     1      14.938   7.750   9.606  1.00  0.00     0.260 C 
ENDROOT
BRANCH   8   9
HETATM    9  C7  UNK     1      13.524   7.554   9.231  1.00  0.00     0.108 A 
HETATM   10  C10 UNK     1      13.300   7.042   8.015  1.00  0.00     0.037 A 
HETATM   11  C12 UNK     1      11.940   6.812   7.555  1.00  0.00    -0.001 A 
HETATM   12  C15 UNK     1      10.881   7.135   8.397  1.00  0.00     0.089 A 
HETATM   13  C17 UNK     1      11.660   6.279   6.294  1.00  0.00     0.014 A 
HETATM   14  O4  UNK     1      11.122   7.673   9.676  1.00  0.00    -0.274 OA
HETATM   15  C18 UNK     1       9.555   6.939   8.016  1.00  0.00     0.038 A 
HETATM   16  C11 UNK     1      12.413   7.903  10.144  1.00  0.00     0.304 A 
HETATM   17  O5  UNK     1      12.613   8.374  11.259  1.00  0.00    -0.259 OA
HETATM   18  C20 UNK     1       9.285   6.407   6.757  1.00  0.00     0.003 A 
HETATM   19  C19 UNK     1      10.335   6.078   5.897  1.00  0.00     0.001 A 
ENDBRANCH   8   9
BRANCH   2  20
HETATM   20  S1  UNK     1      17.149  13.148   9.415  1.00  0.00     0.243 S 
HETATM   21  O1  UNK     1      18.104  13.163  10.502  1.00  0.00    -0.206 OA
HETATM   22  O2  UNK     1      15.967  13.983   9.448  1.00  0.00    -0.206 OA
BRANCH  20  23
HETATM   23  C6  UNK     1      18.025  13.505   7.924  1.00  0.00     0.074 A 
HETATM   24  C8  UNK     1      18.483  14.793   7.698  1.00  0.00     0.025 A 
HETATM   25  C13 UNK     1      19.174  15.075   6.519  1.00  0.00     0.002 A 
HETATM   26  C16 UNK     1      19.397  14.066   5.583  1.00  0.00     0.000 A 
HETATM   27  C14 UNK     1      18.929  12.773   5.825  1.00  0.00     0.002 A 
HETATM   28  C9  UNK     1      18.238  12.492   7.003  1.00  0.00     0.025 A 
ENDBRANCH  20  23
ENDBRANCH   2  20
TORSDOF 3
ENDMDL
MODEL 10
REMARK VINA RESULT:      -8.4      2.600      8.736
REMARK  3 active torsions:
REMARK  status: ('A' for Active; 'I' for Inactive)
REMARK    1  A    between atoms: C6_14  and  S1_1 
REMARK    2  A    between atoms: N1_7  and  S1_1 
REMARK       I    between atoms: C5_13  and  N2_8 
REMARK    3  A    between atoms: C5_13  and  C7_15 
ROOT
HETATM    1  O3  UNK     1      15.334   6.303   9.950  1.00  0.00    -0.267 OA
HETATM    2  N1  UNK     1      16.747  11.017   9.412  1.00  0.00    -0.203 NA
HETATM    3  N2  UNK     1      15.518   8.462   9.104  1.00  0.00    -0.345 N 
HETATM    4  C1  UNK     1      17.231   9.854  10.211  1.00  0.00     0.127 C 
HETATM    5  C2  UNK     1      15.283  10.924   9.144  1.00  0.00     0.127 C 
HETATM    6  C3  UNK     1      16.938   8.568   9.448  1.00  0.00     0.141 C 
HETATM    7  C4  UNK     1      14.977   9.630   8.393  1.00  0.00     0.141 C 
HETATM    8  C5  UNK     1      14.833   7.288   9.405  1.00  0.00     0.260 C 
ENDROOT
BRANCH   8   9
HETATM    9  C7  UNK     1      13.405   7.213   9.039  1.00  0.00     0.108 A 
HETATM   10  C10 UNK     1      13.132   6.754   7.812  1.00  0.00     0.037 A 
HETATM   11  C12 UNK     1      11.755   6.644   7.359  1.00  0.00    -0.001 A 
HETATM   12  C15 UNK     1      10.730   7.025   8.219  1.00  0.00     0.089 A 
HETATM   13  C17 UNK     1      11.424   6.170   6.087  1.00  0.00     0.014 A 
HETATM   14  O4  UNK     1      11.023   7.507   9.511  1.00  0.00    -0.274 OA
HETATM   15  C18 UNK     1       9.390   6.944   7.847  1.00  0.00     0.038 A 
HETATM   16  C11 UNK     1      12.331   7.623   9.972  1.00  0.00     0.304 A 
HETATM   17  O5  UNK     1      12.576   8.045  11.097  1.00  0.00    -0.259 OA
HETATM   18  C20 UNK     1       9.070   6.469   6.577  1.00  0.00     0.003 A 
HETATM   19  C19 UNK     1      10.084   6.083   5.698  1.00  0.00     0.001 A 
ENDBRANCH   8   9
BRANCH   2  20
HETATM   20  S1  UNK     1      17.300  12.550   9.940  1.00  0.00     0.243 S 
HETATM   21  O1  UNK     1      17.165  12.631  11.379  1.00  0.00    -0.206 OA
HETATM   22  O2  UNK     1      16.745  13.573   9.080  1.00  0.00    -0.206 OA
BRANCH  20  23
HETATM   23  C6  UNK     1      19.019  12.401   9.568  1.00  0.00     0.074 A 
HETATM   24  C8  UNK     1      19.426  12.368   8.244  1.00  0.00     0.025 A 
HETATM   25  C13 UNK     1      20.785  12.247   7.949  1.00  0.00     0.002 A 
HETATM   26  C16 UNK     1      21.717  12.164   8.982  1.00  0.00     0.000 A 
HETATM   27  C14 UNK     1      21.292  12.199  10.311  1.00  0.00     0.002 A 
HETATM   28  C9  UNK     1      19.934  12.318  10.605  1.00  0.00     0.025 A 
ENDBRANCH  20  23
ENDBRANCH   2  20
TORSDOF 3
ENDMDL
