MODEL 1
REMARK VINA RESULT:      -8.6      0.000      0.000
REMARK  2 active torsions:
REMARK  status: ('A' for Active; 'I' for Inactive)
REMARK    1  A    between atoms: C8_14  and  N1_5 
REMARK    2  A    between atoms: C1_7  and  C4_10 
ROOT
HETATM    1  O1  UNK     1      13.068   9.594   9.740  1.00  0.00    -0.291 OA
HETATM    2  O2  UNK     1      14.367   5.618   9.837  1.00  0.00    -0.274 OA
HETATM    3  O3  UNK     1      12.202   4.906   9.797  1.00  0.00    -0.259 OA
HETATM    4  N2  UNK     1       8.270   9.709  10.148  1.00  0.00    -0.191 NA
HETATM    5  C1  UNK     1      11.058   7.540   9.601  1.00  0.00     0.110 C 
HETATM    6  C2  UNK     1      12.549   7.256   9.709  1.00  0.00     0.066 A 
HETATM    7  C3  UNK     1      13.437   8.260   9.756  1.00  0.00     0.104 A 
HETATM    8  C5  UNK     1      10.748   9.021   9.826  1.00  0.00     0.086 C 
HETATM    9  C6  UNK     1      14.872   7.998   9.824  1.00  0.00     0.033 A 
HETATM   10  C7  UNK     1      12.996   5.841   9.784  1.00  0.00     0.298 A 
HETATM   11  C8  UNK     1      11.728   9.952   9.872  1.00  0.00     0.159 C 
HETATM   12  C9  UNK     1      15.299   6.673   9.857  1.00  0.00     0.092 A 
HETATM   13  C12 UNK     1      15.844   9.005   9.853  1.00  0.00     0.017 A 
HETATM   14  C13 UNK     1      16.649   6.330   9.919  1.00  0.00     0.038 A 
HETATM   15  C16 UNK     1      17.203   8.677   9.914  1.00  0.00     0.001 A 
HETATM   16  C17 UNK     1       9.379   9.401  10.004  1.00  0.00     0.100 C 
HETATM   17  C18 UNK     1      17.604   7.341   9.947  1.00  0.00     0.003 A 
ENDROOT
BRANCH   5  18
HETATM   18  C4  UNK     1      10.531   7.095   8.269  1.00  0.00    -0.022 A 
HETATM   19  C10 UNK     1       9.334   6.394   8.158  1.00  0.00     0.041 A 
HETATM   20 Cl1  UNK     1       8.389   5.998   9.548  1.00  0.00    -0.084 Cl
HETATM   21  C14 UNK     1       8.875   5.998   6.902  1.00  0.00     0.024 A 
HETATM   22  C19 UNK     1       9.617   6.304   5.761  1.00  0.00     0.002 A 
HETATM   23  C15 UNK     1      10.816   7.006   5.876  1.00  0.00     0.001 A 
HETATM   24  C11 UNK     1      11.275   7.403   7.132  1.00  0.00     0.010 A 
ENDBRANCH   5  18
BRANCH  11  25
HETATM   25  N1  UNK     1      11.533  11.294  10.047  1.00  0.00    -0.379 N 
HETATM   26  H10 UNK     1      11.909  11.965   9.389  1.00  0.00     0.158 HD
HETATM   27  H9  UNK     1      11.006  11.610  10.852  1.00  0.00     0.158 HD
ENDBRANCH  11  25
TORSDOF 2
ENDMDL
MODEL 2
REMARK VINA RESULT:      -7.9     34.441     36.158
REMARK  2 active torsions:
REMARK  status: ('A' for Active; 'I' for Inactive)
REMARK    1  A    between atoms: C8_14  and  N1_5 
REMARK    2  A    between atoms: C1_7  and  C4_10 
ROOT
HETATM    1  O1  UNK     1      25.604  -9.294  38.577  1.00  0.00    -0.291 OA
HETATM    2  O2  UNK     1      24.919  -5.181  38.910  1.00  0.00    -0.274 OA
HETATM    3  O3  UNK     1      27.166  -4.798  38.856  1.00  0.00    -0.259 OA
HETATM    4  N2  UNK     1      30.336 -10.146  38.865  1.00  0.00    -0.191 NA
HETATM    5  C1  UNK     1      27.898  -7.559  38.497  1.00  0.00     0.110 C 
HETATM    6  C2  UNK     1      26.468  -7.062  38.655  1.00  0.00     0.066 A 
HETATM    7  C3  UNK     1      25.440  -7.923  38.671  1.00  0.00     0.104 A 
HETATM    8  C5  UNK     1      27.985  -9.080  38.638  1.00  0.00     0.086 C 
HETATM    9  C6  UNK     1      24.062  -7.454  38.787  1.00  0.00     0.033 A 
HETATM   10  C7  UNK     1      26.241  -5.602  38.814  1.00  0.00     0.298 A 
HETATM   11  C8  UNK     1      26.877  -9.855  38.659  1.00  0.00     0.159 C 
HETATM   12  C9  UNK     1      23.840  -6.084  38.899  1.00  0.00     0.092 A 
HETATM   13  C12 UNK     1      22.950  -8.305  38.787  1.00  0.00     0.017 A 
HETATM   14  C13 UNK     1      22.557  -5.547  39.010  1.00  0.00     0.038 A 
HETATM   15  C16 UNK     1      21.657  -7.782  38.897  1.00  0.00     0.001 A 
HETATM   16  C17 UNK     1      29.284  -9.669  38.763  1.00  0.00     0.100 C 
HETATM   17  C18 UNK     1      21.462  -6.405  39.008  1.00  0.00     0.003 A 
ENDROOT
BRANCH   5  18
HETATM   18  C4  UNK     1      28.464  -7.126  37.178  1.00  0.00    -0.022 A 
HETATM   19  C10 UNK     1      29.636  -6.378  37.100  1.00  0.00     0.041 A 
HETATM   20 Cl1  UNK     1      30.501  -5.907  38.518  1.00  0.00    -0.084 Cl
HETATM   21  C14 UNK     1      30.133  -5.993  35.855  1.00  0.00     0.024 A 
HETATM   22  C19 UNK     1      29.455  -6.359  34.691  1.00  0.00     0.002 A 
HETATM   23  C15 UNK     1      28.282  -7.108  34.773  1.00  0.00     0.001 A 
HETATM   24  C11 UNK     1      27.785  -7.492  36.018  1.00  0.00     0.010 A 
ENDBRANCH   5  18
BRANCH  11  25
HETATM   25  N1  UNK     1      26.871 -11.219  38.760  1.00  0.00    -0.379 N 
HETATM   26  H10 UNK     1      27.459 -11.788  38.163  1.00  0.00     0.158 HD
HETATM   27  H9  UNK     1      26.264 -11.655  39.442  1.00  0.00     0.158 HD
ENDBRANCH  11  25
TORSDOF 2
ENDMDL
MODEL 3
REMARK VINA RESULT:      -7.8     35.314     36.704
REMARK  2 active torsions:
REMARK  status: ('A' for Active; 'I' for Inactive)
REMARK    1  A    between atoms: C8_14  and  N1_5 
REMARK    2  A    between atoms: C1_7  and  C4_10 
ROOT
HETATM    1  O1  UNK     1      29.238  -5.906  38.924  1.00  0.00    -0.291 OA
HETATM    2  O2  UNK     1      28.861  -9.090  36.236  1.00  0.00    -0.274 OA
HETATM    3  O3  UNK     1      30.153  -7.972  34.726  1.00  0.00    -0.259 OA
HETATM    4  N2  UNK     1      31.511  -2.255  36.756  1.00  0.00    -0.191 NA
HETATM    5  C1  UNK     1      30.667  -5.713  36.434  1.00  0.00     0.110 C 
HETATM    6  C2  UNK     1      29.791  -6.898  36.815  1.00  0.00     0.066 A 
HETATM    7  C3  UNK     1      29.162  -6.933  38.000  1.00  0.00     0.104 A 
HETATM    8  C5  UNK     1      30.495  -4.547  37.411  1.00  0.00     0.086 C 
HETATM    9  C6  UNK     1      28.348  -8.081  38.389  1.00  0.00     0.033 A 
HETATM   10  C7  UNK     1      29.632  -8.003  35.836  1.00  0.00     0.298 A 
HETATM   11  C8  UNK     1      29.824  -4.691  38.575  1.00  0.00     0.159 C 
HETATM   12  C9  UNK     1      28.225  -9.137  37.491  1.00  0.00     0.092 A 
HETATM   13  C12 UNK     1      27.687  -8.181  39.620  1.00  0.00     0.017 A 
HETATM   14  C13 UNK     1      27.471 -10.274  37.780  1.00  0.00     0.038 A 
HETATM   15  C16 UNK     1      26.927  -9.315  39.926  1.00  0.00     0.001 A 
HETATM   16  C17 UNK     1      31.057  -3.281  37.048  1.00  0.00     0.100 C 
HETATM   17  C18 UNK     1      26.820 -10.360  39.007  1.00  0.00     0.003 A 
ENDROOT
BRANCH   5  18
HETATM   18  C4  UNK     1      32.108  -6.123  36.363  1.00  0.00    -0.022 A 
HETATM   19  C10 UNK     1      32.859  -5.941  35.205  1.00  0.00     0.041 A 
HETATM   20 Cl1  UNK     1      32.174  -5.234  33.787  1.00  0.00    -0.084 Cl
HETATM   21  C14 UNK     1      34.197  -6.335  35.177  1.00  0.00     0.024 A 
HETATM   22  C19 UNK     1      34.779  -6.909  36.307  1.00  0.00     0.002 A 
HETATM   23  C15 UNK     1      34.022  -7.090  37.465  1.00  0.00     0.001 A 
HETATM   24  C11 UNK     1      32.685  -6.697  37.494  1.00  0.00     0.010 A 
ENDBRANCH   5  18
BRANCH  11  25
HETATM   25  N1  UNK     1      29.645  -3.707  39.509  1.00  0.00    -0.379 N 
HETATM   26  H10 UNK     1      29.272  -2.803  39.247  1.00  0.00     0.158 HD
HETATM   27  H9  UNK     1      29.895  -3.896  40.471  1.00  0.00     0.158 HD
ENDBRANCH  11  25
TORSDOF 2
ENDMDL
MODEL 4
REMARK VINA RESULT:      -7.7     32.406     35.057
REMARK  2 active torsions:
REMARK  status: ('A' for Active; 'I' for Inactive)
REMARK    1  A    between atoms: C8_14  and  N1_5 
REMARK    2  A    between atoms: C1_7  and  C4_10 
ROOT
HETATM    1  O1  UNK     1      30.068  -5.776  34.236  1.00  0.00    -0.291 OA
HETATM    2  O2  UNK     1      28.664  -9.472  32.870  1.00  0.00    -0.274 OA
HETATM    3  O3  UNK     1      29.469 -10.477  34.751  1.00  0.00    -0.259 OA
HETATM    4  N2  UNK     1      32.657  -6.441  38.243  1.00  0.00    -0.191 NA
HETATM    5  C1  UNK     1      30.417  -8.047  35.967  1.00  0.00     0.110 C 
HETATM    6  C2  UNK     1      29.759  -8.123  34.597  1.00  0.00     0.066 A 
HETATM    7  C3  UNK     1      29.614  -7.022  33.844  1.00  0.00     0.104 A 
HETATM    8  C5  UNK     1      31.084  -6.689  36.198  1.00  0.00     0.086 C 
HETATM    9  C6  UNK     1      28.952  -7.078  32.543  1.00  0.00     0.033 A 
HETATM   10  C7  UNK     1      29.301  -9.448  34.105  1.00  0.00     0.298 A 
HETATM   11  C8  UNK     1      30.880  -5.647  35.361  1.00  0.00     0.159 C 
HETATM   12  C9  UNK     1      28.488  -8.311  32.093  1.00  0.00     0.092 A 
HETATM   13  C12 UNK     1      28.753  -5.960  31.725  1.00  0.00     0.017 A 
HETATM   14  C13 UNK     1      27.840  -8.457  30.866  1.00  0.00     0.038 A 
HETATM   15  C16 UNK     1      28.106  -6.090  30.492  1.00  0.00     0.001 A 
HETATM   16  C17 UNK     1      31.953  -6.553  37.328  1.00  0.00     0.100 C 
HETATM   17  C18 UNK     1      27.650  -7.337  30.064  1.00  0.00     0.003 A 
ENDROOT
BRANCH   5  18
HETATM   18  C4  UNK     1      29.417  -8.325  37.050  1.00  0.00    -0.022 A 
HETATM   19  C10 UNK     1      29.654  -9.285  38.030  1.00  0.00     0.041 A 
HETATM   20 Cl1  UNK     1      31.114 -10.207  38.054  1.00  0.00    -0.084 Cl
HETATM   21  C14 UNK     1      28.701  -9.515  39.021  1.00  0.00     0.024 A 
HETATM   22  C19 UNK     1      27.512  -8.785  39.028  1.00  0.00     0.002 A 
HETATM   23  C15 UNK     1      27.278  -7.825  38.044  1.00  0.00     0.001 A 
HETATM   24  C11 UNK     1      28.231  -7.594  37.053  1.00  0.00     0.010 A 
ENDBRANCH   5  18
BRANCH  11  25
HETATM   25  N1  UNK     1      31.420  -4.400  35.509  1.00  0.00    -0.379 N 
HETATM   26  H10 UNK     1      31.206  -3.658  34.854  1.00  0.00     0.158 HD
HETATM   27  H9  UNK     1      32.044  -4.227  36.287  1.00  0.00     0.158 HD
ENDBRANCH  11  25
TORSDOF 2
ENDMDL
MODEL 5
REMARK VINA RESULT:      -7.6     24.800     26.420
REMARK  2 active torsions:
REMARK  status: ('A' for Active; 'I' for Inactive)
REMARK    1  A    between atoms: C8_14  and  N1_5 
REMARK    2  A    between atoms: C1_7  and  C4_10 
ROOT
HETATM    1  O1  UNK     1      17.530   2.207  32.667  1.00  0.00    -0.291 OA
HETATM    2  O2  UNK     1      19.255   2.361  36.475  1.00  0.00    -0.274 OA
HETATM    3  O3  UNK     1      20.406   4.237  35.882  1.00  0.00    -0.259 OA
HETATM    4  N2  UNK     1      19.550   5.567  29.869  1.00  0.00    -0.191 NA
HETATM    5  C1  UNK     1      19.268   4.425  33.245  1.00  0.00     0.110 C 
HETATM    6  C2  UNK     1      18.951   3.319  34.241  1.00  0.00     0.066 A 
HETATM    7  C3  UNK     1      18.120   2.319  33.913  1.00  0.00     0.104 A 
HETATM    8  C5  UNK     1      18.759   4.084  31.842  1.00  0.00     0.086 C 
HETATM    9  C6  UNK     1      17.783   1.271  34.873  1.00  0.00     0.033 A 
HETATM   10  C7  UNK     1      19.602   3.363  35.575  1.00  0.00     0.298 A 
HETATM   11  C8  UNK     1      17.933   3.037  31.623  1.00  0.00     0.159 C 
HETATM   12  C9  UNK     1      18.361   1.327  36.139  1.00  0.00     0.092 A 
HETATM   13  C12 UNK     1      16.906   0.216  34.594  1.00  0.00     0.017 A 
HETATM   14  C13 UNK     1      18.092   0.372  37.120  1.00  0.00     0.038 A 
HETATM   15  C16 UNK     1      16.626  -0.749  35.568  1.00  0.00     0.001 A 
HETATM   16  C17 UNK     1      19.197   4.904  30.752  1.00  0.00     0.100 C 
HETATM   17  C18 UNK     1      17.219  -0.670  36.828  1.00  0.00     0.003 A 
ENDROOT
BRANCH   5  18
HETATM   18  C4  UNK     1      18.690   5.731  33.704  1.00  0.00    -0.022 A 
HETATM   19  C10 UNK     1      19.439   6.904  33.688  1.00  0.00     0.041 A 
HETATM   20 Cl1  UNK     1      21.076   6.921  33.138  1.00  0.00    -0.084 Cl
HETATM   21  C14 UNK     1      18.867   8.099  34.122  1.00  0.00     0.024 A 
HETATM   22  C19 UNK     1      17.546   8.117  34.572  1.00  0.00     0.002 A 
HETATM   23  C15 UNK     1      16.799   6.940  34.587  1.00  0.00     0.001 A 
HETATM   24  C11 UNK     1      17.371   5.744  34.152  1.00  0.00     0.010 A 
ENDBRANCH   5  18
BRANCH  11  25
HETATM   25  N1  UNK     1      17.419   2.679  30.407  1.00  0.00    -0.379 N 
HETATM   26  H10 UNK     1      17.014   3.372  29.789  1.00  0.00     0.158 HD
HETATM   27  H9  UNK     1      17.447   1.706  30.133  1.00  0.00     0.158 HD
ENDBRANCH  11  25
TORSDOF 2
ENDMDL
MODEL 6
REMARK VINA RESULT:      -7.6     32.917     35.676
REMARK  2 active torsions:
REMARK  status: ('A' for Active; 'I' for Inactive)
REMARK    1  A    between atoms: C8_14  and  N1_5 
REMARK    2  A    between atoms: C1_7  and  C4_10 
ROOT
HETATM    1  O1  UNK     1      28.007  -6.943  35.279  1.00  0.00    -0.291 OA
HETATM    2  O2  UNK     1      30.427  -9.363  37.687  1.00  0.00    -0.274 OA
HETATM    3  O3  UNK     1      32.174  -9.043  36.258  1.00  0.00    -0.259 OA
HETATM    4  N2  UNK     1      30.398  -5.809  31.255  1.00  0.00    -0.191 NA
HETATM    5  C1  UNK     1      30.761  -7.250  34.506  1.00  0.00     0.110 C 
HETATM    6  C2  UNK     1      30.149  -7.917  35.728  1.00  0.00     0.066 A 
HETATM    7  C3  UNK     1      28.860  -7.722  36.043  1.00  0.00     0.104 A 
HETATM    8  C5  UNK     1      29.692  -6.613  33.615  1.00  0.00     0.086 C 
HETATM    9  C6  UNK     1      28.271  -8.330  37.233  1.00  0.00     0.033 A 
HETATM   10  C7  UNK     1      31.007  -8.806  36.552  1.00  0.00     0.298 A 
HETATM   11  C8  UNK     1      28.412  -6.481  34.029  1.00  0.00     0.159 C 
HETATM   12  C9  UNK     1      29.081  -9.134  38.030  1.00  0.00     0.092 A 
HETATM   13  C12 UNK     1      26.939  -8.143  37.621  1.00  0.00     0.017 A 
HETATM   14  C13 UNK     1      28.605  -9.751  39.187  1.00  0.00     0.038 A 
HETATM   15  C16 UNK     1      26.446  -8.755  38.779  1.00  0.00     0.001 A 
HETATM   16  C17 UNK     1      30.083  -6.169  32.311  1.00  0.00     0.100 C 
HETATM   17  C18 UNK     1      27.279  -9.557  39.560  1.00  0.00     0.003 A 
ENDROOT
BRANCH   5  18
HETATM   18  C4  UNK     1      31.774  -6.222  34.916  1.00  0.00    -0.022 A 
HETATM   19  C10 UNK     1      33.064  -6.222  34.393  1.00  0.00     0.041 A 
HETATM   20 Cl1  UNK     1      33.569  -7.405  33.241  1.00  0.00    -0.084 Cl
HETATM   21  C14 UNK     1      33.978  -5.251  34.798  1.00  0.00     0.024 A 
HETATM   22  C19 UNK     1      33.599  -4.281  35.727  1.00  0.00     0.002 A 
HETATM   23  C15 UNK     1      32.306  -4.285  36.250  1.00  0.00     0.001 A 
HETATM   24  C11 UNK     1      31.392  -5.257  35.844  1.00  0.00     0.010 A 
ENDBRANCH   5  18
BRANCH  11  25
HETATM   25  N1  UNK     1      27.404  -5.906  33.304  1.00  0.00    -0.379 N 
HETATM   26  H10 UNK     1      26.765  -6.473  32.761  1.00  0.00     0.158 HD
HETATM   27  H9  UNK     1      27.308  -4.899  33.316  1.00  0.00     0.158 HD
ENDBRANCH  11  25
TORSDOF 2
ENDMDL
MODEL 7
REMARK VINA RESULT:      -7.6     32.126     34.947
REMARK  2 active torsions:
REMARK  status: ('A' for Active; 'I' for Inactive)
REMARK    1  A    between atoms: C8_14  and  N1_5 
REMARK    2  A    between atoms: C1_7  and  C4_10 
ROOT
HETATM    1  O1  UNK     1      28.274  -7.831  34.868  1.00  0.00    -0.291 OA
HETATM    2  O2  UNK     1      30.827  -5.918  32.162  1.00  0.00    -0.274 OA
HETATM    3  O3  UNK     1      31.686  -4.658  33.857  1.00  0.00    -0.259 OA
HETATM    4  N2  UNK     1      28.634  -5.698  39.172  1.00  0.00    -0.191 NA
HETATM    5  C1  UNK     1      30.127  -5.904  35.931  1.00  0.00     0.110 C 
HETATM    6  C2  UNK     1      30.029  -6.255  34.454  1.00  0.00     0.066 A 
HETATM    7  C3  UNK     1      29.152  -7.174  34.024  1.00  0.00     0.104 A 
HETATM    8  C5  UNK     1      28.969  -6.504  36.732  1.00  0.00     0.086 C 
HETATM    9  C6  UNK     1      29.074  -7.543  32.613  1.00  0.00     0.033 A 
HETATM   10  C7  UNK     1      30.912  -5.540  33.497  1.00  0.00     0.298 A 
HETATM   11  C8  UNK     1      28.131  -7.416  36.191  1.00  0.00     0.159 C 
HETATM   12  C9  UNK     1      29.925  -6.903  31.717  1.00  0.00     0.092 A 
HETATM   13  C12 UNK     1      28.194  -8.510  32.112  1.00  0.00     0.017 A 
HETATM   14  C13 UNK     1      29.923  -7.195  30.353  1.00  0.00     0.038 A 
HETATM   15  C16 UNK     1      28.180  -8.815  30.746  1.00  0.00     0.001 A 
HETATM   16  C17 UNK     1      28.784  -6.058  38.080  1.00  0.00     0.100 C 
HETATM   17  C18 UNK     1      29.043  -8.158  29.869  1.00  0.00     0.003 A 
ENDROOT
BRANCH   5  18
HETATM   18  C4  UNK     1      31.440  -6.359  36.496  1.00  0.00    -0.022 A 
HETATM   19  C10 UNK     1      32.345  -5.458  37.049  1.00  0.00     0.041 A 
HETATM   20 Cl1  UNK     1      32.006  -3.766  37.116  1.00  0.00    -0.084 Cl
HETATM   21  C14 UNK     1      33.556  -5.918  37.565  1.00  0.00     0.024 A 
HETATM   22  C19 UNK     1      33.858  -7.280  37.526  1.00  0.00     0.002 A 
HETATM   23  C15 UNK     1      32.949  -8.179  36.970  1.00  0.00     0.001 A 
HETATM   24  C11 UNK     1      31.737  -7.719  36.454  1.00  0.00     0.010 A 
ENDBRANCH   5  18
BRANCH  11  25
HETATM   25  N1  UNK     1      27.088  -8.014  36.844  1.00  0.00    -0.379 N 
HETATM   26  H10 UNK     1      27.215  -8.425  37.761  1.00  0.00     0.158 HD
HETATM   27  H9  UNK     1      26.182  -8.043  36.394  1.00  0.00     0.158 HD
ENDBRANCH  11  25
TORSDOF 2
ENDMDL
MODEL 8
REMARK VINA RESULT:      -7.5     31.761     34.262
REMARK  2 active torsions:
REMARK  status: ('A' for Active; 'I' for Inactive)
REMARK    1  A    between atoms: C8_14  and  N1_5 
REMARK    2  A    between atoms: C1_7  and  C4_10 
ROOT
HETATM    1  O1  UNK     1      29.685  -5.981  36.344  1.00  0.00    -0.291 OA
HETATM    2  O2  UNK     1      32.884  -6.360  33.675  1.00  0.00    -0.274 OA
HETATM    3  O3  UNK     1      31.961  -8.268  32.834  1.00  0.00    -0.259 OA
HETATM    4  N2  UNK     1      26.899  -9.899  36.053  1.00  0.00    -0.191 NA
HETATM    5  C1  UNK     1      29.600  -8.168  34.477  1.00  0.00     0.110 C 
HETATM    6  C2  UNK     1      30.736  -7.158  34.543  1.00  0.00     0.066 A 
HETATM    7  C3  UNK     1      30.708  -6.151  35.429  1.00  0.00     0.104 A 
HETATM    8  C5  UNK     1      28.651  -8.028  35.670  1.00  0.00     0.086 C 
HETATM    9  C6  UNK     1      31.777  -5.157  35.476  1.00  0.00     0.033 A 
HETATM   10  C7  UNK     1      31.886  -7.327  33.618  1.00  0.00     0.298 A 
HETATM   11  C8  UNK     1      28.723  -6.975  36.513  1.00  0.00     0.159 C 
HETATM   12  C9  UNK     1      32.839  -5.288  34.587  1.00  0.00     0.092 A 
HETATM   13  C12 UNK     1      31.789  -4.074  36.364  1.00  0.00     0.017 A 
HETATM   14  C13 UNK     1      33.900  -4.383  34.559  1.00  0.00     0.038 A 
HETATM   15  C16 UNK     1      32.846  -3.157  36.348  1.00  0.00     0.001 A 
HETATM   16  C17 UNK     1      27.683  -9.062  35.881  1.00  0.00     0.100 C 
HETATM   17  C18 UNK     1      33.899  -3.312  35.447  1.00  0.00     0.003 A 
ENDROOT
BRANCH   5  18
HETATM   18  C4  UNK     1      28.841  -8.027  33.191  1.00  0.00    -0.022 A 
HETATM   19  C10 UNK     1      28.746  -9.078  32.283  1.00  0.00     0.041 A 
HETATM   20 Cl1  UNK     1      29.497 -10.603  32.588  1.00  0.00    -0.084 Cl
HETATM   21  C14 UNK     1      28.032  -8.909  31.097  1.00  0.00     0.024 A 
HETATM   22  C19 UNK     1      27.415  -7.688  30.823  1.00  0.00     0.002 A 
HETATM   23  C15 UNK     1      27.513  -6.637  31.735  1.00  0.00     0.001 A 
HETATM   24  C11 UNK     1      28.227  -6.806  32.921  1.00  0.00     0.010 A 
ENDBRANCH   5  18
BRANCH  11  25
HETATM   25  N1  UNK     1      27.901  -6.766  37.587  1.00  0.00    -0.379 N 
HETATM   26  H10 UNK     1      27.383  -7.531  38.002  1.00  0.00     0.158 HD
HETATM   27  H9  UNK     1      27.815  -5.830  37.961  1.00  0.00     0.158 HD
ENDBRANCH  11  25
TORSDOF 2
ENDMDL
MODEL 9
REMARK VINA RESULT:      -7.5     33.634     35.678
REMARK  2 active torsions:
REMARK  status: ('A' for Active; 'I' for Inactive)
REMARK    1  A    between atoms: C8_14  and  N1_5 
REMARK    2  A    between atoms: C1_7  and  C4_10 
ROOT
HETATM    1  O1  UNK     1      30.652  -6.655  38.108  1.00  0.00    -0.291 OA
HETATM    2  O2  UNK     1      27.187  -7.523  35.931  1.00  0.00    -0.274 OA
HETATM    3  O3  UNK     1      28.058  -6.458  34.113  1.00  0.00    -0.259 OA
HETATM    4  N2  UNK     1      33.486  -3.763  35.500  1.00  0.00    -0.191 NA
HETATM    5  C1  UNK     1      30.584  -5.844  35.349  1.00  0.00     0.110 C 
HETATM    6  C2  UNK     1      29.437  -6.561  36.047  1.00  0.00     0.066 A 
HETATM    7  C3  UNK     1      29.537  -6.925  37.334  1.00  0.00     0.104 A 
HETATM    8  C5  UNK     1      31.655  -5.392  36.344  1.00  0.00     0.086 C 
HETATM    9  C6  UNK     1      28.456  -7.643  38.003  1.00  0.00     0.033 A 
HETATM   10  C7  UNK     1      28.196  -6.827  35.275  1.00  0.00     0.298 A 
HETATM   11  C8  UNK     1      31.651  -5.810  37.629  1.00  0.00     0.159 C 
HETATM   12  C9  UNK     1      27.305  -7.929  37.274  1.00  0.00     0.092 A 
HETATM   13  C12 UNK     1      28.515  -8.067  39.336  1.00  0.00     0.017 A 
HETATM   14  C13 UNK     1      26.225  -8.614  37.830  1.00  0.00     0.038 A 
HETATM   15  C16 UNK     1      27.441  -8.756  39.909  1.00  0.00     0.001 A 
HETATM   16  C17 UNK     1      32.666  -4.492  35.877  1.00  0.00     0.100 C 
HETATM   17  C18 UNK     1      26.298  -9.029  39.156  1.00  0.00     0.003 A 
ENDROOT
BRANCH   5  18
HETATM   18  C4  UNK     1      31.191  -6.722  34.294  1.00  0.00    -0.022 A 
HETATM   19  C10 UNK     1      31.187  -6.354  32.952  1.00  0.00     0.041 A 
HETATM   20 Cl1  UNK     1      30.482  -4.868  32.426  1.00  0.00    -0.084 Cl
HETATM   21  C14 UNK     1      31.761  -7.196  32.000  1.00  0.00     0.024 A 
HETATM   22  C19 UNK     1      32.338  -8.403  32.395  1.00  0.00     0.002 A 
HETATM   23  C15 UNK     1      32.340  -8.768  33.741  1.00  0.00     0.001 A 
HETATM   24  C11 UNK     1      31.765  -7.926  34.693  1.00  0.00     0.010 A 
ENDBRANCH   5  18
BRANCH  11  25
HETATM   25  N1  UNK     1      32.582  -5.470  38.572  1.00  0.00    -0.379 N 
HETATM   26  H10 UNK     1      33.061  -6.181  39.110  1.00  0.00     0.158 HD
HETATM   27  H9  UNK     1      32.784  -4.491  38.726  1.00  0.00     0.158 HD
ENDBRANCH  11  25
TORSDOF 2
ENDMDL
MODEL 10
REMARK VINA RESULT:      -7.5     31.886     34.477
REMARK  2 active torsions:
REMARK  status: ('A' for Active; 'I' for Inactive)
REMARK    1  A    between atoms: C8_14  and  N1_5 
REMARK    2  A    between atoms: C1_7  and  C4_10 
ROOT
HETATM    1  O1  UNK     1      28.519  -7.934  36.138  1.00  0.00    -0.291 OA
HETATM    2  O2  UNK     1      31.340  -4.846  36.072  1.00  0.00    -0.274 OA
HETATM    3  O3  UNK     1      32.216  -5.683  34.141  1.00  0.00    -0.259 OA
HETATM    4  N2  UNK     1      29.509 -11.068  32.617  1.00  0.00    -0.191 NA
HETATM    5  C1  UNK     1      30.311  -7.826  33.890  1.00  0.00     0.110 C 
HETATM    6  C2  UNK     1      30.340  -6.831  35.042  1.00  0.00     0.066 A 
HETATM    7  C3  UNK     1      29.466  -6.929  36.055  1.00  0.00     0.104 A 
HETATM    8  C5  UNK     1      29.397  -9.015  34.195  1.00  0.00     0.086 C 
HETATM    9  C6  UNK     1      29.463  -5.959  37.146  1.00  0.00     0.033 A 
HETATM   10  C7  UNK     1      31.372  -5.763  35.027  1.00  0.00     0.298 A 
HETATM   11  C8  UNK     1      28.563  -9.014  35.258  1.00  0.00     0.159 C 
HETATM   12  C9  UNK     1      30.404  -4.934  37.120  1.00  0.00     0.092 A 
HETATM   13  C12 UNK     1      28.561  -5.999  38.217  1.00  0.00     0.017 A 
HETATM   14  C13 UNK     1      30.471  -3.962  38.118  1.00  0.00     0.038 A 
HETATM   15  C16 UNK     1      28.615  -5.031  39.226  1.00  0.00     0.001 A 
HETATM   16  C17 UNK     1      29.460 -10.149  33.323  1.00  0.00     0.100 C 
HETATM   17  C18 UNK     1      29.569  -4.015  39.175  1.00  0.00     0.003 A 
ENDROOT
BRANCH   5  18
HETATM   18  C4  UNK     1      29.882  -7.152  32.621  1.00  0.00    -0.022 A 
HETATM   19  C10 UNK     1      30.695  -7.143  31.491  1.00  0.00     0.041 A 
HETATM   20 Cl1  UNK     1      32.243  -7.908  31.489  1.00  0.00    -0.084 Cl
HETATM   21  C14 UNK     1      30.261  -6.507  30.329  1.00  0.00     0.024 A 
HETATM   22  C19 UNK     1      29.015  -5.881  30.300  1.00  0.00     0.002 A 
HETATM   23  C15 UNK     1      28.203  -5.891  31.434  1.00  0.00     0.001 A 
HETATM   24  C11 UNK     1      28.637  -6.528  32.597  1.00  0.00     0.010 A 
ENDBRANCH   5  18
BRANCH  11  25
HETATM   25  N1  UNK     1      27.702 -10.025  35.586  1.00  0.00    -0.379 N 
HETATM   26  H10 UNK     1      27.642 -10.862  35.020  1.00  0.00     0.158 HD
HETATM   27  H9  UNK     1      27.120  -9.923  36.408  1.00  0.00     0.158 HD
ENDBRANCH  11  25
TORSDOF 2
ENDMDL
