MODEL 1
REMARK VINA RESULT:      -8.6      0.000      0.000
REMARK  2 active torsions:
REMARK  status: ('A' for Active; 'I' for Inactive)
REMARK       I    between atoms: C6_10  and  N1_4 
REMARK    1  A    between atoms: C7_11  and  N1_4 
REMARK    2  A    between atoms: C1_5  and  C6_10 
ROOT
HETATM    1  O2  UNK     1      19.265  -0.347  32.824  1.00  0.00    -0.275 OA
HETATM    2  O3  UNK     1      20.067  -2.445  33.257  1.00  0.00    -0.260 OA
HETATM    3  C7  UNK     1      18.177   2.894  31.500  1.00  0.00     0.037 A 
HETATM    4  C8  UNK     1      18.427   1.842  32.375  1.00  0.00     0.067 A 
HETATM    5  C9  UNK     1      18.539   2.779  30.159  1.00  0.00     0.030 A 
HETATM    6  C10 UNK     1      19.411   0.541  30.553  1.00  0.00     0.004 A 
HETATM    7  C11 UNK     1      19.039   0.684  31.890  1.00  0.00     0.092 A 
HETATM    8  C12 UNK     1      19.151   1.612  29.687  1.00  0.00     0.017 A 
HETATM    9  C13 UNK     1      20.049  -0.713  30.130  1.00  0.00    -0.043 A 
HETATM   10  C14 UNK     1      20.252  -1.677  31.039  1.00  0.00     0.090 A 
HETATM   11  C15 UNK     1      20.462  -0.897  28.698  1.00  0.00     0.049 C 
HETATM   12  C16 UNK     1      19.865  -1.541  32.454  1.00  0.00     0.288 A 
ENDROOT
BRANCH   3  13
HETATM   13  N1  UNK     1      17.567   4.060  31.963  1.00  0.00    -0.327 N 
HETATM   14  C6  UNK     1      18.163   5.297  32.240  1.00  0.00     0.226 C 
HETATM   15  O1  UNK     1      19.348   5.596  32.124  1.00  0.00    -0.273 OA
HETATM   16  H10 UNK     1      16.562   3.990  32.108  1.00  0.00     0.169 HD
BRANCH  14  17
HETATM   17  C1  UNK     1      17.162   6.302  32.722  1.00  0.00     0.078 C 
HETATM   18  C2  UNK     1      17.451   7.676  32.109  1.00  0.00     0.014 C 
HETATM   19  C4  UNK     1      17.609   8.633  33.285  1.00  0.00     0.001 C 
HETATM   20  C5  UNK     1      18.084   7.746  34.422  1.00  0.00     0.001 C 
HETATM   21  C3  UNK     1      17.261   6.480  34.238  1.00  0.00     0.014 C 
ENDBRANCH  14  17
ENDBRANCH   3  13
TORSDOF 2
ENDMDL
MODEL 2
REMARK VINA RESULT:      -8.3      6.396      9.117
REMARK  2 active torsions:
REMARK  status: ('A' for Active; 'I' for Inactive)
REMARK       I    between atoms: C6_10  and  N1_4 
REMARK    1  A    between atoms: C7_11  and  N1_4 
REMARK    2  A    between atoms: C1_5  and  C6_10 
ROOT
HETATM    1  O2  UNK     1      20.704  -7.692  35.137  1.00  0.00    -0.275 OA
HETATM    2  O3  UNK     1      21.454  -9.786  34.601  1.00  0.00    -0.260 OA
HETATM    3  C7  UNK     1      19.850  -4.425  36.563  1.00  0.00     0.037 A 
HETATM    4  C8  UNK     1      19.921  -5.508  35.693  1.00  0.00     0.067 A 
HETATM    5  C9  UNK     1      20.524  -4.472  37.782  1.00  0.00     0.030 A 
HETATM    6  C10 UNK     1      21.355  -6.702  37.273  1.00  0.00     0.004 A 
HETATM    7  C11 UNK     1      20.670  -6.628  36.059  1.00  0.00     0.092 A 
HETATM    8  C12 UNK     1      21.271  -5.601  38.136  1.00  0.00     0.017 A 
HETATM    9  C13 UNK     1      22.119  -7.920  37.576  1.00  0.00    -0.043 A 
HETATM   10  C14 UNK     1      22.134  -8.917  36.680  1.00  0.00     0.090 A 
HETATM   11  C15 UNK     1      22.866  -8.031  38.874  1.00  0.00     0.049 C 
HETATM   12  C16 UNK     1      21.417  -8.853  35.396  1.00  0.00     0.288 A 
ENDROOT
BRANCH   3  13
HETATM   13  N1  UNK     1      19.108  -3.296  36.216  1.00  0.00    -0.327 N 
HETATM   14  C6  UNK     1      19.579  -2.052  35.774  1.00  0.00     0.226 C 
HETATM   15  O1  UNK     1      20.746  -1.717  35.600  1.00  0.00    -0.273 OA
HETATM   16  H10 UNK     1      18.099  -3.405  36.296  1.00  0.00     0.169 HD
BRANCH  14  17
HETATM   17  C1  UNK     1      18.457  -1.096  35.505  1.00  0.00     0.078 C 
HETATM   18  C2  UNK     1      18.938   0.349  35.678  1.00  0.00     0.014 C 
HETATM   19  C4  UNK     1      18.006   0.978  36.707  1.00  0.00     0.001 C 
HETATM   20  C5  UNK     1      17.535  -0.196  37.546  1.00  0.00     0.001 C 
HETATM   21  C3  UNK     1      17.325  -1.294  36.514  1.00  0.00     0.014 C 
ENDBRANCH  14  17
ENDBRANCH   3  13
TORSDOF 2
ENDMDL
MODEL 3
REMARK VINA RESULT:      -8.2      1.644      2.430
REMARK  2 active torsions:
REMARK  status: ('A' for Active; 'I' for Inactive)
REMARK       I    between atoms: C6_10  and  N1_4 
REMARK    1  A    between atoms: C7_11  and  N1_4 
REMARK    2  A    between atoms: C1_5  and  C6_10 
ROOT
HETATM    1  O2  UNK     1      19.412   1.111  29.399  1.00  0.00    -0.275 OA
HETATM    2  O3  UNK     1      20.240  -0.589  28.113  1.00  0.00    -0.260 OA
HETATM    3  C7  UNK     1      18.110   3.389  31.960  1.00  0.00     0.037 A 
HETATM    4  C8  UNK     1      18.549   2.888  30.739  1.00  0.00     0.067 A 
HETATM    5  C9  UNK     1      18.103   2.566  33.084  1.00  0.00     0.030 A 
HETATM    6  C10 UNK     1      18.983   0.714  31.771  1.00  0.00     0.004 A 
HETATM    7  C11 UNK     1      18.978   1.561  30.662  1.00  0.00     0.092 A 
HETATM    8  C12 UNK     1      18.537   1.238  32.992  1.00  0.00     0.017 A 
HETATM    9  C13 UNK     1      19.452  -0.667  31.599  1.00  0.00    -0.043 A 
HETATM   10  C14 UNK     1      19.859  -1.068  30.386  1.00  0.00     0.090 A 
HETATM   11  C15 UNK     1      19.469  -1.604  32.772  1.00  0.00     0.049 C 
HETATM   12  C16 UNK     1      19.861  -0.186  29.207  1.00  0.00     0.288 A 
ENDROOT
BRANCH   3  13
HETATM   13  N1  UNK     1      17.676   4.711  32.059  1.00  0.00    -0.327 N 
HETATM   14  C6  UNK     1      18.455   5.872  32.155  1.00  0.00     0.226 C 
HETATM   15  O1  UNK     1      19.680   5.949  32.166  1.00  0.00    -0.273 OA
HETATM   16  H10 UNK     1      16.666   4.834  32.055  1.00  0.00     0.169 HD
BRANCH  14  17
HETATM   17  C1  UNK     1      17.608   7.105  32.245  1.00  0.00     0.078 C 
HETATM   18  C2  UNK     1      18.247   8.121  33.197  1.00  0.00     0.014 C 
HETATM   19  C4  UNK     1      17.189   8.428  34.251  1.00  0.00     0.001 C 
HETATM   20  C5  UNK     1      16.336   7.173  34.295  1.00  0.00     0.001 C 
HETATM   21  C3  UNK     1      16.234   6.775  32.830  1.00  0.00     0.014 C 
ENDBRANCH  14  17
ENDBRANCH   3  13
TORSDOF 2
ENDMDL
MODEL 4
REMARK VINA RESULT:      -8.2      2.466      8.132
REMARK  2 active torsions:
REMARK  status: ('A' for Active; 'I' for Inactive)
REMARK       I    between atoms: C6_10  and  N1_4 
REMARK    1  A    between atoms: C7_11  and  N1_4 
REMARK    2  A    between atoms: C1_5  and  C6_10 
ROOT
HETATM    1  O2  UNK     1      16.427   8.411  33.190  1.00  0.00    -0.275 OA
HETATM    2  O3  UNK     1      15.601  10.471  33.741  1.00  0.00    -0.260 OA
HETATM    3  C7  UNK     1      18.336   5.354  32.520  1.00  0.00     0.037 A 
HETATM    4  C8  UNK     1      17.285   6.259  32.614  1.00  0.00     0.067 A 
HETATM    5  C9  UNK     1      19.614   5.733  32.925  1.00  0.00     0.030 A 
HETATM    6  C10 UNK     1      18.800   7.945  33.532  1.00  0.00     0.004 A 
HETATM    7  C11 UNK     1      17.531   7.538  33.118  1.00  0.00     0.092 A 
HETATM    8  C12 UNK     1      19.846   7.018  33.428  1.00  0.00     0.017 A 
HETATM    9  C13 UNK     1      18.968   9.310  34.049  1.00  0.00    -0.043 A 
HETATM   10  C14 UNK     1      17.900  10.118  34.107  1.00  0.00     0.090 A 
HETATM   11  C15 UNK     1      20.321   9.778  34.502  1.00  0.00     0.049 C 
HETATM   12  C16 UNK     1      16.555   9.703  33.674  1.00  0.00     0.288 A 
ENDROOT
BRANCH   3  13
HETATM   13  N1  UNK     1      18.113   4.071  32.020  1.00  0.00    -0.327 N 
HETATM   14  C6  UNK     1      18.450   3.562  30.759  1.00  0.00     0.226 C 
HETATM   15  O1  UNK     1      19.016   4.153  29.844  1.00  0.00    -0.273 OA
HETATM   16  H10 UNK     1      17.650   3.433  32.666  1.00  0.00     0.169 HD
BRANCH  14  17
HETATM   17  C1  UNK     1      18.036   2.130  30.608  1.00  0.00     0.078 C 
HETATM   18  C2  UNK     1      18.956   1.222  31.432  1.00  0.00     0.014 C 
HETATM   19  C4  UNK     1      19.526   0.205  30.450  1.00  0.00     0.001 C 
HETATM   20  C5  UNK     1      19.501   0.925  29.114  1.00  0.00     0.001 C 
HETATM   21  C3  UNK     1      18.179   1.677  29.154  1.00  0.00     0.014 C 
ENDBRANCH  14  17
ENDBRANCH   3  13
TORSDOF 2
ENDMDL
MODEL 5
REMARK VINA RESULT:      -8.1      4.132      7.871
REMARK  2 active torsions:
REMARK  status: ('A' for Active; 'I' for Inactive)
REMARK       I    between atoms: C6_10  and  N1_4 
REMARK    1  A    between atoms: C7_11  and  N1_4 
REMARK    2  A    between atoms: C1_5  and  C6_10 
ROOT
HETATM    1  O2  UNK     1      18.335   0.827  31.721  1.00  0.00    -0.275 OA
HETATM    2  O3  UNK     1      17.678   2.495  30.301  1.00  0.00    -0.260 OA
HETATM    3  C7  UNK     1      19.779  -2.043  33.488  1.00  0.00     0.037 A 
HETATM    4  C8  UNK     1      19.019  -0.912  33.205  1.00  0.00     0.067 A 
HETATM    5  C9  UNK     1      20.633  -2.563  32.517  1.00  0.00     0.030 A 
HETATM    6  C10 UNK     1      19.976  -0.814  30.957  1.00  0.00     0.004 A 
HETATM    7  C11 UNK     1      19.129  -0.316  31.947  1.00  0.00     0.092 A 
HETATM    8  C12 UNK     1      20.733  -1.953  31.261  1.00  0.00     0.017 A 
HETATM    9  C13 UNK     1      20.028  -0.122  29.662  1.00  0.00    -0.043 A 
HETATM   10  C14 UNK     1      19.263   0.962  29.474  1.00  0.00     0.090 A 
HETATM   11  C15 UNK     1      20.930  -0.634  28.576  1.00  0.00     0.049 C 
HETATM   12  C16 UNK     1      18.364   1.500  30.509  1.00  0.00     0.288 A 
ENDROOT
BRANCH   3  13
HETATM   13  N1  UNK     1      19.685  -2.655  34.738  1.00  0.00    -0.327 N 
HETATM   14  C6  UNK     1      20.591  -2.587  35.804  1.00  0.00     0.226 C 
HETATM   15  O1  UNK     1      21.649  -1.967  35.845  1.00  0.00    -0.273 OA
HETATM   16  H10 UNK     1      18.846  -3.213  34.881  1.00  0.00     0.169 HD
BRANCH  14  17
HETATM   17  C1  UNK     1      20.126  -3.390  36.981  1.00  0.00     0.078 C 
HETATM   18  C2  UNK     1      21.314  -4.094  37.646  1.00  0.00     0.014 C 
HETATM   19  C4  UNK     1      20.963  -5.578  37.660  1.00  0.00     0.001 C 
HETATM   20  C5  UNK     1      20.027  -5.749  36.477  1.00  0.00     0.001 C 
HETATM   21  C3  UNK     1      19.167  -4.495  36.537  1.00  0.00     0.014 C 
ENDBRANCH  14  17
ENDBRANCH   3  13
TORSDOF 2
ENDMDL
MODEL 6
REMARK VINA RESULT:      -8.1     23.196     24.799
REMARK  2 active torsions:
REMARK  status: ('A' for Active; 'I' for Inactive)
REMARK       I    between atoms: C6_10  and  N1_4 
REMARK    1  A    between atoms: C7_11  and  N1_4 
REMARK    2  A    between atoms: C1_5  and  C6_10 
ROOT
HETATM    1  O2  UNK     1       9.307   7.555   9.304  1.00  0.00    -0.275 OA
HETATM    2  O3  UNK     1       7.037   7.327   9.143  1.00  0.00    -0.260 OA
HETATM    3  C7  UNK     1      12.953   7.672   8.938  1.00  0.00     0.037 A 
HETATM    4  C8  UNK     1      11.675   7.793   9.474  1.00  0.00     0.067 A 
HETATM    5  C9  UNK     1      13.117   7.169   7.648  1.00  0.00     0.030 A 
HETATM    6  C10 UNK     1      10.709   6.901   7.413  1.00  0.00     0.004 A 
HETATM    7  C11 UNK     1      10.575   7.407   8.706  1.00  0.00     0.092 A 
HETATM    8  C12 UNK     1      12.004   6.786   6.890  1.00  0.00     0.017 A 
HETATM    9  C13 UNK     1       9.495   6.520   6.677  1.00  0.00    -0.043 A 
HETATM   10  C14 UNK     1       8.303   6.671   7.270  1.00  0.00     0.090 A 
HETATM   11  C15 UNK     1       9.606   5.971   5.284  1.00  0.00     0.049 C 
HETATM   12  C16 UNK     1       8.145   7.204   8.634  1.00  0.00     0.288 A 
ENDROOT
BRANCH   3  13
HETATM   13  N1  UNK     1      14.066   8.051   9.687  1.00  0.00    -0.327 N 
HETATM   14  C6  UNK     1      14.897   7.242  10.474  1.00  0.00     0.226 C 
HETATM   15  O1  UNK     1      14.805   6.032  10.653  1.00  0.00    -0.273 OA
HETATM   16  H10 UNK     1      14.295   9.043   9.643  1.00  0.00     0.169 HD
BRANCH  14  17
HETATM   17  C1  UNK     1      15.991   8.034  11.124  1.00  0.00     0.078 C 
HETATM   18  C2  UNK     1      15.581   9.505  11.247  1.00  0.00     0.014 C 
HETATM   19  C4  UNK     1      16.673  10.303  10.545  1.00  0.00     0.001 C 
HETATM   20  C5  UNK     1      17.234   9.337   9.516  1.00  0.00     0.001 C 
HETATM   21  C3  UNK     1      17.256   8.013  10.265  1.00  0.00     0.014 C 
ENDBRANCH  14  17
ENDBRANCH   3  13
TORSDOF 2
ENDMDL
MODEL 7
REMARK VINA RESULT:      -7.9      3.673      7.785
REMARK  2 active torsions:
REMARK  status: ('A' for Active; 'I' for Inactive)
REMARK       I    between atoms: C6_10  and  N1_4 
REMARK    1  A    between atoms: C7_11  and  N1_4 
REMARK    2  A    between atoms: C1_5  and  C6_10 
ROOT
HETATM    1  O2  UNK     1      19.913  -1.090  30.437  1.00  0.00    -0.275 OA
HETATM    2  O3  UNK     1      20.353  -0.658  28.235  1.00  0.00    -0.260 OA
HETATM    3  C7  UNK     1      18.970  -1.154  33.980  1.00  0.00     0.037 A 
HETATM    4  C8  UNK     1      19.454  -1.543  32.735  1.00  0.00     0.067 A 
HETATM    5  C9  UNK     1      18.451   0.128  34.150  1.00  0.00     0.030 A 
HETATM    6  C10 UNK     1      18.895   0.652  31.815  1.00  0.00     0.004 A 
HETATM    7  C11 UNK     1      19.409  -0.637  31.673  1.00  0.00     0.092 A 
HETATM    8  C12 UNK     1      18.413   1.026  33.076  1.00  0.00     0.017 A 
HETATM    9  C13 UNK     1      18.887   1.539  30.643  1.00  0.00    -0.043 A 
HETATM   10  C14 UNK     1      19.372   1.082  29.480  1.00  0.00     0.090 A 
HETATM   11  C15 UNK     1      18.341   2.932  30.763  1.00  0.00     0.049 C 
HETATM   12  C16 UNK     1      19.917  -0.276  29.315  1.00  0.00     0.288 A 
ENDROOT
BRANCH   3  13
HETATM   13  N1  UNK     1      19.005  -2.043  35.054  1.00  0.00    -0.327 N 
HETATM   14  C6  UNK     1      20.125  -2.508  35.756  1.00  0.00     0.226 C 
HETATM   15  O1  UNK     1      21.301  -2.216  35.562  1.00  0.00    -0.273 OA
HETATM   16  H10 UNK     1      18.095  -2.384  35.358  1.00  0.00     0.169 HD
BRANCH  14  17
HETATM   17  C1  UNK     1      19.740  -3.458  36.850  1.00  0.00     0.078 C 
HETATM   18  C2  UNK     1      20.992  -3.982  37.562  1.00  0.00     0.014 C 
HETATM   19  C4  UNK     1      20.919  -5.502  37.469  1.00  0.00     0.001 C 
HETATM   20  C5  UNK     1      20.107  -5.757  36.211  1.00  0.00     0.001 C 
HETATM   21  C3  UNK     1      19.030  -4.684  36.274  1.00  0.00     0.014 C 
ENDBRANCH  14  17
ENDBRANCH   3  13
TORSDOF 2
ENDMDL
MODEL 8
REMARK VINA RESULT:      -7.9      5.809     10.317
REMARK  2 active torsions:
REMARK  status: ('A' for Active; 'I' for Inactive)
REMARK       I    between atoms: C6_10  and  N1_4 
REMARK    1  A    between atoms: C7_11  and  N1_4 
REMARK    2  A    between atoms: C1_5  and  C6_10 
ROOT
HETATM    1  O2  UNK     1      19.029  -0.496  34.147  1.00  0.00    -0.275 OA
HETATM    2  O3  UNK     1      18.450   1.180  32.703  1.00  0.00    -0.260 OA
HETATM    3  C7  UNK     1      19.579  -2.849  36.904  1.00  0.00     0.037 A 
HETATM    4  C8  UNK     1      19.635  -2.247  35.651  1.00  0.00     0.067 A 
HETATM    5  C9  UNK     1      18.831  -2.261  37.922  1.00  0.00     0.030 A 
HETATM    6  C10 UNK     1      18.177  -0.447  36.436  1.00  0.00     0.004 A 
HETATM    7  C11 UNK     1      18.935  -1.058  35.436  1.00  0.00     0.092 A 
HETATM    8  C12 UNK     1      18.134  -1.069  37.691  1.00  0.00     0.017 A 
HETATM    9  C13 UNK     1      17.472   0.803  36.120  1.00  0.00    -0.043 A 
HETATM   10  C14 UNK     1      17.580   1.315  34.886  1.00  0.00     0.090 A 
HETATM   11  C15 UNK     1      16.649   1.485  37.175  1.00  0.00     0.049 C 
HETATM   12  C16 UNK     1      18.375   0.682  33.821  1.00  0.00     0.288 A 
ENDROOT
BRANCH   3  13
HETATM   13  N1  UNK     1      20.271  -4.037  37.141  1.00  0.00    -0.327 N 
HETATM   14  C6  UNK     1      19.865  -5.347  36.854  1.00  0.00     0.226 C 
HETATM   15  O1  UNK     1      18.814  -5.703  36.330  1.00  0.00    -0.273 OA
HETATM   16  H10 UNK     1      21.186  -3.922  37.573  1.00  0.00     0.169 HD
BRANCH  14  17
HETATM   17  C1  UNK     1      20.897  -6.352  37.265  1.00  0.00     0.078 C 
HETATM   18  C2  UNK     1      20.359  -7.774  37.073  1.00  0.00     0.014 C 
HETATM   19  C4  UNK     1      20.483  -8.454  38.433  1.00  0.00     0.001 C 
HETATM   20  C5  UNK     1      20.407  -7.309  39.427  1.00  0.00     0.001 C 
HETATM   21  C3  UNK     1      21.222  -6.215  38.753  1.00  0.00     0.014 C 
ENDBRANCH  14  17
ENDBRANCH   3  13
TORSDOF 2
ENDMDL
MODEL 9
REMARK VINA RESULT:      -7.8      6.796      9.402
REMARK  2 active torsions:
REMARK  status: ('A' for Active; 'I' for Inactive)
REMARK       I    between atoms: C6_10  and  N1_4 
REMARK    1  A    between atoms: C7_11  and  N1_4 
REMARK    2  A    between atoms: C1_5  and  C6_10 
ROOT
HETATM    1  O2  UNK     1      18.876  -7.717  37.520  1.00  0.00    -0.275 OA
HETATM    2  O3  UNK     1      18.677  -9.884  38.224  1.00  0.00    -0.260 OA
HETATM    3  C7  UNK     1      19.766  -4.248  36.739  1.00  0.00     0.037 A 
HETATM    4  C8  UNK     1      19.079  -5.456  36.783  1.00  0.00     0.067 A 
HETATM    5  C9  UNK     1      20.974  -4.113  37.421  1.00  0.00     0.030 A 
HETATM    6  C10 UNK     1      20.824  -6.412  38.205  1.00  0.00     0.004 A 
HETATM    7  C11 UNK     1      19.617  -6.518  37.513  1.00  0.00     0.092 A 
HETATM    8  C12 UNK     1      21.500  -5.187  38.149  1.00  0.00     0.017 A 
HETATM    9  C13 UNK     1      21.314  -7.581  38.947  1.00  0.00    -0.043 A 
HETATM   10  C14 UNK     1      20.589  -8.708  38.937  1.00  0.00     0.090 A 
HETATM   11  C15 UNK     1      22.610  -7.499  39.703  1.00  0.00     0.049 C 
HETATM   12  C16 UNK     1      19.314  -8.836  38.211  1.00  0.00     0.288 A 
ENDROOT
BRANCH   3  13
HETATM   13  N1  UNK     1      19.248  -3.174  36.015  1.00  0.00    -0.327 N 
HETATM   14  C6  UNK     1      18.649  -2.006  36.508  1.00  0.00     0.226 C 
HETATM   15  O1  UNK     1      18.469  -1.700  37.682  1.00  0.00    -0.273 OA
HETATM   16  H10 UNK     1      19.325  -3.261  35.004  1.00  0.00     0.169 HD
BRANCH  14  17
HETATM   17  C1  UNK     1      18.220  -1.091  35.401  1.00  0.00     0.078 C 
HETATM   18  C2  UNK     1      18.723   0.332  35.664  1.00  0.00     0.014 C 
HETATM   19  C4  UNK     1      17.486   1.222  35.642  1.00  0.00     0.001 C 
HETATM   20  C5  UNK     1      16.356   0.296  36.055  1.00  0.00     0.001 C 
HETATM   21  C3  UNK     1      16.695  -1.001  35.336  1.00  0.00     0.014 C 
ENDBRANCH  14  17
ENDBRANCH   3  13
TORSDOF 2
ENDMDL
MODEL 10
REMARK VINA RESULT:      -7.8      7.394     10.522
REMARK  2 active torsions:
REMARK  status: ('A' for Active; 'I' for Inactive)
REMARK       I    between atoms: C6_10  and  N1_4 
REMARK    1  A    between atoms: C7_11  and  N1_4 
REMARK    2  A    between atoms: C1_5  and  C6_10 
ROOT
HETATM    1  O2  UNK     1      21.332  -8.542  35.196  1.00  0.00    -0.275 OA
HETATM    2  O3  UNK     1      22.074 -10.457  34.189  1.00  0.00    -0.260 OA
HETATM    3  C7  UNK     1      19.891  -5.887  37.273  1.00  0.00     0.037 A 
HETATM    4  C8  UNK     1      20.560  -6.542  36.244  1.00  0.00     0.067 A 
HETATM    5  C9  UNK     1      19.314  -6.625  38.304  1.00  0.00     0.030 A 
HETATM    6  C10 UNK     1      20.074  -8.701  37.284  1.00  0.00     0.004 A 
HETATM    7  C11 UNK     1      20.642  -7.936  36.265  1.00  0.00     0.092 A 
HETATM    8  C12 UNK     1      19.404  -8.022  38.311  1.00  0.00     0.017 A 
HETATM    9  C13 UNK     1      20.209 -10.162  37.224  1.00  0.00    -0.043 A 
HETATM   10  C14 UNK     1      20.871 -10.712  36.197  1.00  0.00     0.090 A 
HETATM   11  C15 UNK     1      19.608 -11.014  38.306  1.00  0.00     0.049 C 
HETATM   12  C16 UNK     1      21.476  -9.918  35.114  1.00  0.00     0.288 A 
ENDROOT
BRANCH   3  13
HETATM   13  N1  UNK     1      19.798  -4.495  37.273  1.00  0.00    -0.327 N 
HETATM   14  C6  UNK     1      19.995  -3.614  36.201  1.00  0.00     0.226 C 
HETATM   15  O1  UNK     1      20.286  -3.902  35.044  1.00  0.00    -0.273 OA
HETATM   16  H10 UNK     1      19.550  -4.081  38.169  1.00  0.00     0.169 HD
BRANCH  14  17
HETATM   17  C1  UNK     1      19.802  -2.186  36.611  1.00  0.00     0.078 C 
HETATM   18  C2  UNK     1      18.824  -2.099  37.788  1.00  0.00     0.014 C 
HETATM   19  C4  UNK     1      17.711  -1.160  37.336  1.00  0.00     0.001 C 
HETATM   20  C5  UNK     1      17.697  -1.302  35.824  1.00  0.00     0.001 C 
HETATM   21  C3  UNK     1      19.176  -1.377  35.474  1.00  0.00     0.014 C 
ENDBRANCH  14  17
ENDBRANCH   3  13
TORSDOF 2
ENDMDL
