MODEL 1
REMARK VINA RESULT:      -9.4      0.000      0.000
REMARK  2 active torsions:
REMARK  status: ('A' for Active; 'I' for Inactive)
REMARK    1  A    between atoms: C6_11  and  N1_4 
REMARK    2  A    between atoms: C8_13  and  N1_4 
ROOT
HETATM    1  S1  UNK     1      18.343  -1.854  37.070  1.00  0.00    -0.061 SA
HETATM    2  O1  UNK     1      18.507   1.438  31.732  1.00  0.00    -0.274 OA
HETATM    3  O2  UNK     1      18.679  -0.780  32.223  1.00  0.00    -0.259 OA
HETATM    4  N2  UNK     1      19.324  -1.498  34.705  1.00  0.00    -0.223 NA
HETATM    5  C1  UNK     1      18.503   0.703  34.083  1.00  0.00     0.070 A 
HETATM    6  C2  UNK     1      18.274   3.066  33.514  1.00  0.00    -0.001 A 
HETATM    7  C3  UNK     1      18.357   1.979  34.475  1.00  0.00     0.034 A 
HETATM    8  C4  UNK     1      18.354   2.769  32.160  1.00  0.00     0.089 A 
HETATM    9  C5  UNK     1      18.590  -0.379  35.032  1.00  0.00     0.082 A 
HETATM   10  C7  UNK     1      18.574   0.374  32.627  1.00  0.00     0.301 A 
HETATM   11  C8  UNK     1      19.265  -2.345  35.708  1.00  0.00     0.171 A 
HETATM   12  C9  UNK     1      18.120   4.398  33.904  1.00  0.00     0.014 A 
HETATM   13  C10 UNK     1      18.285   3.762  31.185  1.00  0.00     0.038 A 
HETATM   14  C11 UNK     1      17.986  -0.382  36.266  1.00  0.00     0.086 A 
HETATM   15  C15 UNK     1      18.049   5.407  32.939  1.00  0.00     0.001 A 
HETATM   16  C18 UNK     1      18.132   5.089  31.582  1.00  0.00     0.003 A 
ENDROOT
BRANCH  11  17
HETATM   17  N1  UNK     1      19.878  -3.558  35.725  1.00  0.00    -0.335 N 
HETATM   18  H3  UNK     1      20.479  -3.755  34.926  1.00  0.00     0.168 HD
BRANCH  17  19
HETATM   19  C6  UNK     1      19.875  -4.673  36.642  1.00  0.00     0.034 A 
HETATM   20  C13 UNK     1      20.860  -4.744  37.604  1.00  0.00     0.030 A 
HETATM   21  C16 UNK     1      20.858  -5.821  38.491  1.00  0.00     0.009 A 
HETATM   22  C12 UNK     1      19.870  -6.801  38.395  1.00  0.00    -0.062 A 
HETATM   23  C17 UNK     1      18.885  -6.704  37.412  1.00  0.00     0.009 A 
HETATM   24  C19 UNK     1      19.867  -7.953  39.342  1.00  0.00     0.048 C 
HETATM   25  C14 UNK     1      18.887  -5.627  36.525  1.00  0.00     0.030 A 
ENDBRANCH  17  19
ENDBRANCH  11  17
TORSDOF 2
ENDMDL
MODEL 2
REMARK VINA RESULT:      -9.1      5.397     10.508
REMARK  2 active torsions:
REMARK  status: ('A' for Active; 'I' for Inactive)
REMARK    1  A    between atoms: C6_11  and  N1_4 
REMARK    2  A    between atoms: C8_13  and  N1_4 
ROOT
HETATM    1  S1  UNK     1      17.661   6.365  31.324  1.00  0.00    -0.061 SA
HETATM    2  O1  UNK     1      18.632   0.350  32.823  1.00  0.00    -0.274 OA
HETATM    3  O2  UNK     1      17.721   2.123  33.925  1.00  0.00    -0.259 OA
HETATM    4  N2  UNK     1      18.293   4.586  33.089  1.00  0.00    -0.223 NA
HETATM    5  C1  UNK     1      18.628   2.576  31.766  1.00  0.00     0.070 A 
HETATM    6  C2  UNK     1      19.555   0.642  30.599  1.00  0.00    -0.001 A 
HETATM    7  C3  UNK     1      19.221   2.054  30.680  1.00  0.00     0.034 A 
HETATM    8  C4  UNK     1      19.253  -0.180  31.677  1.00  0.00     0.089 A 
HETATM    9  C5  UNK     1      18.300   3.976  31.855  1.00  0.00     0.082 A 
HETATM   10  C7  UNK     1      18.287   1.695  32.924  1.00  0.00     0.301 A 
HETATM   11  C8  UNK     1      17.970   5.850  32.932  1.00  0.00     0.171 A 
HETATM   12  C9  UNK     1      20.169   0.083  29.476  1.00  0.00     0.014 A 
HETATM   13  C10 UNK     1      19.548  -1.541  31.668  1.00  0.00     0.038 A 
HETATM   14  C11 UNK     1      17.985   4.771  30.778  1.00  0.00     0.086 A 
HETATM   15  C15 UNK     1      20.472  -1.282  29.450  1.00  0.00     0.001 A 
HETATM   16  C18 UNK     1      20.162  -2.092  30.545  1.00  0.00     0.003 A 
ENDROOT
BRANCH  11  17
HETATM   17  N1  UNK     1      17.869   6.749  33.947  1.00  0.00    -0.335 N 
HETATM   18  H3  UNK     1      17.684   6.351  34.865  1.00  0.00     0.168 HD
BRANCH  17  19
HETATM   19  C6  UNK     1      17.964   8.187  34.028  1.00  0.00     0.034 A 
HETATM   20  C13 UNK     1      16.802   8.929  34.037  1.00  0.00     0.030 A 
HETATM   21  C16 UNK     1      16.893  10.319  34.114  1.00  0.00     0.009 A 
HETATM   22  C12 UNK     1      18.144  10.933  34.181  1.00  0.00    -0.062 A 
HETATM   23  C17 UNK     1      19.303  10.158  34.169  1.00  0.00     0.009 A 
HETATM   24  C19 UNK     1      18.242  12.419  34.263  1.00  0.00     0.048 C 
HETATM   25  C14 UNK     1      19.212   8.768  34.092  1.00  0.00     0.030 A 
ENDBRANCH  17  19
ENDBRANCH  11  17
TORSDOF 2
ENDMDL
MODEL 3
REMARK VINA RESULT:      -9.1      2.705      3.579
REMARK  2 active torsions:
REMARK  status: ('A' for Active; 'I' for Inactive)
REMARK    1  A    between atoms: C6_11  and  N1_4 
REMARK    2  A    between atoms: C8_13  and  N1_4 
ROOT
HETATM    1  S1  UNK     1      18.951  -2.323  37.074  1.00  0.00    -0.061 SA
HETATM    2  O1  UNK     1      20.759  -2.556  31.071  1.00  0.00    -0.274 OA
HETATM    3  O2  UNK     1      21.064  -3.928  32.864  1.00  0.00    -0.259 OA
HETATM    4  N2  UNK     1      20.742  -2.929  35.312  1.00  0.00    -0.223 NA
HETATM    5  C1  UNK     1      19.911  -1.882  33.283  1.00  0.00     0.070 A 
HETATM    6  C2  UNK     1      19.565  -0.461  31.328  1.00  0.00    -0.001 A 
HETATM    7  C3  UNK     1      19.418  -0.755  32.743  1.00  0.00     0.034 A 
HETATM    8  C4  UNK     1      20.237  -1.371  30.522  1.00  0.00     0.089 A 
HETATM    9  C5  UNK     1      19.773  -2.176  34.687  1.00  0.00     0.082 A 
HETATM   10  C7  UNK     1      20.621  -2.873  32.420  1.00  0.00     0.301 A 
HETATM   11  C8  UNK     1      20.413  -3.071  36.576  1.00  0.00     0.171 A 
HETATM   12  C9  UNK     1      19.056   0.704  30.751  1.00  0.00     0.014 A 
HETATM   13  C10 UNK     1      20.417  -1.151  29.158  1.00  0.00     0.038 A 
HETATM   14  C11 UNK     1      18.725  -1.755  35.471  1.00  0.00     0.086 A 
HETATM   15  C15 UNK     1      19.228   0.941  29.383  1.00  0.00     0.001 A 
HETATM   16  C18 UNK     1      19.908   0.015  28.589  1.00  0.00     0.003 A 
ENDROOT
BRANCH  11  17
HETATM   17  N1  UNK     1      21.149  -3.761  37.488  1.00  0.00    -0.335 N 
HETATM   18  H3  UNK     1      21.894  -3.232  37.938  1.00  0.00     0.168 HD
BRANCH  17  19
HETATM   19  C6  UNK     1      21.120  -5.116  37.983  1.00  0.00     0.034 A 
HETATM   20  C13 UNK     1      19.941  -5.826  37.907  1.00  0.00     0.030 A 
HETATM   21  C16 UNK     1      19.912  -7.136  38.386  1.00  0.00     0.009 A 
HETATM   22  C12 UNK     1      21.064  -7.705  38.929  1.00  0.00    -0.062 A 
HETATM   23  C17 UNK     1      22.244  -6.964  38.995  1.00  0.00     0.009 A 
HETATM   24  C19 UNK     1      21.033  -9.105  39.442  1.00  0.00     0.048 C 
HETATM   25  C14 UNK     1      22.273  -5.654  38.516  1.00  0.00     0.030 A 
ENDBRANCH  17  19
ENDBRANCH  11  17
TORSDOF 2
ENDMDL
MODEL 4
REMARK VINA RESULT:      -8.8     26.720     27.777
REMARK  2 active torsions:
REMARK  status: ('A' for Active; 'I' for Inactive)
REMARK    1  A    between atoms: C6_11  and  N1_4 
REMARK    2  A    between atoms: C8_13  and  N1_4 
ROOT
HETATM    1  S1  UNK     1       8.197   7.285   8.643  1.00  0.00    -0.061 SA
HETATM    2  O1  UNK     1      14.018   4.966   8.965  1.00  0.00    -0.274 OA
HETATM    3  O2  UNK     1      12.003   4.090   8.365  1.00  0.00    -0.259 OA
HETATM    4  N2  UNK     1       9.780   5.312   9.177  1.00  0.00    -0.223 NA
HETATM    5  C1  UNK     1      11.982   6.339   9.160  1.00  0.00     0.070 A 
HETATM    6  C2  UNK     1      14.166   7.256   9.750  1.00  0.00    -0.001 A 
HETATM    7  C3  UNK     1      12.725   7.367   9.602  1.00  0.00     0.034 A 
HETATM    8  C4  UNK     1      14.781   6.053   9.429  1.00  0.00     0.089 A 
HETATM    9  C5  UNK     1      10.551   6.442   9.016  1.00  0.00     0.082 A 
HETATM   10  C7  UNK     1      12.638   5.047   8.798  1.00  0.00     0.301 A 
HETATM   11  C8  UNK     1       8.518   5.638   9.002  1.00  0.00     0.171 A 
HETATM   12  C9  UNK     1      14.954   8.315  10.205  1.00  0.00     0.014 A 
HETATM   13  C10 UNK     1      16.158   5.876   9.551  1.00  0.00     0.038 A 
HETATM   14  C11 UNK     1       9.880   7.605   8.725  1.00  0.00     0.086 A 
HETATM   15  C15 UNK     1      16.337   8.155  10.333  1.00  0.00     0.001 A 
HETATM   16  C18 UNK     1      16.937   6.937  10.006  1.00  0.00     0.003 A 
ENDROOT
BRANCH  11  17
HETATM   17  N1  UNK     1       7.481   4.763   9.089  1.00  0.00    -0.335 N 
HETATM   18  H3  UNK     1       7.116   4.430   8.199  1.00  0.00     0.168 HD
BRANCH  17  19
HETATM   19  C6  UNK     1       6.751   4.177  10.188  1.00  0.00     0.034 A 
HETATM   20  C13 UNK     1       6.234   2.908  10.040  1.00  0.00     0.030 A 
HETATM   21  C16 UNK     1       5.528   2.341  11.101  1.00  0.00     0.009 A 
HETATM   22  C12 UNK     1       5.355   3.058  12.285  1.00  0.00    -0.062 A 
HETATM   23  C17 UNK     1       5.888   4.342  12.408  1.00  0.00     0.009 A 
HETATM   24  C19 UNK     1       4.600   2.453  13.420  1.00  0.00     0.048 C 
HETATM   25  C14 UNK     1       6.595   4.908  11.346  1.00  0.00     0.030 A 
ENDBRANCH  17  19
ENDBRANCH  11  17
TORSDOF 2
ENDMDL
MODEL 5
REMARK VINA RESULT:      -8.8     26.801     28.360
REMARK  2 active torsions:
REMARK  status: ('A' for Active; 'I' for Inactive)
REMARK    1  A    between atoms: C6_11  and  N1_4 
REMARK    2  A    between atoms: C8_13  and  N1_4 
ROOT
HETATM    1  S1  UNK     1       9.643   6.494   6.096  1.00  0.00    -0.061 SA
HETATM    2  O1  UNK     1      14.032   6.907  10.561  1.00  0.00    -0.274 OA
HETATM    3  O2  UNK     1      12.240   5.539  10.232  1.00  0.00    -0.259 OA
HETATM    4  N2  UNK     1      10.300   6.338   8.591  1.00  0.00    -0.223 NA
HETATM    5  C1  UNK     1      12.533   7.295   8.645  1.00  0.00     0.070 A 
HETATM    6  C2  UNK     1      14.489   8.711   9.006  1.00  0.00    -0.001 A 
HETATM    7  C3  UNK     1      13.302   8.327   8.261  1.00  0.00     0.034 A 
HETATM    8  C4  UNK     1      14.826   7.991  10.144  1.00  0.00     0.089 A 
HETATM    9  C5  UNK     1      11.351   6.913   7.913  1.00  0.00     0.082 A 
HETATM   10  C7  UNK     1      12.897   6.506   9.860  1.00  0.00     0.301 A 
HETATM   11  C8  UNK     1       9.341   6.074   7.732  1.00  0.00     0.171 A 
HETATM   12  C9  UNK     1      15.301   9.779   8.618  1.00  0.00     0.014 A 
HETATM   13  C10 UNK     1      15.948   8.306  10.907  1.00  0.00     0.038 A 
HETATM   14  C11 UNK     1      11.187   7.082   6.558  1.00  0.00     0.086 A 
HETATM   15  C15 UNK     1      16.431  10.109   9.373  1.00  0.00     0.001 A 
HETATM   16  C18 UNK     1      16.753   9.374  10.516  1.00  0.00     0.003 A 
ENDROOT
BRANCH  11  17
HETATM   17  N1  UNK     1       8.153   5.501   8.061  1.00  0.00    -0.335 N 
HETATM   18  H3  UNK     1       7.591   5.179   7.276  1.00  0.00     0.168 HD
BRANCH  17  19
HETATM   19  C6  UNK     1       7.478   5.235   9.310  1.00  0.00     0.034 A 
HETATM   20  C13 UNK     1       7.291   6.273  10.197  1.00  0.00     0.030 A 
HETATM   21  C16 UNK     1       6.639   6.017  11.404  1.00  0.00     0.009 A 
HETATM   22  C12 UNK     1       6.191   4.728  11.694  1.00  0.00    -0.062 A 
HETATM   23  C17 UNK     1       6.395   3.696  10.778  1.00  0.00     0.009 A 
HETATM   24  C19 UNK     1       5.495   4.453  12.984  1.00  0.00     0.048 C 
HETATM   25  C14 UNK     1       7.046   3.952   9.571  1.00  0.00     0.030 A 
ENDBRANCH  17  19
ENDBRANCH  11  17
TORSDOF 2
ENDMDL
MODEL 6
REMARK VINA RESULT:      -8.7      3.399      5.510
REMARK  2 active torsions:
REMARK  status: ('A' for Active; 'I' for Inactive)
REMARK    1  A    between atoms: C6_11  and  N1_4 
REMARK    2  A    between atoms: C8_13  and  N1_4 
ROOT
HETATM    1  S1  UNK     1      18.955   1.914  29.610  1.00  0.00    -0.061 SA
HETATM    2  O1  UNK     1      17.762   5.708  34.463  1.00  0.00    -0.274 OA
HETATM    3  O2  UNK     1      18.672   3.628  34.273  1.00  0.00    -0.259 OA
HETATM    4  N2  UNK     1      18.201   2.217  32.063  1.00  0.00    -0.223 NA
HETATM    5  C1  UNK     1      17.870   4.617  32.256  1.00  0.00     0.070 A 
HETATM    6  C2  UNK     1      16.945   6.864  32.494  1.00  0.00    -0.001 A 
HETATM    7  C3  UNK     1      17.311   5.704  31.699  1.00  0.00     0.034 A 
HETATM    8  C4  UNK     1      17.177   6.837  33.863  1.00  0.00     0.089 A 
HETATM    9  C5  UNK     1      18.232   3.462  31.474  1.00  0.00     0.082 A 
HETATM   10  C7  UNK     1      18.138   4.587  33.726  1.00  0.00     0.301 A 
HETATM   11  C8  UNK     1      18.564   1.322  31.173  1.00  0.00     0.171 A 
HETATM   12  C9  UNK     1      16.365   8.002  31.930  1.00  0.00     0.014 A 
HETATM   13  C10 UNK     1      16.847   7.913  34.685  1.00  0.00     0.038 A 
HETATM   14  C11 UNK     1      18.613   3.504  30.154  1.00  0.00     0.086 A 
HETATM   15  C15 UNK     1      16.028   9.091  32.741  1.00  0.00     0.001 A 
HETATM   16  C18 UNK     1      16.268   9.045  34.116  1.00  0.00     0.003 A 
ENDROOT
BRANCH  11  17
HETATM   17  N1  UNK     1      18.645  -0.013  31.416  1.00  0.00    -0.335 N 
HETATM   18  H3  UNK     1      18.357  -0.615  30.648  1.00  0.00     0.168 HD
BRANCH  17  19
HETATM   19  C6  UNK     1      19.058  -0.803  32.551  1.00  0.00     0.034 A 
HETATM   20  C13 UNK     1      18.470  -0.566  33.775  1.00  0.00     0.030 A 
HETATM   21  C16 UNK     1      18.869  -1.328  34.873  1.00  0.00     0.009 A 
HETATM   22  C12 UNK     1      19.847  -2.311  34.720  1.00  0.00    -0.062 A 
HETATM   23  C17 UNK     1      20.427  -2.530  33.470  1.00  0.00     0.009 A 
HETATM   24  C19 UNK     1      20.275  -3.126  35.893  1.00  0.00     0.048 C 
HETATM   25  C14 UNK     1      20.027  -1.768  32.372  1.00  0.00     0.030 A 
ENDBRANCH  17  19
ENDBRANCH  11  17
TORSDOF 2
ENDMDL
MODEL 7
REMARK VINA RESULT:      -8.7      8.952     11.706
REMARK  2 active torsions:
REMARK  status: ('A' for Active; 'I' for Inactive)
REMARK    1  A    between atoms: C6_11  and  N1_4 
REMARK    2  A    between atoms: C8_13  and  N1_4 
ROOT
HETATM    1  S1  UNK     1      26.094  -9.727  37.340  1.00  0.00    -0.061 SA
HETATM    2  O1  UNK     1      29.955  -4.868  38.267  1.00  0.00    -0.274 OA
HETATM    3  O2  UNK     1      28.309  -5.834  39.511  1.00  0.00    -0.259 OA
HETATM    4  N2  UNK     1      26.498  -7.354  38.284  1.00  0.00    -0.223 NA
HETATM    5  C1  UNK     1      28.639  -6.725  37.322  1.00  0.00     0.070 A 
HETATM    6  C2  UNK     1      30.441  -5.693  36.039  1.00  0.00    -0.001 A 
HETATM    7  C3  UNK     1      29.368  -6.660  36.197  1.00  0.00     0.034 A 
HETATM    8  C4  UNK     1      30.709  -4.814  37.080  1.00  0.00     0.089 A 
HETATM    9  C5  UNK     1      27.570  -7.679  37.483  1.00  0.00     0.082 A 
HETATM   10  C7  UNK     1      28.931  -5.793  38.454  1.00  0.00     0.301 A 
HETATM   11  C8  UNK     1      25.654  -8.362  38.284  1.00  0.00     0.171 A 
HETATM   12  C9  UNK     1      31.211  -5.614  34.876  1.00  0.00     0.014 A 
HETATM   13  C10 UNK     1      31.720  -3.860  36.995  1.00  0.00     0.038 A 
HETATM   14  C11 UNK     1      27.536  -8.916  36.885  1.00  0.00     0.086 A 
HETATM   15  C15 UNK     1      32.230  -4.662  34.773  1.00  0.00     0.001 A 
HETATM   16  C18 UNK     1      32.483  -3.787  35.832  1.00  0.00     0.003 A 
ENDROOT
BRANCH  11  17
HETATM   17  N1  UNK     1      24.482  -8.381  38.972  1.00  0.00    -0.335 N 
HETATM   18  H3  UNK     1      24.539  -8.750  39.920  1.00  0.00     0.168 HD
BRANCH  17  19
HETATM   19  C6  UNK     1      23.128  -7.989  38.661  1.00  0.00     0.034 A 
HETATM   20  C13 UNK     1      22.417  -7.264  39.593  1.00  0.00     0.030 A 
HETATM   21  C16 UNK     1      21.108  -6.885  39.293  1.00  0.00     0.009 A 
HETATM   22  C12 UNK     1      20.542  -7.241  38.069  1.00  0.00    -0.062 A 
HETATM   23  C17 UNK     1      21.285  -7.976  37.144  1.00  0.00     0.009 A 
HETATM   24  C19 UNK     1      19.143  -6.837  37.748  1.00  0.00     0.048 C 
HETATM   25  C14 UNK     1      22.594  -8.355  37.444  1.00  0.00     0.030 A 
ENDBRANCH  17  19
ENDBRANCH  11  17
TORSDOF 2
ENDMDL
MODEL 8
REMARK VINA RESULT:      -8.7      3.549      9.675
REMARK  2 active torsions:
REMARK  status: ('A' for Active; 'I' for Inactive)
REMARK    1  A    between atoms: C6_11  and  N1_4 
REMARK    2  A    between atoms: C8_13  and  N1_4 
ROOT
HETATM    1  S1  UNK     1      20.137  -2.279  37.068  1.00  0.00    -0.061 SA
HETATM    2  O1  UNK     1      20.378  -8.315  35.371  1.00  0.00    -0.274 OA
HETATM    3  O2  UNK     1      20.561  -6.349  34.235  1.00  0.00    -0.259 OA
HETATM    4  N2  UNK     1      19.594  -4.130  35.347  1.00  0.00    -0.223 NA
HETATM    5  C1  UNK     1      20.063  -6.181  36.562  1.00  0.00     0.070 A 
HETATM    6  C2  UNK     1      19.920  -8.308  37.752  1.00  0.00    -0.001 A 
HETATM    7  C3  UNK     1      19.868  -6.857  37.706  1.00  0.00     0.034 A 
HETATM    8  C4  UNK     1      20.172  -9.006  36.579  1.00  0.00     0.089 A 
HETATM    9  C5  UNK     1      20.008  -4.742  36.509  1.00  0.00     0.082 A 
HETATM   10  C7  UNK     1      20.350  -6.924  35.298  1.00  0.00     0.301 A 
HETATM   11  C8  UNK     1      19.622  -2.828  35.525  1.00  0.00     0.171 A 
HETATM   12  C9  UNK     1      19.723  -9.025  38.935  1.00  0.00     0.014 A 
HETATM   13  C10 UNK     1      20.232 -10.398  36.550  1.00  0.00     0.038 A 
HETATM   14  C11 UNK     1      20.343  -3.912  37.552  1.00  0.00     0.086 A 
HETATM   15  C15 UNK     1      19.780 -10.422  38.924  1.00  0.00     0.001 A 
HETATM   16  C18 UNK     1      20.033 -11.106  37.733  1.00  0.00     0.003 A 
ENDROOT
BRANCH  11  17
HETATM   17  N1  UNK     1      19.274  -1.916  34.579  1.00  0.00    -0.335 N 
HETATM   18  H3  UNK     1      18.612  -1.204  34.881  1.00  0.00     0.168 HD
BRANCH  17  19
HETATM   19  C6  UNK     1      19.637  -1.716  33.196  1.00  0.00     0.034 A 
HETATM   20  C13 UNK     1      19.061  -0.673  32.503  1.00  0.00     0.030 A 
HETATM   21  C16 UNK     1      19.411  -0.480  31.166  1.00  0.00     0.009 A 
HETATM   22  C12 UNK     1      20.329  -1.335  30.555  1.00  0.00    -0.062 A 
HETATM   23  C17 UNK     1      20.896  -2.383  31.280  1.00  0.00     0.009 A 
HETATM   24  C19 UNK     1      20.703  -1.129  29.126  1.00  0.00     0.048 C 
HETATM   25  C14 UNK     1      20.546  -2.576  32.617  1.00  0.00     0.030 A 
ENDBRANCH  17  19
ENDBRANCH  11  17
TORSDOF 2
ENDMDL
MODEL 9
REMARK VINA RESULT:      -8.6      5.852     10.419
REMARK  2 active torsions:
REMARK  status: ('A' for Active; 'I' for Inactive)
REMARK    1  A    between atoms: C6_11  and  N1_4 
REMARK    2  A    between atoms: C8_13  and  N1_4 
ROOT
HETATM    1  S1  UNK     1      17.954   5.549  33.832  1.00  0.00    -0.061 SA
HETATM    2  O1  UNK     1      19.064   1.840  28.895  1.00  0.00    -0.274 OA
HETATM    3  O2  UNK     1      18.409   4.010  29.122  1.00  0.00    -0.259 OA
HETATM    4  N2  UNK     1      17.348   4.795  31.435  1.00  0.00    -0.223 NA
HETATM    5  C1  UNK     1      18.647   2.763  31.141  1.00  0.00     0.070 A 
HETATM    6  C2  UNK     1      19.394   0.455  30.859  1.00  0.00    -0.001 A 
HETATM    7  C3  UNK     1      18.989   1.582  31.682  1.00  0.00     0.034 A 
HETATM    8  C4  UNK     1      19.419   0.610  29.479  1.00  0.00     0.089 A 
HETATM    9  C5  UNK     1      18.240   3.882  31.952  1.00  0.00     0.082 A 
HETATM   10  C7  UNK     1      18.687   2.942  29.658  1.00  0.00     0.301 A 
HETATM   11  C8  UNK     1      17.123   5.721  32.340  1.00  0.00     0.171 A 
HETATM   12  C9  UNK     1      19.755  -0.778  31.406  1.00  0.00     0.014 A 
HETATM   13  C10 UNK     1      19.794  -0.429  28.630  1.00  0.00     0.038 A 
HETATM   14  C11 UNK     1      18.682   4.116  33.233  1.00  0.00     0.086 A 
HETATM   15  C15 UNK     1      20.133  -1.831  30.568  1.00  0.00     0.001 A 
HETATM   16  C18 UNK     1      20.152  -1.657  29.183  1.00  0.00     0.003 A 
ENDROOT
BRANCH  11  17
HETATM   17  N1  UNK     1      16.289   6.780  32.163  1.00  0.00    -0.335 N 
HETATM   18  H3  UNK     1      15.782   6.794  31.281  1.00  0.00     0.168 HD
BRANCH  17  19
HETATM   19  C6  UNK     1      15.946   7.932  32.963  1.00  0.00     0.034 A 
HETATM   20  C13 UNK     1      16.891   8.920  33.144  1.00  0.00     0.030 A 
HETATM   21  C16 UNK     1      16.560  10.033  33.917  1.00  0.00     0.009 A 
HETATM   22  C12 UNK     1      15.292  10.132  34.491  1.00  0.00    -0.062 A 
HETATM   23  C17 UNK     1      14.356   9.117  34.292  1.00  0.00     0.009 A 
HETATM   24  C19 UNK     1      14.938  11.321  35.318  1.00  0.00     0.048 C 
HETATM   25  C14 UNK     1      14.686   8.004  33.518  1.00  0.00     0.030 A 
ENDBRANCH  17  19
ENDBRANCH  11  17
TORSDOF 2
ENDMDL
MODEL 10
REMARK VINA RESULT:      -8.6     10.263     11.810
REMARK  2 active torsions:
REMARK  status: ('A' for Active; 'I' for Inactive)
REMARK    1  A    between atoms: C6_11  and  N1_4 
REMARK    2  A    between atoms: C8_13  and  N1_4 
ROOT
HETATM    1  S1  UNK     1      26.244  -9.104  38.898  1.00  0.00    -0.061 SA
HETATM    2  O1  UNK     1      29.736  -3.992  37.880  1.00  0.00    -0.274 OA
HETATM    3  O2  UNK     1      27.769  -4.367  38.966  1.00  0.00    -0.259 OA
HETATM    4  N2  UNK     1      26.389  -6.573  38.394  1.00  0.00    -0.223 NA
HETATM    5  C1  UNK     1      28.734  -6.242  37.850  1.00  0.00     0.070 A 
HETATM    6  C2  UNK     1      30.864  -5.809  36.737  1.00  0.00    -0.001 A 
HETATM    7  C3  UNK     1      29.774  -6.688  37.127  1.00  0.00     0.034 A 
HETATM    8  C4  UNK     1      30.818  -4.476  37.122  1.00  0.00     0.089 A 
HETATM    9  C5  UNK     1      27.648  -7.108  38.235  1.00  0.00     0.082 A 
HETATM   10  C7  UNK     1      28.685  -4.812  38.281  1.00  0.00     0.301 A 
HETATM   11  C8  UNK     1      25.565  -7.535  38.744  1.00  0.00     0.171 A 
HETATM   12  C9  UNK     1      31.953  -6.258  35.988  1.00  0.00     0.014 A 
HETATM   13  C10 UNK     1      31.826  -3.578  36.780  1.00  0.00     0.038 A 
HETATM   14  C11 UNK     1      27.772  -8.458  38.461  1.00  0.00     0.086 A 
HETATM   15  C15 UNK     1      32.974  -5.370  35.636  1.00  0.00     0.001 A 
HETATM   16  C18 UNK     1      32.910  -4.032  36.032  1.00  0.00     0.003 A 
ENDROOT
BRANCH  11  17
HETATM   17  N1  UNK     1      24.239  -7.360  38.984  1.00  0.00    -0.335 N 
HETATM   18  H3  UNK     1      23.992  -6.498  39.467  1.00  0.00     0.168 HD
BRANCH  17  19
HETATM   19  C6  UNK     1      23.056  -8.139  38.704  1.00  0.00     0.034 A 
HETATM   20  C13 UNK     1      22.150  -8.359  39.720  1.00  0.00     0.030 A 
HETATM   21  C16 UNK     1      21.008  -9.113  39.451  1.00  0.00     0.009 A 
HETATM   22  C12 UNK     1      20.798  -9.628  38.171  1.00  0.00    -0.062 A 
HETATM   23  C17 UNK     1      21.732  -9.391  37.162  1.00  0.00     0.009 A 
HETATM   24  C19 UNK     1      19.578 -10.435  37.883  1.00  0.00     0.048 C 
HETATM   25  C14 UNK     1      22.874  -8.637  37.431  1.00  0.00     0.030 A 
ENDBRANCH  17  19
ENDBRANCH  11  17
TORSDOF 2
ENDMDL
