MODEL 1
REMARK VINA RESULT:      -7.0      0.000      0.000
REMARK  2 active torsions:
REMARK  status: ('A' for Active; 'I' for Inactive)
REMARK    1  A    between atoms: C4_9  and  O3_3 
REMARK    2  A    between atoms: C6_11  and  O4_4 
ROOT
HETATM    1  O1  UNK     1      17.743   2.726  31.866  1.00  0.00    -0.319 OA
HETATM    2  O2  UNK     1      19.461  -1.321  33.884  1.00  0.00    -0.272 OA
HETATM    3  O5  UNK     1      20.326  -3.259  34.748  1.00  0.00    -0.260 OA
HETATM    4  C1  UNK     1      19.073   1.343  30.673  1.00  0.00     0.037 A 
HETATM    5  C2  UNK     1      19.984  -0.706  31.586  1.00  0.00     0.035 A 
HETATM    6  C3  UNK     1      18.453   1.563  31.899  1.00  0.00     0.124 A 
HETATM    7  C4  UNK     1      19.857   0.184  30.508  1.00  0.00     0.094 A 
HETATM    8  C5  UNK     1      19.339  -0.431  32.791  1.00  0.00     0.128 A 
HETATM    9  C6  UNK     1      18.553   0.707  32.993  1.00  0.00     0.138 A 
HETATM   10  C7  UNK     1      18.710   2.445  29.854  1.00  0.00     0.042 A 
HETATM   11  C8  UNK     1      20.779  -1.919  31.479  1.00  0.00     0.023 A 
HETATM   12  C9  UNK     1      17.906   3.253  30.625  1.00  0.00     0.143 A 
HETATM   13  C10 UNK     1      20.886  -2.752  32.517  1.00  0.00     0.083 A 
HETATM   14  C11 UNK     1      20.216  -2.486  33.802  1.00  0.00     0.288 A 
ENDROOT
BRANCH   7  15
HETATM   15  O3  UNK     1      20.478  -0.058  29.313  1.00  0.00    -0.354 OA
HETATM   16  C12 UNK     1      19.701  -0.691  28.302  1.00  0.00     0.210 C 
ENDBRANCH   7  15
BRANCH   9  17
HETATM   17  O4  UNK     1      17.929   0.960  34.177  1.00  0.00    -0.351 OA
HETATM   18  C13 UNK     1      18.599   1.828  35.090  1.00  0.00     0.210 C 
ENDBRANCH   9  17
TORSDOF 2
ENDMDL
MODEL 2
REMARK VINA RESULT:      -6.8      1.796      4.893
REMARK  2 active torsions:
REMARK  status: ('A' for Active; 'I' for Inactive)
REMARK    1  A    between atoms: C4_9  and  O3_3 
REMARK    2  A    between atoms: C6_11  and  O4_4 
ROOT
HETATM    1  O1  UNK     1      18.726  -0.573  33.571  1.00  0.00    -0.319 OA
HETATM    2  O2  UNK     1      17.857   4.186  33.544  1.00  0.00    -0.272 OA
HETATM    3  O5  UNK     1      17.469   6.441  33.428  1.00  0.00    -0.260 OA
HETATM    4  C1  UNK     1      18.966   0.610  31.662  1.00  0.00     0.037 A 
HETATM    5  C2  UNK     1      18.558   2.994  31.539  1.00  0.00     0.035 A 
HETATM    6  C3  UNK     1      18.632   0.667  33.011  1.00  0.00     0.124 A 
HETATM    7  C4  UNK     1      18.930   1.798  30.905  1.00  0.00     0.094 A 
HETATM    8  C5  UNK     1      18.234   2.987  32.896  1.00  0.00     0.128 A 
HETATM    9  C6  UNK     1      18.258   1.830  33.679  1.00  0.00     0.138 A 
HETATM   10  C7  UNK     1      19.280  -0.748  31.398  1.00  0.00     0.042 A 
HETATM   11  C8  UNK     1      18.501   4.253  30.813  1.00  0.00     0.023 A 
HETATM   12  C9  UNK     1      19.118  -1.422  32.586  1.00  0.00     0.143 A 
HETATM   13  C10 UNK     1      18.146   5.379  31.437  1.00  0.00     0.083 A 
HETATM   14  C11 UNK     1      17.798   5.400  32.868  1.00  0.00     0.288 A 
ENDROOT
BRANCH   7  15
HETATM   15  O3  UNK     1      19.253   1.774  29.575  1.00  0.00    -0.354 OA
HETATM   16  C12 UNK     1      18.215   1.415  28.668  1.00  0.00     0.210 C 
ENDBRANCH   7  15
BRANCH   9  17
HETATM   17  O4  UNK     1      17.939   1.840  35.003  1.00  0.00    -0.351 OA
HETATM   18  C13 UNK     1      19.020   1.928  35.930  1.00  0.00     0.210 C 
ENDBRANCH   9  17
TORSDOF 2
ENDMDL
MODEL 3
REMARK VINA RESULT:      -6.7      2.119      5.000
REMARK  2 active torsions:
REMARK  status: ('A' for Active; 'I' for Inactive)
REMARK    1  A    between atoms: C4_9  and  O3_3 
REMARK    2  A    between atoms: C6_11  and  O4_4 
ROOT
HETATM    1  O1  UNK     1      17.395  -0.020  36.609  1.00  0.00    -0.319 OA
HETATM    2  O2  UNK     1      19.190  -0.624  32.157  1.00  0.00    -0.272 OA
HETATM    3  O5  UNK     1      20.098  -0.992  30.087  1.00  0.00    -0.260 OA
HETATM    4  C1  UNK     1      18.923  -1.637  36.215  1.00  0.00     0.037 A 
HETATM    5  C2  UNK     1      19.884  -2.024  34.027  1.00  0.00     0.035 A 
HETATM    6  C3  UNK     1      18.177  -0.604  35.657  1.00  0.00     0.124 A 
HETATM    7  C4  UNK     1      19.797  -2.366  35.385  1.00  0.00     0.094 A 
HETATM    8  C5  UNK     1      19.110  -0.977  33.525  1.00  0.00     0.128 A 
HETATM    9  C6  UNK     1      18.232  -0.231  34.316  1.00  0.00     0.138 A 
HETATM   10  C7  UNK     1      18.565  -1.674  37.588  1.00  0.00     0.042 A 
HETATM   11  C8  UNK     1      20.768  -2.737  33.119  1.00  0.00     0.023 A 
HETATM   12  C9  UNK     1      17.637  -0.675  37.774  1.00  0.00     0.143 A 
HETATM   13  C10 UNK     1      20.836  -2.394  31.830  1.00  0.00     0.083 A 
HETATM   14  C11 UNK     1      20.029  -1.294  31.274  1.00  0.00     0.288 A 
ENDROOT
BRANCH   7  15
HETATM   15  O3  UNK     1      20.544  -3.388  35.906  1.00  0.00    -0.354 OA
HETATM   16  C12 UNK     1      19.863  -4.610  36.172  1.00  0.00     0.210 C 
ENDBRANCH   7  15
BRANCH   9  17
HETATM   17  O4  UNK     1      17.483   0.788  33.810  1.00  0.00    -0.351 OA
HETATM   18  C13 UNK     1      18.045   2.098  33.874  1.00  0.00     0.210 C 
ENDBRANCH   9  17
TORSDOF 2
ENDMDL
MODEL 4
REMARK VINA RESULT:      -6.7      2.474      4.912
REMARK  2 active torsions:
REMARK  status: ('A' for Active; 'I' for Inactive)
REMARK    1  A    between atoms: C4_9  and  O3_3 
REMARK    2  A    between atoms: C6_11  and  O4_4 
ROOT
HETATM    1  O1  UNK     1      18.772   4.451  29.543  1.00  0.00    -0.319 OA
HETATM    2  O2  UNK     1      18.041   1.036  32.892  1.00  0.00    -0.272 OA
HETATM    3  O5  UNK     1      17.703  -0.505  34.552  1.00  0.00    -0.260 OA
HETATM    4  C1  UNK     1      18.757   5.000  31.734  1.00  0.00     0.037 A 
HETATM    5  C2  UNK     1      18.401   3.370  33.490  1.00  0.00     0.035 A 
HETATM    6  C3  UNK     1      18.630   3.968  30.810  1.00  0.00     0.124 A 
HETATM    7  C4  UNK     1      18.641   4.699  33.106  1.00  0.00     0.094 A 
HETATM    8  C5  UNK     1      18.283   2.378  32.516  1.00  0.00     0.128 A 
HETATM    9  C6  UNK     1      18.392   2.637  31.147  1.00  0.00     0.138 A 
HETATM   10  C7  UNK     1      18.990   6.174  30.973  1.00  0.00     0.042 A 
HETATM   11  C8  UNK     1      18.272   2.995  34.889  1.00  0.00     0.023 A 
HETATM   12  C9  UNK     1      18.988   5.787  29.652  1.00  0.00     0.143 A 
HETATM   13  C10 UNK     1      18.045   1.724  35.231  1.00  0.00     0.083 A 
HETATM   14  C11 UNK     1      17.915   0.657  34.223  1.00  0.00     0.288 A 
ENDROOT
BRANCH   7  15
HETATM   15  O3  UNK     1      18.761   5.693  34.039  1.00  0.00    -0.354 OA
HETATM   16  C12 UNK     1      17.650   6.572  34.188  1.00  0.00     0.210 C 
ENDBRANCH   7  15
BRANCH   9  17
HETATM   17  O4  UNK     1      18.274   1.657  30.209  1.00  0.00    -0.351 OA
HETATM   18  C13 UNK     1      19.477   1.016  29.787  1.00  0.00     0.210 C 
ENDBRANCH   9  17
TORSDOF 2
ENDMDL
MODEL 5
REMARK VINA RESULT:      -6.7      1.925      4.748
REMARK  2 active torsions:
REMARK  status: ('A' for Active; 'I' for Inactive)
REMARK    1  A    between atoms: C4_9  and  O3_3 
REMARK    2  A    between atoms: C6_11  and  O4_4 
ROOT
HETATM    1  O1  UNK     1      21.196  -3.552  32.903  1.00  0.00    -0.319 OA
HETATM    2  O2  UNK     1      18.905  -1.063  36.361  1.00  0.00    -0.272 OA
HETATM    3  O5  UNK     1      17.776   0.176  37.923  1.00  0.00    -0.260 OA
HETATM    4  C1  UNK     1      19.861  -1.815  32.351  1.00  0.00     0.037 A 
HETATM    5  C2  UNK     1      18.670  -0.504  34.002  1.00  0.00     0.035 A 
HETATM    6  C3  UNK     1      20.377  -2.579  33.393  1.00  0.00     0.124 A 
HETATM    7  C4  UNK     1      18.988  -0.753  32.657  1.00  0.00     0.094 A 
HETATM    8  C5  UNK     1      19.219  -1.305  35.003  1.00  0.00     0.128 A 
HETATM    9  C6  UNK     1      20.088  -2.367  34.739  1.00  0.00     0.138 A 
HETATM   10  C7  UNK     1      20.406  -2.366  31.162  1.00  0.00     0.042 A 
HETATM   11  C8  UNK     1      17.775   0.577  34.383  1.00  0.00     0.023 A 
HETATM   12  C9  UNK     1      21.207  -3.415  31.552  1.00  0.00     0.143 A 
HETATM   13  C10 UNK     1      17.487   0.797  35.669  1.00  0.00     0.083 A 
HETATM   14  C11 UNK     1      18.052  -0.035  36.746  1.00  0.00     0.288 A 
ENDROOT
BRANCH   7  15
HETATM   15  O3  UNK     1      18.465   0.016  31.653  1.00  0.00    -0.354 OA
HETATM   16  C12 UNK     1      19.342   0.956  31.041  1.00  0.00     0.210 C 
ENDBRANCH   7  15
BRANCH   9  17
HETATM   17  O4  UNK     1      20.615  -3.140  35.729  1.00  0.00    -0.351 OA
HETATM   18  C13 UNK     1      19.875  -4.298  36.111  1.00  0.00     0.210 C 
ENDBRANCH   9  17
TORSDOF 2
ENDMDL
MODEL 6
REMARK VINA RESULT:      -6.7      1.991      6.034
REMARK  2 active torsions:
REMARK  status: ('A' for Active; 'I' for Inactive)
REMARK    1  A    between atoms: C4_9  and  O3_3 
REMARK    2  A    between atoms: C6_11  and  O4_4 
ROOT
HETATM    1  O1  UNK     1      19.078  -0.625  31.320  1.00  0.00    -0.319 OA
HETATM    2  O2  UNK     1      18.690   4.146  30.612  1.00  0.00    -0.272 OA
HETATM    3  O5  UNK     1      18.484   6.415  30.381  1.00  0.00    -0.260 OA
HETATM    4  C1  UNK     1      18.541   0.735  33.043  1.00  0.00     0.037 A 
HETATM    5  C2  UNK     1      18.321   3.134  32.797  1.00  0.00     0.035 A 
HETATM    6  C3  UNK     1      18.849   0.668  31.688  1.00  0.00     0.124 A 
HETATM    7  C4  UNK     1      18.270   1.994  33.615  1.00  0.00     0.094 A 
HETATM    8  C5  UNK     1      18.636   3.003  31.445  1.00  0.00     0.128 A 
HETATM    9  C6  UNK     1      18.911   1.773  30.841  1.00  0.00     0.138 A 
HETATM   10  C7  UNK     1      18.589  -0.602  33.516  1.00  0.00     0.042 A 
HETATM   11  C8  UNK     1      18.051   4.461  33.327  1.00  0.00     0.023 A 
HETATM   12  C9  UNK     1      18.919  -1.385  32.434  1.00  0.00     0.143 A 
HETATM   13  C10 UNK     1      18.104   5.532  32.531  1.00  0.00     0.083 A 
HETATM   14  C11 UNK     1      18.435   5.423  31.100  1.00  0.00     0.288 A 
ENDROOT
BRANCH   7  15
HETATM   15  O3  UNK     1      17.964   2.091  34.945  1.00  0.00    -0.354 OA
HETATM   16  C12 UNK     1      19.053   2.023  35.861  1.00  0.00     0.210 C 
ENDBRANCH   7  15
BRANCH   9  17
HETATM   17  O4  UNK     1      19.217   1.663  29.519  1.00  0.00    -0.351 OA
HETATM   18  C13 UNK     1      18.137   1.401  28.624  1.00  0.00     0.210 C 
ENDBRANCH   9  17
TORSDOF 2
ENDMDL
MODEL 7
REMARK VINA RESULT:      -6.7      2.381      5.153
REMARK  2 active torsions:
REMARK  status: ('A' for Active; 'I' for Inactive)
REMARK    1  A    between atoms: C4_9  and  O3_3 
REMARK    2  A    between atoms: C6_11  and  O4_4 
ROOT
HETATM    1  O1  UNK     1      18.884  -1.709  37.790  1.00  0.00    -0.319 OA
HETATM    2  O2  UNK     1      20.660  -3.039  33.491  1.00  0.00    -0.272 OA
HETATM    3  O5  UNK     1      21.442  -3.593  31.410  1.00  0.00    -0.260 OA
HETATM    4  C1  UNK     1      18.220  -0.642  35.912  1.00  0.00     0.037 A 
HETATM    5  C2  UNK     1      19.045  -1.229  33.713  1.00  0.00     0.035 A 
HETATM    6  C3  UNK     1      19.025  -1.649  36.435  1.00  0.00     0.124 A 
HETATM    7  C4  UNK     1      18.227  -0.424  34.521  1.00  0.00     0.094 A 
HETATM    8  C5  UNK     1      19.831  -2.223  34.296  1.00  0.00     0.128 A 
HETATM    9  C6  UNK     1      19.852  -2.470  35.671  1.00  0.00     0.138 A 
HETATM   10  C7  UNK     1      17.555  -0.063  37.024  1.00  0.00     0.042 A 
HETATM   11  C8  UNK     1      19.096  -1.053  32.270  1.00  0.00     0.023 A 
HETATM   12  C9  UNK     1      17.993  -0.744  38.136  1.00  0.00     0.143 A 
HETATM   13  C10 UNK     1      19.882  -1.831  31.521  1.00  0.00     0.083 A 
HETATM   14  C11 UNK     1      20.723  -2.888  32.110  1.00  0.00     0.288 A 
ENDROOT
BRANCH   7  15
HETATM   15  O3  UNK     1      17.445   0.559  33.977  1.00  0.00    -0.354 OA
HETATM   16  C12 UNK     1      17.984   1.877  33.968  1.00  0.00     0.210 C 
ENDBRANCH   7  15
BRANCH   9  17
HETATM   17  O4  UNK     1      20.625  -3.445  36.225  1.00  0.00    -0.351 OA
HETATM   18  C13 UNK     1      19.995  -4.695  36.498  1.00  0.00     0.210 C 
ENDBRANCH   9  17
TORSDOF 2
ENDMDL
MODEL 8
REMARK VINA RESULT:      -6.7      6.852      9.816
REMARK  2 active torsions:
REMARK  status: ('A' for Active; 'I' for Inactive)
REMARK    1  A    between atoms: C4_9  and  O3_3 
REMARK    2  A    between atoms: C6_11  and  O4_4 
ROOT
HETATM    1  O1  UNK     1      18.434  -6.500  35.488  1.00  0.00    -0.319 OA
HETATM    2  O2  UNK     1      22.453  -5.662  38.047  1.00  0.00    -0.272 OA
HETATM    3  O5  UNK     1      24.347  -5.362  39.300  1.00  0.00    -0.260 OA
HETATM    4  C1  UNK     1      19.224  -8.075  36.902  1.00  0.00     0.037 A 
HETATM    5  C2  UNK     1      21.224  -7.757  38.229  1.00  0.00     0.035 A 
HETATM    6  C3  UNK     1      19.420  -6.800  36.380  1.00  0.00     0.124 A 
HETATM    7  C4  UNK     1      20.144  -8.568  37.848  1.00  0.00     0.094 A 
HETATM    8  C5  UNK     1      21.368  -6.487  37.670  1.00  0.00     0.128 A 
HETATM    9  C6  UNK     1      20.477  -5.963  36.730  1.00  0.00     0.138 A 
HETATM   10  C7  UNK     1      18.046  -8.568  36.283  1.00  0.00     0.042 A 
HETATM   11  C8  UNK     1      22.208  -8.209  39.200  1.00  0.00     0.023 A 
HETATM   12  C9  UNK     1      17.608  -7.577  35.436  1.00  0.00     0.143 A 
HETATM   13  C10 UNK     1      23.227  -7.420  39.549  1.00  0.00     0.083 A 
HETATM   14  C11 UNK     1      23.403  -6.075  38.974  1.00  0.00     0.288 A 
ENDROOT
BRANCH   7  15
HETATM   15  O3  UNK     1      19.977  -9.819  38.379  1.00  0.00    -0.354 OA
HETATM   16  C12 UNK     1      20.338 -10.921  37.552  1.00  0.00     0.210 C 
ENDBRANCH   7  15
BRANCH   9  17
HETATM   17  O4  UNK     1      20.631  -4.720  36.194  1.00  0.00    -0.351 OA
HETATM   18  C13 UNK     1      19.929  -3.650  36.825  1.00  0.00     0.210 C 
ENDBRANCH   9  17
TORSDOF 2
ENDMDL
MODEL 9
REMARK VINA RESULT:      -6.5      6.666     10.248
REMARK  2 active torsions:
REMARK  status: ('A' for Active; 'I' for Inactive)
REMARK    1  A    between atoms: C4_9  and  O3_3 
REMARK    2  A    between atoms: C6_11  and  O4_4 
ROOT
HETATM    1  O1  UNK     1      21.508  -9.950  34.543  1.00  0.00    -0.319 OA
HETATM    2  O2  UNK     1      20.122  -5.441  35.617  1.00  0.00    -0.272 OA
HETATM    3  O5  UNK     1      19.507  -3.319  36.222  1.00  0.00    -0.260 OA
HETATM    4  C1  UNK     1      21.896  -9.107  36.603  1.00  0.00     0.037 A 
HETATM    5  C2  UNK     1      21.243  -6.865  37.244  1.00  0.00     0.035 A 
HETATM    6  C3  UNK     1      21.360  -8.856  35.344  1.00  0.00     0.124 A 
HETATM    7  C4  UNK     1      21.838  -8.092  37.578  1.00  0.00     0.094 A 
HETATM    8  C5  UNK     1      20.723  -6.673  35.964  1.00  0.00     0.128 A 
HETATM    9  C6  UNK     1      20.762  -7.656  34.970  1.00  0.00     0.138 A 
HETATM   10  C7  UNK     1      22.395 -10.435  36.553  1.00  0.00     0.042 A 
HETATM   11  C8  UNK     1      21.153  -5.778  38.206  1.00  0.00     0.023 A 
HETATM   12  C9  UNK     1      22.136 -10.899  35.284  1.00  0.00     0.143 A 
HETATM   13  C10 UNK     1      20.582  -4.619  37.866  1.00  0.00     0.083 A 
HETATM   14  C11 UNK     1      20.025  -4.390  36.521  1.00  0.00     0.288 A 
ENDROOT
BRANCH   7  15
HETATM   15  O3  UNK     1      22.357  -8.309  38.826  1.00  0.00    -0.354 OA
HETATM   16  C12 UNK     1      23.719  -7.946  39.028  1.00  0.00     0.210 C 
ENDBRANCH   7  15
BRANCH   9  17
HETATM   17  O4  UNK     1      20.249  -7.452  33.725  1.00  0.00    -0.351 OA
HETATM   18  C13 UNK     1      21.154  -7.007  32.716  1.00  0.00     0.210 C 
ENDBRANCH   9  17
TORSDOF 2
ENDMDL
MODEL 10
REMARK VINA RESULT:      -6.5      1.525      3.861
REMARK  2 active torsions:
REMARK  status: ('A' for Active; 'I' for Inactive)
REMARK    1  A    between atoms: C4_9  and  O3_3 
REMARK    2  A    between atoms: C6_11  and  O4_4 
ROOT
HETATM    1  O1  UNK     1      19.102   0.516  29.526  1.00  0.00    -0.319 OA
HETATM    2  O2  UNK     1      18.886  -0.424  34.267  1.00  0.00    -0.272 OA
HETATM    3  O5  UNK     1      18.752  -0.769  36.527  1.00  0.00    -0.260 OA
HETATM    4  C1  UNK     1      18.473   2.134  30.972  1.00  0.00     0.037 A 
HETATM    5  C2  UNK     1      18.333   1.769  33.362  1.00  0.00     0.035 A 
HETATM    6  C3  UNK     1      18.878   0.809  30.838  1.00  0.00     0.124 A 
HETATM    7  C4  UNK     1      18.193   2.629  32.262  1.00  0.00     0.094 A 
HETATM    8  C5  UNK     1      18.743   0.451  33.164  1.00  0.00     0.128 A 
HETATM    9  C6  UNK     1      19.029  -0.077  31.902  1.00  0.00     0.138 A 
HETATM   10  C7  UNK     1      18.452   2.667  29.657  1.00  0.00     0.042 A 
HETATM   11  C8  UNK     1      18.059   2.220  34.718  1.00  0.00     0.023 A 
HETATM   12  C9  UNK     1      18.840   1.647  28.819  1.00  0.00     0.143 A 
HETATM   13  C10 UNK     1      18.200   1.386  35.751  1.00  0.00     0.083 A 
HETATM   14  C11 UNK     1      18.631  -0.012  35.570  1.00  0.00     0.288 A 
ENDROOT
BRANCH   7  15
HETATM   15  O3  UNK     1      17.792   3.927  32.425  1.00  0.00    -0.354 OA
HETATM   16  C12 UNK     1      18.799   4.928  32.316  1.00  0.00     0.210 C 
ENDBRANCH   7  15
BRANCH   9  17
HETATM   17  O4  UNK     1      19.429  -1.367  31.726  1.00  0.00    -0.351 OA
HETATM   18  C13 UNK     1      20.819  -1.589  31.491  1.00  0.00     0.210 C 
ENDBRANCH   9  17
TORSDOF 2
ENDMDL
