MODEL 1
REMARK VINA RESULT:      -9.7      0.000      0.000
REMARK  4 active torsions:
REMARK  status: ('A' for Active; 'I' for Inactive)
REMARK    1  A    between atoms: C9_15  and  O2_2 
REMARK    2  A    between atoms: C6_12  and  N1_6 
REMARK       I    between atoms: C8_14  and  N1_6 
REMARK    3  A    between atoms: C3_9  and  C8_14 
REMARK    4  A    between atoms: C13_19  and  C17_23 
ROOT
HETATM    1  O1  UNK     1      19.161   7.664  32.914  1.00  0.00    -0.274 OA
HETATM    2  O4  UNK     1      20.393   5.923  32.092  1.00  0.00    -0.259 OA
HETATM    3  C1  UNK     1      16.817   7.322  33.462  1.00  0.00     0.002 A 
HETATM    4  C2  UNK     1      17.929   8.155  33.388  1.00  0.00     0.089 A 
HETATM    5  C3  UNK     1      18.121   5.474  32.592  1.00  0.00     0.108 A 
HETATM    6  C4  UNK     1      16.948   5.936  33.042  1.00  0.00     0.037 A 
HETATM    7  C5  UNK     1      15.613   7.846  33.938  1.00  0.00     0.051 A 
HETATM    8  C7  UNK     1      17.870   9.493  33.774  1.00  0.00     0.041 A 
HETATM    9  C9  UNK     1      15.540   9.186  34.329  1.00  0.00     0.069 A 
HETATM   10  C10 UNK     1      19.317   6.343  32.505  1.00  0.00     0.304 A 
HETATM   11  C11 UNK     1      16.666  10.007  34.247  1.00  0.00     0.039 A 
ENDROOT
BRANCH   5  12
HETATM   12  C8  UNK     1      18.153   4.062  32.192  1.00  0.00     0.262 C 
HETATM   13  O3  UNK     1      17.888   3.189  33.016  1.00  0.00    -0.267 OA
HETATM   14  N1  UNK     1      18.500   3.905  30.858  1.00  0.00    -0.323 N 
HETATM   15  H4  UNK     1      18.669   4.738  30.300  1.00  0.00     0.169 HD
BRANCH  14  16
HETATM   16  C6  UNK     1      18.629   2.692  30.136  1.00  0.00     0.035 A 
HETATM   17  C12 UNK     1      19.454   1.695  30.628  1.00  0.00     0.044 A 
HETATM   18  C13 UNK     1      19.580   0.502  29.917  1.00  0.00     0.011 A 
HETATM   19  C15 UNK     1      18.880   0.323  28.725  1.00  0.00     0.015 A 
HETATM   20  C16 UNK     1      18.052   1.338  28.243  1.00  0.00     0.003 A 
HETATM   21  C14 UNK     1      17.926   2.531  28.954  1.00  0.00     0.029 A 
BRANCH  18  22
HETATM   22  C17 UNK     1      20.443  -0.556  30.418  1.00  0.00     0.155 C 
HETATM   23  O5  UNK     1      21.237  -0.357  31.360  1.00  0.00    -0.293 OA
HETATM   24  C18 UNK     1      20.394  -1.947  29.797  1.00  0.00     0.096 C 
ENDBRANCH  18  22
ENDBRANCH  14  16
ENDBRANCH   5  12
BRANCH   9  25
HETATM   25  O2  UNK     1      14.363   9.693  34.792  1.00  0.00    -0.356 OA
HETATM   26  C19 UNK     1      14.440  10.831  35.648  1.00  0.00     0.210 C 
ENDBRANCH   9  25
TORSDOF 4
ENDMDL
MODEL 2
REMARK VINA RESULT:      -9.4      1.848      9.061
REMARK  4 active torsions:
REMARK  status: ('A' for Active; 'I' for Inactive)
REMARK    1  A    between atoms: C9_15  and  O2_2 
REMARK    2  A    between atoms: C6_12  and  N1_6 
REMARK       I    between atoms: C8_14  and  N1_6 
REMARK    3  A    between atoms: C3_9  and  C8_14 
REMARK    4  A    between atoms: C13_19  and  C17_23 
ROOT
HETATM    1  O1  UNK     1      19.068   1.499  28.744  1.00  0.00    -0.274 OA
HETATM    2  O4  UNK     1      18.265   3.627  28.969  1.00  0.00    -0.259 OA
HETATM    3  C1  UNK     1      19.602   0.202  30.730  1.00  0.00     0.002 A 
HETATM    4  C2  UNK     1      19.531   0.313  29.345  1.00  0.00     0.089 A 
HETATM    5  C3  UNK     1      18.749   2.457  30.972  1.00  0.00     0.108 A 
HETATM    6  C4  UNK     1      19.189   1.332  31.547  1.00  0.00     0.037 A 
HETATM    7  C5  UNK     1      20.067  -0.990  31.288  1.00  0.00     0.051 A 
HETATM    8  C7  UNK     1      19.913  -0.732  28.506  1.00  0.00     0.041 A 
HETATM    9  C9  UNK     1      20.452  -2.048  30.459  1.00  0.00     0.069 A 
HETATM   10  C10 UNK     1      18.666   2.597  29.500  1.00  0.00     0.304 A 
HETATM   11  C11 UNK     1      20.375  -1.918  29.070  1.00  0.00     0.039 A 
ENDROOT
BRANCH   5  12
HETATM   12  C8  UNK     1      18.356   3.541  31.880  1.00  0.00     0.262 C 
HETATM   13  O3  UNK     1      17.620   3.299  32.835  1.00  0.00    -0.267 OA
HETATM   14  N1  UNK     1      18.903   4.761  31.507  1.00  0.00    -0.323 N 
HETATM   15  H4  UNK     1      19.514   4.789  30.696  1.00  0.00     0.169 HD
BRANCH  14  16
HETATM   16  C6  UNK     1      18.737   6.014  32.148  1.00  0.00     0.035 A 
HETATM   17  C12 UNK     1      17.571   6.730  31.944  1.00  0.00     0.044 A 
HETATM   18  C13 UNK     1      17.409   7.963  32.575  1.00  0.00     0.011 A 
HETATM   19  C15 UNK     1      18.415   8.461  33.401  1.00  0.00     0.015 A 
HETATM   20  C16 UNK     1      19.585   7.726  33.596  1.00  0.00     0.003 A 
HETATM   21  C14 UNK     1      19.747   6.493  32.965  1.00  0.00     0.029 A 
BRANCH  18  22
HETATM   22  C17 UNK     1      16.190   8.730  32.372  1.00  0.00     0.155 C 
HETATM   23  O5  UNK     1      15.623   8.770  31.261  1.00  0.00    -0.293 OA
HETATM   24  C18 UNK     1      15.571   9.511  33.526  1.00  0.00     0.096 C 
ENDBRANCH  18  22
ENDBRANCH  14  16
ENDBRANCH   5  12
BRANCH   9  25
HETATM   25  O2  UNK     1      20.905  -3.209  31.007  1.00  0.00    -0.356 OA
HETATM   26  C19 UNK     1      21.062  -3.241  32.424  1.00  0.00     0.210 C 
ENDBRANCH   9  25
TORSDOF 4
ENDMDL
MODEL 3
REMARK VINA RESULT:      -9.1      2.189      8.846
REMARK  4 active torsions:
REMARK  status: ('A' for Active; 'I' for Inactive)
REMARK    1  A    between atoms: C9_15  and  O2_2 
REMARK    2  A    between atoms: C6_12  and  N1_6 
REMARK       I    between atoms: C8_14  and  N1_6 
REMARK    3  A    between atoms: C3_9  and  C8_14 
REMARK    4  A    between atoms: C13_19  and  C17_23 
ROOT
HETATM    1  O1  UNK     1      19.100   1.517  28.730  1.00  0.00    -0.274 OA
HETATM    2  O4  UNK     1      18.257   3.635  28.892  1.00  0.00    -0.259 OA
HETATM    3  C1  UNK     1      19.552   0.247  30.753  1.00  0.00     0.002 A 
HETATM    4  C2  UNK     1      19.549   0.343  29.365  1.00  0.00     0.089 A 
HETATM    5  C3  UNK     1      18.657   2.492  30.929  1.00  0.00     0.108 A 
HETATM    6  C4  UNK     1      19.083   1.379  31.537  1.00  0.00     0.037 A 
HETATM    7  C5  UNK     1      20.005  -0.934  31.346  1.00  0.00     0.051 A 
HETATM    8  C7  UNK     1      19.986  -0.705  28.557  1.00  0.00     0.041 A 
HETATM    9  C9  UNK     1      20.446  -1.993  30.548  1.00  0.00     0.069 A 
HETATM   10  C10 UNK     1      18.646   2.616  29.453  1.00  0.00     0.304 A 
HETATM   11  C11 UNK     1      20.436  -1.879  29.156  1.00  0.00     0.039 A 
ENDROOT
BRANCH   5  12
HETATM   12  C8  UNK     1      18.204   3.578  31.805  1.00  0.00     0.262 C 
HETATM   13  O3  UNK     1      17.627   3.312  32.857  1.00  0.00    -0.267 OA
HETATM   14  N1  UNK     1      18.511   4.829  31.288  1.00  0.00    -0.323 N 
HETATM   15  H4  UNK     1      19.016   4.879  30.407  1.00  0.00     0.169 HD
BRANCH  14  16
HETATM   16  C6  UNK     1      18.225   6.094  31.860  1.00  0.00     0.035 A 
HETATM   17  C12 UNK     1      18.988   6.545  32.923  1.00  0.00     0.044 A 
HETATM   18  C13 UNK     1      18.706   7.790  33.485  1.00  0.00     0.011 A 
HETATM   19  C15 UNK     1      17.666   8.566  32.975  1.00  0.00     0.015 A 
HETATM   20  C16 UNK     1      16.907   8.097  31.902  1.00  0.00     0.003 A 
HETATM   21  C14 UNK     1      17.189   6.851  31.341  1.00  0.00     0.029 A 
BRANCH  18  22
HETATM   22  C17 UNK     1      19.497   8.279  34.603  1.00  0.00     0.155 C 
HETATM   23  O5  UNK     1      19.410   7.765  35.736  1.00  0.00    -0.293 OA
HETATM   24  C18 UNK     1      20.461   9.445  34.412  1.00  0.00     0.096 C 
ENDBRANCH  18  22
ENDBRANCH  14  16
ENDBRANCH   5  12
BRANCH   9  25
HETATM   25  O2  UNK     1      20.887  -3.143  31.130  1.00  0.00    -0.356 OA
HETATM   26  C19 UNK     1      21.017  -3.143  32.550  1.00  0.00     0.210 C 
ENDBRANCH   9  25
TORSDOF 4
ENDMDL
MODEL 4
REMARK VINA RESULT:      -8.9     14.178     17.662
REMARK  4 active torsions:
REMARK  status: ('A' for Active; 'I' for Inactive)
REMARK    1  A    between atoms: C9_15  and  O2_2 
REMARK    2  A    between atoms: C6_12  and  N1_6 
REMARK       I    between atoms: C8_14  and  N1_6 
REMARK    3  A    between atoms: C3_9  and  C8_14 
REMARK    4  A    between atoms: C13_19  and  C17_23 
ROOT
HETATM    1  O1  UNK     1      19.276   0.995  15.474  1.00  0.00    -0.274 OA
HETATM    2  O4  UNK     1      19.447  -0.580  13.827  1.00  0.00    -0.259 OA
HETATM    3  C1  UNK     1      18.978   0.291  17.781  1.00  0.00     0.002 A 
HETATM    4  C2  UNK     1      19.115   1.304  16.838  1.00  0.00     0.089 A 
HETATM    5  C3  UNK     1      19.161  -1.382  16.038  1.00  0.00     0.108 A 
HETATM    6  C4  UNK     1      19.007  -1.093  17.336  1.00  0.00     0.037 A 
HETATM    7  C5  UNK     1      18.820   0.637  19.125  1.00  0.00     0.051 A 
HETATM    8  C7  UNK     1      19.096   2.650  17.200  1.00  0.00     0.041 A 
HETATM    9  C9  UNK     1      18.800   1.983  19.502  1.00  0.00     0.069 A 
HETATM   10  C10 UNK     1      19.307  -0.320  15.017  1.00  0.00     0.304 A 
HETATM   11  C11 UNK     1      18.937   2.987  18.541  1.00  0.00     0.039 A 
ENDROOT
BRANCH   5  12
HETATM   12  C8  UNK     1      19.176  -2.807  15.687  1.00  0.00     0.262 C 
HETATM   13  O3  UNK     1      20.243  -3.358  15.421  1.00  0.00    -0.267 OA
HETATM   14  N1  UNK     1      17.905  -3.364  15.705  1.00  0.00    -0.323 N 
HETATM   15  H4  UNK     1      17.121  -2.773  15.969  1.00  0.00     0.169 HD
BRANCH  14  16
HETATM   16  C6  UNK     1      17.545  -4.704  15.419  1.00  0.00     0.035 A 
HETATM   17  C12 UNK     1      17.815  -5.226  14.166  1.00  0.00     0.044 A 
HETATM   18  C13 UNK     1      17.461  -6.545  13.885  1.00  0.00     0.011 A 
HETATM   19  C15 UNK     1      16.841  -7.323  14.862  1.00  0.00     0.015 A 
HETATM   20  C16 UNK     1      16.576  -6.782  16.120  1.00  0.00     0.003 A 
HETATM   21  C14 UNK     1      16.930  -5.463  16.401  1.00  0.00     0.029 A 
BRANCH  18  22
HETATM   22  C17 UNK     1      17.737  -7.110  12.574  1.00  0.00     0.155 C 
HETATM   23  O5  UNK     1      17.178  -6.674  11.547  1.00  0.00    -0.293 OA
HETATM   24  C18 UNK     1      18.727  -8.260  12.424  1.00  0.00     0.096 C 
ENDBRANCH  18  22
ENDBRANCH  14  16
ENDBRANCH   5  12
BRANCH   9  25
HETATM   25  O2  UNK     1      18.645   2.317  20.814  1.00  0.00    -0.356 OA
HETATM   26  C19 UNK     1      19.702   1.964  21.703  1.00  0.00     0.210 C 
ENDBRANCH   9  25
TORSDOF 4
ENDMDL
MODEL 5
REMARK VINA RESULT:      -8.9      8.213     13.822
REMARK  4 active torsions:
REMARK  status: ('A' for Active; 'I' for Inactive)
REMARK    1  A    between atoms: C9_15  and  O2_2 
REMARK    2  A    between atoms: C6_12  and  N1_6 
REMARK       I    between atoms: C8_14  and  N1_6 
REMARK    3  A    between atoms: C3_9  and  C8_14 
REMARK    4  A    between atoms: C13_19  and  C17_23 
ROOT
HETATM    1  O1  UNK     1      18.313  -7.635  36.784  1.00  0.00    -0.274 OA
HETATM    2  O4  UNK     1      17.134  -5.678  36.755  1.00  0.00    -0.259 OA
HETATM    3  C1  UNK     1      20.725  -7.588  36.483  1.00  0.00     0.002 A 
HETATM    4  C2  UNK     1      19.550  -8.302  36.692  1.00  0.00     0.089 A 
HETATM    5  C3  UNK     1      19.478  -5.510  36.452  1.00  0.00     0.108 A 
HETATM    6  C4  UNK     1      20.656  -6.140  36.363  1.00  0.00     0.037 A 
HETATM    7  C5  UNK     1      21.932  -8.285  36.396  1.00  0.00     0.051 A 
HETATM    8  C7  UNK     1      19.548  -9.690  36.814  1.00  0.00     0.041 A 
HETATM    9  C9  UNK     1      21.946  -9.677  36.518  1.00  0.00     0.069 A 
HETATM   10  C10 UNK     1      18.215  -6.251  36.674  1.00  0.00     0.304 A 
HETATM   11  C11 UNK     1      20.756 -10.378  36.727  1.00  0.00     0.039 A 
ENDROOT
BRANCH   5  12
HETATM   12  C8  UNK     1      19.510  -4.049  36.318  1.00  0.00     0.262 C 
HETATM   13  O3  UNK     1      20.456  -3.510  35.747  1.00  0.00    -0.267 OA
HETATM   14  N1  UNK     1      18.400  -3.446  36.892  1.00  0.00    -0.323 N 
HETATM   15  H4  UNK     1      17.689  -4.040  37.311  1.00  0.00     0.169 HD
BRANCH  14  16
HETATM   16  C6  UNK     1      18.102  -2.062  36.951  1.00  0.00     0.035 A 
HETATM   17  C12 UNK     1      17.731  -1.399  35.794  1.00  0.00     0.044 A 
HETATM   18  C13 UNK     1      17.437  -0.037  35.854  1.00  0.00     0.011 A 
HETATM   19  C15 UNK     1      17.518   0.642  37.068  1.00  0.00     0.015 A 
HETATM   20  C16 UNK     1      17.894  -0.042  38.226  1.00  0.00     0.003 A 
HETATM   21  C14 UNK     1      18.188  -1.404  38.166  1.00  0.00     0.029 A 
BRANCH  18  22
HETATM   22  C17 UNK     1      17.046   0.676  34.648  1.00  0.00     0.155 C 
HETATM   23  O5  UNK     1      15.879   0.623  34.209  1.00  0.00    -0.293 OA
HETATM   24  C18 UNK     1      18.066   1.514  33.885  1.00  0.00     0.096 C 
ENDBRANCH  18  22
ENDBRANCH  14  16
ENDBRANCH   5  12
BRANCH   9  25
HETATM   25  O2  UNK     1      23.125 -10.354  36.433  1.00  0.00    -0.356 OA
HETATM   26  C19 UNK     1      23.135 -11.544  35.646  1.00  0.00     0.210 C 
ENDBRANCH   9  25
TORSDOF 4
ENDMDL
MODEL 6
REMARK VINA RESULT:      -8.8     14.498     17.879
REMARK  4 active torsions:
REMARK  status: ('A' for Active; 'I' for Inactive)
REMARK    1  A    between atoms: C9_15  and  O2_2 
REMARK    2  A    between atoms: C6_12  and  N1_6 
REMARK       I    between atoms: C8_14  and  N1_6 
REMARK    3  A    between atoms: C3_9  and  C8_14 
REMARK    4  A    between atoms: C13_19  and  C17_23 
ROOT
HETATM    1  O1  UNK     1      19.345   1.150  15.573  1.00  0.00    -0.274 OA
HETATM    2  O4  UNK     1      19.367  -0.374  13.870  1.00  0.00    -0.259 OA
HETATM    3  C1  UNK     1      18.879   0.408  17.841  1.00  0.00     0.002 A 
HETATM    4  C2  UNK     1      19.178   1.429  16.944  1.00  0.00     0.089 A 
HETATM    5  C3  UNK     1      18.903  -1.210  16.038  1.00  0.00     0.108 A 
HETATM    6  C4  UNK     1      18.743  -0.951  17.341  1.00  0.00     0.037 A 
HETATM    7  C5  UNK     1      18.720   0.724  19.192  1.00  0.00     0.051 A 
HETATM    8  C7  UNK     1      19.321   2.751  17.358  1.00  0.00     0.041 A 
HETATM    9  C9  UNK     1      18.862   2.047  19.622  1.00  0.00     0.069 A 
HETATM   10  C10 UNK     1      19.221  -0.140  15.065  1.00  0.00     0.304 A 
HETATM   11  C11 UNK     1      19.162   3.058  18.707  1.00  0.00     0.039 A 
ENDROOT
BRANCH   5  12
HETATM   12  C8  UNK     1      18.745  -2.611  15.631  1.00  0.00     0.262 C 
HETATM   13  O3  UNK     1      17.683  -3.193  15.846  1.00  0.00    -0.267 OA
HETATM   14  N1  UNK     1      19.888  -3.112  15.023  1.00  0.00    -0.323 N 
HETATM   15  H4  UNK     1      20.683  -2.489  14.900  1.00  0.00     0.169 HD
BRANCH  14  16
HETATM   16  C6  UNK     1      20.093  -4.416  14.510  1.00  0.00     0.035 A 
HETATM   17  C12 UNK     1      19.479  -4.782  13.325  1.00  0.00     0.044 A 
HETATM   18  C13 UNK     1      19.683  -6.066  12.820  1.00  0.00     0.011 A 
HETATM   19  C15 UNK     1      20.497  -6.965  13.507  1.00  0.00     0.015 A 
HETATM   20  C16 UNK     1      21.109  -6.580  14.701  1.00  0.00     0.003 A 
HETATM   21  C14 UNK     1      20.906  -5.296  15.206  1.00  0.00     0.029 A 
BRANCH  18  22
HETATM   22  C17 UNK     1      19.045  -6.469  11.576  1.00  0.00     0.155 C 
HETATM   23  O5  UNK     1      18.089  -5.826  11.097  1.00  0.00    -0.293 OA
HETATM   24  C18 UNK     1      19.537  -7.700  10.823  1.00  0.00     0.096 C 
ENDBRANCH  18  22
ENDBRANCH  14  16
ENDBRANCH   5  12
BRANCH   9  25
HETATM   25  O2  UNK     1      18.706   2.351  20.941  1.00  0.00    -0.356 OA
HETATM   26  C19 UNK     1      19.786   2.026  21.814  1.00  0.00     0.210 C 
ENDBRANCH   9  25
TORSDOF 4
ENDMDL
MODEL 7
REMARK VINA RESULT:      -8.7      2.578      8.930
REMARK  4 active torsions:
REMARK  status: ('A' for Active; 'I' for Inactive)
REMARK    1  A    between atoms: C9_15  and  O2_2 
REMARK    2  A    between atoms: C6_12  and  N1_6 
REMARK       I    between atoms: C8_14  and  N1_6 
REMARK    3  A    between atoms: C3_9  and  C8_14 
REMARK    4  A    between atoms: C13_19  and  C17_23 
ROOT
HETATM    1  O1  UNK     1      20.269  -1.511  29.537  1.00  0.00    -0.274 OA
HETATM    2  O4  UNK     1      19.635   0.113  28.059  1.00  0.00    -0.259 OA
HETATM    3  C1  UNK     1      19.807  -1.224  31.906  1.00  0.00     0.002 A 
HETATM    4  C2  UNK     1      20.333  -1.980  30.863  1.00  0.00     0.089 A 
HETATM    5  C3  UNK     1      19.132   0.499  30.342  1.00  0.00     0.108 A 
HETATM    6  C4  UNK     1      19.190   0.058  31.604  1.00  0.00     0.037 A 
HETATM    7  C5  UNK     1      19.889  -1.722  33.208  1.00  0.00     0.051 A 
HETATM    8  C7  UNK     1      20.937  -3.215  31.085  1.00  0.00     0.041 A 
HETATM    9  C9  UNK     1      20.492  -2.961  33.446  1.00  0.00     0.069 A 
HETATM   10  C10 UNK     1      19.685  -0.289  29.217  1.00  0.00     0.304 A 
HETATM   11  C11 UNK     1      21.015  -3.705  32.386  1.00  0.00     0.039 A 
ENDROOT
BRANCH   5  12
HETATM   12  C8  UNK     1      18.490   1.804  30.138  1.00  0.00     0.262 C 
HETATM   13  O3  UNK     1      17.538   1.901  29.366  1.00  0.00    -0.267 OA
HETATM   14  N1  UNK     1      19.088   2.804  30.893  1.00  0.00    -0.323 N 
HETATM   15  H4  UNK     1      19.860   2.553  31.505  1.00  0.00     0.169 HD
BRANCH  14  16
HETATM   16  C6  UNK     1      18.734   4.175  30.945  1.00  0.00     0.035 A 
HETATM   17  C12 UNK     1      17.973   4.638  32.003  1.00  0.00     0.044 A 
HETATM   18  C13 UNK     1      17.626   5.988  32.054  1.00  0.00     0.011 A 
HETATM   19  C15 UNK     1      18.045   6.854  31.045  1.00  0.00     0.015 A 
HETATM   20  C16 UNK     1      18.812   6.371  29.984  1.00  0.00     0.003 A 
HETATM   21  C14 UNK     1      19.159   5.021  29.934  1.00  0.00     0.029 A 
BRANCH  18  22
HETATM   22  C17 UNK     1      16.826   6.493  33.158  1.00  0.00     0.155 C 
HETATM   23  O5  UNK     1      17.195   6.362  34.343  1.00  0.00    -0.293 OA
HETATM   24  C18 UNK     1      15.503   7.203  32.889  1.00  0.00     0.096 C 
ENDBRANCH  18  22
ENDBRANCH  14  16
ENDBRANCH   5  12
BRANCH   9  25
HETATM   25  O2  UNK     1      20.571  -3.444  34.717  1.00  0.00    -0.356 OA
HETATM   26  C19 UNK     1      20.124  -2.587  35.766  1.00  0.00     0.210 C 
ENDBRANCH   9  25
TORSDOF 4
ENDMDL
MODEL 8
REMARK VINA RESULT:      -8.7      4.252      9.075
REMARK  4 active torsions:
REMARK  status: ('A' for Active; 'I' for Inactive)
REMARK    1  A    between atoms: C9_15  and  O2_2 
REMARK    2  A    between atoms: C6_12  and  N1_6 
REMARK       I    between atoms: C8_14  and  N1_6 
REMARK    3  A    between atoms: C3_9  and  C8_14 
REMARK    4  A    between atoms: C13_19  and  C17_23 
ROOT
HETATM    1  O1  UNK     1      17.659   0.504  37.002  1.00  0.00    -0.274 OA
HETATM    2  O4  UNK     1      16.931   2.620  36.539  1.00  0.00    -0.259 OA
HETATM    3  C1  UNK     1      18.938  -0.717  35.333  1.00  0.00     0.002 A 
HETATM    4  C2  UNK     1      18.351  -0.653  36.593  1.00  0.00     0.089 A 
HETATM    5  C3  UNK     1      18.168   1.527  34.839  1.00  0.00     0.108 A 
HETATM    6  C4  UNK     1      18.826   0.430  34.446  1.00  0.00     0.037 A 
HETATM    7  C5  UNK     1      19.615  -1.881  34.963  1.00  0.00     0.051 A 
HETATM    8  C7  UNK     1      18.421  -1.717  37.489  1.00  0.00     0.041 A 
HETATM    9  C9  UNK     1      19.694  -2.957  35.853  1.00  0.00     0.069 A 
HETATM   10  C10 UNK     1      17.536   1.617  36.175  1.00  0.00     0.304 A 
HETATM   11  C11 UNK     1      19.098  -2.874  37.114  1.00  0.00     0.039 A 
ENDROOT
BRANCH   5  12
HETATM   12  C8  UNK     1      18.110   2.631  33.874  1.00  0.00     0.262 C 
HETATM   13  O3  UNK     1      17.771   2.408  32.713  1.00  0.00    -0.267 OA
HETATM   14  N1  UNK     1      18.468   3.844  34.444  1.00  0.00    -0.323 N 
HETATM   15  H4  UNK     1      18.704   3.864  35.433  1.00  0.00     0.169 HD
BRANCH  14  16
HETATM   16  C6  UNK     1      18.526   5.112  33.813  1.00  0.00     0.035 A 
HETATM   17  C12 UNK     1      17.411   5.589  33.148  1.00  0.00     0.044 A 
HETATM   18  C13 UNK     1      17.469   6.837  32.528  1.00  0.00     0.011 A 
HETATM   19  C15 UNK     1      18.642   7.589  32.583  1.00  0.00     0.015 A 
HETATM   20  C16 UNK     1      19.758   7.093  33.258  1.00  0.00     0.003 A 
HETATM   21  C14 UNK     1      19.699   5.845  33.877  1.00  0.00     0.029 A 
BRANCH  18  22
HETATM   22  C17 UNK     1      16.306   7.355  31.824  1.00  0.00     0.155 C 
HETATM   23  O5  UNK     1      16.423   8.161  30.879  1.00  0.00    -0.293 OA
HETATM   24  C18 UNK     1      14.903   6.918  32.230  1.00  0.00     0.096 C 
ENDBRANCH  18  22
ENDBRANCH  14  16
ENDBRANCH   5  12
BRANCH   9  25
HETATM   25  O2  UNK     1      20.355  -4.091  35.490  1.00  0.00    -0.356 OA
HETATM   26  C19 UNK     1      19.880  -5.321  36.032  1.00  0.00     0.210 C 
ENDBRANCH   9  25
TORSDOF 4
ENDMDL
MODEL 9
REMARK VINA RESULT:      -8.7      7.532     10.232
REMARK  4 active torsions:
REMARK  status: ('A' for Active; 'I' for Inactive)
REMARK    1  A    between atoms: C9_15  and  O2_2 
REMARK    2  A    between atoms: C6_12  and  N1_6 
REMARK       I    between atoms: C8_14  and  N1_6 
REMARK    3  A    between atoms: C3_9  and  C8_14 
REMARK    4  A    between atoms: C13_19  and  C17_23 
ROOT
HETATM    1  O1  UNK     1      19.585  -1.513  34.073  1.00  0.00    -0.274 OA
HETATM    2  O4  UNK     1      20.866  -3.380  33.766  1.00  0.00    -0.259 OA
HETATM    3  C1  UNK     1      18.346  -1.234  36.146  1.00  0.00     0.002 A 
HETATM    4  C2  UNK     1      18.714  -0.765  34.889  1.00  0.00     0.089 A 
HETATM    5  C3  UNK     1      19.705  -3.215  35.825  1.00  0.00     0.108 A 
HETATM    6  C4  UNK     1      18.877  -2.509  36.604  1.00  0.00     0.037 A 
HETATM    7  C5  UNK     1      17.480  -0.465  36.926  1.00  0.00     0.051 A 
HETATM    8  C7  UNK     1      18.240   0.447  34.391  1.00  0.00     0.041 A 
HETATM    9  C9  UNK     1      16.997   0.754  36.440  1.00  0.00     0.069 A 
HETATM   10  C10 UNK     1      20.109  -2.735  34.484  1.00  0.00     0.304 A 
HETATM   11  C11 UNK     1      17.377   1.208  35.175  1.00  0.00     0.039 A 
ENDROOT
BRANCH   5  12
HETATM   12  C8  UNK     1      20.187  -4.488  36.375  1.00  0.00     0.262 C 
HETATM   13  O3  UNK     1      21.156  -4.497  37.131  1.00  0.00    -0.267 OA
HETATM   14  N1  UNK     1      19.434  -5.567  35.934  1.00  0.00    -0.323 N 
HETATM   15  H4  UNK     1      18.642  -5.387  35.321  1.00  0.00     0.169 HD
BRANCH  14  16
HETATM   16  C6  UNK     1      19.612  -6.935  36.258  1.00  0.00     0.035 A 
HETATM   17  C12 UNK     1      20.582  -7.666  35.596  1.00  0.00     0.044 A 
HETATM   18  C13 UNK     1      20.757  -9.013  35.916  1.00  0.00     0.011 A 
HETATM   19  C15 UNK     1      19.959  -9.607  36.893  1.00  0.00     0.015 A 
HETATM   20  C16 UNK     1      18.985  -8.855  37.550  1.00  0.00     0.003 A 
HETATM   21  C14 UNK     1      18.810  -7.508  37.230  1.00  0.00     0.029 A 
BRANCH  18  22
HETATM   22  C17 UNK     1      21.772  -9.798  35.231  1.00  0.00     0.155 C 
HETATM   23  O5  UNK     1      21.697 -10.034  34.009  1.00  0.00    -0.293 OA
HETATM   24  C18 UNK     1      22.964 -10.354  36.002  1.00  0.00     0.096 C 
ENDBRANCH  18  22
ENDBRANCH  14  16
ENDBRANCH   5  12
BRANCH   9  25
HETATM   25  O2  UNK     1      16.153   1.501  37.203  1.00  0.00    -0.356 OA
HETATM   26  C19 UNK     1      14.754   1.334  36.978  1.00  0.00     0.210 C 
ENDBRANCH   9  25
TORSDOF 4
ENDMDL
MODEL 10
REMARK VINA RESULT:      -8.7     15.750     17.583
REMARK  4 active torsions:
REMARK  status: ('A' for Active; 'I' for Inactive)
REMARK    1  A    between atoms: C9_15  and  O2_2 
REMARK    2  A    between atoms: C6_12  and  N1_6 
REMARK       I    between atoms: C8_14  and  N1_6 
REMARK    3  A    between atoms: C3_9  and  C8_14 
REMARK    4  A    between atoms: C13_19  and  C17_23 
ROOT
HETATM    1  O1  UNK     1      27.908  -4.901  38.699  1.00  0.00    -0.274 OA
HETATM    2  O4  UNK     1      25.716  -5.541  38.794  1.00  0.00    -0.259 OA
HETATM    3  C1  UNK     1      29.635  -6.580  38.365  1.00  0.00     0.002 A 
HETATM    4  C2  UNK     1      29.264  -5.252  38.552  1.00  0.00     0.089 A 
HETATM    5  C3  UNK     1      27.311  -7.261  38.463  1.00  0.00     0.108 A 
HETATM    6  C4  UNK     1      28.598  -7.600  38.323  1.00  0.00     0.037 A 
HETATM    7  C5  UNK     1      30.989  -6.888  38.223  1.00  0.00     0.051 A 
HETATM    8  C7  UNK     1      30.207  -4.228  38.602  1.00  0.00     0.041 A 
HETATM    9  C9  UNK     1      31.947  -5.871  38.270  1.00  0.00     0.069 A 
HETATM   10  C10 UNK     1      26.894  -5.855  38.663  1.00  0.00     0.304 A 
HETATM   11  C11 UNK     1      31.556  -4.543  38.459  1.00  0.00     0.039 A 
ENDROOT
BRANCH   5  12
HETATM   12  C8  UNK     1      26.341  -8.361  38.407  1.00  0.00     0.262 C 
HETATM   13  O3  UNK     1      25.797  -8.747  39.441  1.00  0.00    -0.267 OA
HETATM   14  N1  UNK     1      26.164  -8.837  37.116  1.00  0.00    -0.323 N 
HETATM   15  H4  UNK     1      26.677  -8.391  36.361  1.00  0.00     0.169 HD
BRANCH  14  16
HETATM   16  C6  UNK     1      25.311  -9.886  36.692  1.00  0.00     0.035 A 
HETATM   17  C12 UNK     1      23.979  -9.614  36.432  1.00  0.00     0.044 A 
HETATM   18  C13 UNK     1      23.141 -10.647  36.013  1.00  0.00     0.011 A 
HETATM   19  C15 UNK     1      23.646 -11.937  35.861  1.00  0.00     0.015 A 
HETATM   20  C16 UNK     1      24.992 -12.195  36.127  1.00  0.00     0.003 A 
HETATM   21  C14 UNK     1      25.830 -11.162  36.546  1.00  0.00     0.029 A 
BRANCH  18  22
HETATM   22  C17 UNK     1      21.738 -10.379  35.736  1.00  0.00     0.155 C 
HETATM   23  O5  UNK     1      21.375  -9.853  34.664  1.00  0.00    -0.293 OA
HETATM   24  C18 UNK     1      20.669 -10.739  36.762  1.00  0.00     0.096 C 
ENDBRANCH  18  22
ENDBRANCH  14  16
ENDBRANCH   5  12
BRANCH   9  25
HETATM   25  O2  UNK     1      33.267  -6.175  38.132  1.00  0.00    -0.356 OA
HETATM   26  C19 UNK     1      33.585  -7.405  37.482  1.00  0.00     0.210 C 
ENDBRANCH   9  25
TORSDOF 4
ENDMDL
