MODEL 1
REMARK VINA RESULT:      -6.4      0.000      0.000
REMARK  0 active torsions:
REMARK  status: ('A' for Active; 'I' for Inactive)
ROOT
HETATM    1 Cl1  UNK     1      19.163 -10.583  38.760  1.00  0.00    -0.081 Cl
HETATM    2 Cl2  UNK     1      23.358 -11.642  35.563  1.00  0.00    -0.084 Cl
HETATM    3  O1  UNK     1      18.787  -8.240  37.026  1.00  0.00    -0.320 OA
HETATM    4  O2  UNK     1      21.032  -7.127  33.806  1.00  0.00    -0.287 OA
HETATM    5  C1  UNK     1      20.673  -8.680  35.556  1.00  0.00     0.051 A 
HETATM    6  C2  UNK     1      19.864  -9.004  36.646  1.00  0.00     0.111 A 
HETATM    7  C3  UNK     1      21.757  -9.493  35.215  1.00  0.00     0.042 A 
HETATM    8  C4  UNK     1      20.136 -10.143  37.403  1.00  0.00     0.070 A 
HETATM    9  C5  UNK     1      20.365  -7.469  34.772  1.00  0.00     0.186 A 
HETATM   10  C6  UNK     1      22.026 -10.632  35.974  1.00  0.00     0.036 A 
HETATM   11  C7  UNK     1      21.218 -10.958  37.065  1.00  0.00     0.050 A 
HETATM   12  C8  UNK     1      19.199  -6.686  35.221  1.00  0.00     0.080 A 
HETATM   13  C9  UNK     1      18.514  -7.116  36.284  1.00  0.00     0.146 A 
ENDROOT
TORSDOF 0
ENDMDL
MODEL 2
REMARK VINA RESULT:      -6.1      9.923     11.789
REMARK  0 active torsions:
REMARK  status: ('A' for Active; 'I' for Inactive)
ROOT
HETATM    1 Cl1  UNK     1      18.333   1.315  33.852  1.00  0.00    -0.081 Cl
HETATM    2 Cl2  UNK     1      18.368   4.166  29.291  1.00  0.00    -0.084 Cl
HETATM    3  O1  UNK     1      19.494  -0.822  32.201  1.00  0.00    -0.320 OA
HETATM    4  O2  UNK     1      20.380  -0.702  28.220  1.00  0.00    -0.287 OA
HETATM    5  C1  UNK     1      19.527   0.429  30.116  1.00  0.00     0.051 A 
HETATM    6  C2  UNK     1      19.248   0.322  31.480  1.00  0.00     0.111 A 
HETATM    7  C3  UNK     1      19.258   1.617  29.432  1.00  0.00     0.042 A 
HETATM    8  C4  UNK     1      18.695   1.402  32.166  1.00  0.00     0.070 A 
HETATM    9  C5  UNK     1      20.112  -0.728  29.412  1.00  0.00     0.186 A 
HETATM   10  C6  UNK     1      18.705   2.696  30.123  1.00  0.00     0.036 A 
HETATM   11  C7  UNK     1      18.425   2.590  31.486  1.00  0.00     0.050 A 
HETATM   12  C8  UNK     1      20.355  -1.930  30.232  1.00  0.00     0.080 A 
HETATM   13  C9  UNK     1      20.038  -1.890  31.529  1.00  0.00     0.146 A 
ENDROOT
TORSDOF 0
ENDMDL
MODEL 3
REMARK VINA RESULT:      -6.0      8.745     10.698
REMARK  0 active torsions:
REMARK  status: ('A' for Active; 'I' for Inactive)
ROOT
HETATM    1 Cl1  UNK     1      18.481  -1.214  32.731  1.00  0.00    -0.081 Cl
HETATM    2 Cl2  UNK     1      18.297   4.014  33.985  1.00  0.00    -0.084 Cl
HETATM    3  O1  UNK     1      18.171  -1.635  35.624  1.00  0.00    -0.320 OA
HETATM    4  O2  UNK     1      17.830   1.198  38.540  1.00  0.00    -0.287 OA
HETATM    5  C1  UNK     1      18.084   0.716  36.236  1.00  0.00     0.051 A 
HETATM    6  C2  UNK     1      18.196  -0.302  35.288  1.00  0.00     0.111 A 
HETATM    7  C3  UNK     1      18.114   2.056  35.839  1.00  0.00     0.042 A 
HETATM    8  C4  UNK     1      18.340   0.013  33.938  1.00  0.00     0.070 A 
HETATM    9  C5  UNK     1      17.933   0.357  37.658  1.00  0.00     0.186 A 
HETATM   10  C6  UNK     1      18.259   2.368  34.487  1.00  0.00     0.036 A 
HETATM   11  C7  UNK     1      18.370   1.349  33.538  1.00  0.00     0.050 A 
HETATM   12  C8  UNK     1      17.913  -1.086  37.963  1.00  0.00     0.080 A 
HETATM   13  C9  UNK     1      18.030  -1.952  36.953  1.00  0.00     0.146 A 
ENDROOT
TORSDOF 0
ENDMDL
MODEL 4
REMARK VINA RESULT:      -6.0      7.235      8.552
REMARK  0 active torsions:
REMARK  status: ('A' for Active; 'I' for Inactive)
ROOT
HETATM    1 Cl1  UNK     1      20.593  -3.078  36.793  1.00  0.00    -0.081 Cl
HETATM    2 Cl2  UNK     1      20.191  -2.037  31.530  1.00  0.00    -0.084 Cl
HETATM    3  O1  UNK     1      18.350  -1.196  37.054  1.00  0.00    -0.320 OA
HETATM    4  O2  UNK     1      16.434   0.838  34.081  1.00  0.00    -0.287 OA
HETATM    5  C1  UNK     1      18.134  -0.695  34.685  1.00  0.00     0.051 A 
HETATM    6  C2  UNK     1      18.746  -1.360  35.748  1.00  0.00     0.111 A 
HETATM    7  C3  UNK     1      18.576  -0.901  33.376  1.00  0.00     0.042 A 
HETATM    8  C4  UNK     1      19.806  -2.234  35.508  1.00  0.00     0.070 A 
HETATM    9  C5  UNK     1      17.015   0.223  34.965  1.00  0.00     0.186 A 
HETATM   10  C6  UNK     1      19.637  -1.776  33.139  1.00  0.00     0.036 A 
HETATM   11  C7  UNK     1      20.250  -2.441  34.202  1.00  0.00     0.050 A 
HETATM   12  C8  UNK     1      16.630   0.364  36.382  1.00  0.00     0.080 A 
HETATM   13  C9  UNK     1      17.307  -0.336  37.297  1.00  0.00     0.146 A 
ENDROOT
TORSDOF 0
ENDMDL
MODEL 5
REMARK VINA RESULT:      -6.0      3.100      4.064
REMARK  0 active torsions:
REMARK  status: ('A' for Active; 'I' for Inactive)
ROOT
HETATM    1 Cl1  UNK     1      19.325 -10.885  39.014  1.00  0.00    -0.081 Cl
HETATM    2 Cl2  UNK     1      17.811  -7.344  35.257  1.00  0.00    -0.084 Cl
HETATM    3  O1  UNK     1      21.450  -8.939  39.596  1.00  0.00    -0.320 OA
HETATM    4  O2  UNK     1      22.127  -5.355  37.768  1.00  0.00    -0.287 OA
HETATM    5  C1  UNK     1      20.802  -7.311  37.910  1.00  0.00     0.051 A 
HETATM    6  C2  UNK     1      20.626  -8.525  38.577  1.00  0.00     0.111 A 
HETATM    7  C3  UNK     1      19.933  -6.939  36.881  1.00  0.00     0.042 A 
HETATM    8  C4  UNK     1      19.581  -9.375  38.217  1.00  0.00     0.070 A 
HETATM    9  C5  UNK     1      21.915  -6.430  38.309  1.00  0.00     0.186 A 
HETATM   10  C6  UNK     1      18.888  -7.792  36.523  1.00  0.00     0.036 A 
HETATM   11  C7  UNK     1      18.711  -9.006  37.190  1.00  0.00     0.050 A 
HETATM   12  C8  UNK     1      22.769  -6.922  39.407  1.00  0.00     0.080 A 
HETATM   13  C9  UNK     1      22.482  -8.106  39.955  1.00  0.00     0.146 A 
ENDROOT
TORSDOF 0
ENDMDL
MODEL 6
REMARK VINA RESULT:      -6.0     16.625     17.206
REMARK  0 active torsions:
REMARK  status: ('A' for Active; 'I' for Inactive)
ROOT
HETATM    1 Cl1  UNK     1      19.420   8.040  35.134  1.00  0.00    -0.081 Cl
HETATM    2 Cl2  UNK     1      19.666   5.766  30.265  1.00  0.00    -0.084 Cl
HETATM    3  O1  UNK     1      16.538   8.239  34.590  1.00  0.00    -0.320 OA
HETATM    4  O2  UNK     1      14.534   7.019  31.252  1.00  0.00    -0.287 OA
HETATM    5  C1  UNK     1      16.603   7.217  32.385  1.00  0.00     0.051 A 
HETATM    6  C2  UNK     1      17.227   7.656  33.554  1.00  0.00     0.111 A 
HETATM    7  C3  UNK     1      17.353   6.630  31.362  1.00  0.00     0.042 A 
HETATM    8  C4  UNK     1      18.606   7.512  33.706  1.00  0.00     0.070 A 
HETATM    9  C5  UNK     1      15.144   7.380  32.248  1.00  0.00     0.186 A 
HETATM   10  C6  UNK     1      18.732   6.487  31.518  1.00  0.00     0.036 A 
HETATM   11  C7  UNK     1      19.358   6.926  32.686  1.00  0.00     0.050 A 
HETATM   12  C8  UNK     1      14.453   8.011  33.389  1.00  0.00     0.080 A 
HETATM   13  C9  UNK     1      15.179   8.384  34.446  1.00  0.00     0.146 A 
ENDROOT
TORSDOF 0
ENDMDL
MODEL 7
REMARK VINA RESULT:      -5.9      0.974      3.121
REMARK  0 active torsions:
REMARK  status: ('A' for Active; 'I' for Inactive)
ROOT
HETATM    1 Cl1  UNK     1      22.465 -10.960  35.172  1.00  0.00    -0.081 Cl
HETATM    2 Cl2  UNK     1      19.165 -11.287  39.409  1.00  0.00    -0.084 Cl
HETATM    3  O1  UNK     1      21.100  -8.408  34.656  1.00  0.00    -0.320 OA
HETATM    4  O2  UNK     1      18.093  -6.700  36.822  1.00  0.00    -0.287 OA
HETATM    5  C1  UNK     1      19.589  -8.515  36.559  1.00  0.00     0.051 A 
HETATM    6  C2  UNK     1      20.615  -9.044  35.775  1.00  0.00     0.111 A 
HETATM    7  C3  UNK     1      19.135  -9.205  37.686  1.00  0.00     0.042 A 
HETATM    8  C4  UNK     1      21.193 -10.268  36.113  1.00  0.00     0.070 A 
HETATM    9  C5  UNK     1      18.994  -7.220  36.180  1.00  0.00     0.186 A 
HETATM   10  C6  UNK     1      19.716 -10.429  38.022  1.00  0.00     0.036 A 
HETATM   11  C7  UNK     1      20.742 -10.959  37.238  1.00  0.00     0.050 A 
HETATM   12  C8  UNK     1      19.550  -6.580  34.973  1.00  0.00     0.080 A 
HETATM   13  C9  UNK     1      20.534  -7.203  34.318  1.00  0.00     0.146 A 
ENDROOT
TORSDOF 0
ENDMDL
MODEL 8
REMARK VINA RESULT:      -5.9      7.041      8.687
REMARK  0 active torsions:
REMARK  status: ('A' for Active; 'I' for Inactive)
ROOT
HETATM    1 Cl1  UNK     1      20.295  -3.297  36.938  1.00  0.00    -0.081 Cl
HETATM    2 Cl2  UNK     1      16.384   0.387  36.683  1.00  0.00    -0.084 Cl
HETATM    3  O1  UNK     1      20.609  -2.760  34.065  1.00  0.00    -0.320 OA
HETATM    4  O2  UNK     1      18.487  -0.142  31.765  1.00  0.00    -0.287 OA
HETATM    5  C1  UNK     1      18.849  -1.090  33.904  1.00  0.00     0.051 A 
HETATM    6  C2  UNK     1      19.612  -2.004  34.633  1.00  0.00     0.111 A 
HETATM    7  C3  UNK     1      17.848  -0.346  34.533  1.00  0.00     0.042 A 
HETATM    8  C4  UNK     1      19.376  -2.179  35.996  1.00  0.00     0.070 A 
HETATM    9  C5  UNK     1      19.118  -0.923  32.464  1.00  0.00     0.186 A 
HETATM   10  C6  UNK     1      17.615  -0.524  35.897  1.00  0.00     0.036 A 
HETATM   11  C7  UNK     1      18.377  -1.438  36.628  1.00  0.00     0.050 A 
HETATM   12  C8  UNK     1      20.197  -1.758  31.904  1.00  0.00     0.080 A 
HETATM   13  C9  UNK     1      20.846  -2.592  32.722  1.00  0.00     0.146 A 
ENDROOT
TORSDOF 0
ENDMDL
MODEL 9
REMARK VINA RESULT:      -5.8     12.371     13.998
REMARK  0 active torsions:
REMARK  status: ('A' for Active; 'I' for Inactive)
ROOT
HETATM    1 Cl1  UNK     1      17.965   1.911  34.208  1.00  0.00    -0.081 Cl
HETATM    2 Cl2  UNK     1      18.952   1.159  28.973  1.00  0.00    -0.084 Cl
HETATM    3  O1  UNK     1      18.180   4.769  33.554  1.00  0.00    -0.320 OA
HETATM    4  O2  UNK     1      18.936   6.451  29.915  1.00  0.00    -0.287 OA
HETATM    5  C1  UNK     1      18.630   4.475  31.183  1.00  0.00     0.051 A 
HETATM    6  C2  UNK     1      18.367   3.965  32.455  1.00  0.00     0.111 A 
HETATM    7  C3  UNK     1      18.811   3.612  30.100  1.00  0.00     0.042 A 
HETATM    8  C4  UNK     1      18.287   2.587  32.652  1.00  0.00     0.070 A 
HETATM    9  C5  UNK     1      18.709   5.937  31.001  1.00  0.00     0.186 A 
HETATM   10  C6  UNK     1      18.730   2.233  30.300  1.00  0.00     0.036 A 
HETATM   11  C7  UNK     1      18.468   1.721  31.572  1.00  0.00     0.050 A 
HETATM   12  C8  UNK     1      18.501   6.753  32.212  1.00  0.00     0.080 A 
HETATM   13  C9  UNK     1      18.258   6.128  33.367  1.00  0.00     0.146 A 
ENDROOT
TORSDOF 0
ENDMDL
MODEL 10
REMARK VINA RESULT:      -5.8     15.125     16.390
REMARK  0 active torsions:
REMARK  status: ('A' for Active; 'I' for Inactive)
ROOT
HETATM    1 Cl1  UNK     1      16.098   6.905  34.773  1.00  0.00    -0.081 Cl
HETATM    2 Cl2  UNK     1      20.745   9.614  34.746  1.00  0.00    -0.084 Cl
HETATM    3  O1  UNK     1      17.349   5.285  32.663  1.00  0.00    -0.320 OA
HETATM    4  O2  UNK     1      21.082   5.707  31.071  1.00  0.00    -0.287 OA
HETATM    5  C1  UNK     1      19.465   6.481  32.617  1.00  0.00     0.051 A 
HETATM    6  C2  UNK     1      18.178   6.282  33.119  1.00  0.00     0.111 A 
HETATM    7  C3  UNK     1      20.266   7.511  33.117  1.00  0.00     0.042 A 
HETATM    8  C4  UNK     1      17.683   7.114  34.123  1.00  0.00     0.070 A 
HETATM    9  C5  UNK     1      19.965   5.589  31.555  1.00  0.00     0.186 A 
HETATM   10  C6  UNK     1      19.768   8.341  34.122  1.00  0.00     0.036 A 
HETATM   11  C7  UNK     1      18.481   8.143  34.625  1.00  0.00     0.050 A 
HETATM   12  C8  UNK     1      19.036   4.535  31.103  1.00  0.00     0.080 A 
HETATM   13  C9  UNK     1      17.831   4.463  31.674  1.00  0.00     0.146 A 
ENDROOT
TORSDOF 0
ENDMDL
