MODEL 1
REMARK VINA RESULT:     -10.3      0.000      0.000
REMARK  11 active torsions:
REMARK  status: ('A' for Active; 'I' for Inactive)
REMARK    1  A    between atoms: C14_26  and  O2_5 
REMARK    2  A    between atoms: C17_29  and  O2_5 
REMARK    3  A    between atoms: C25_37  and  O7_10 
REMARK    4  A    between atoms: C29_41  and  O7_10 
REMARK    5  A    between atoms: C2_14  and  N1_12 
REMARK       I    between atoms: C25_37  and  N1_12 
REMARK    6  A    between atoms: C1_13  and  C3_15 
REMARK    7  A    between atoms: C17_29  and  C2_14 
REMARK    8  A    between atoms: C2_14  and  C4_16 
REMARK    9  A    between atoms: C11_23  and  C4_16 
REMARK   10  A    between atoms: C22_34  and  C8_20 
REMARK   11  A    between atoms: C29_41  and  C30_42 
ROOT
HETATM    1  O1  UNK     1      29.003  -6.124  38.205  1.00  0.00    -0.304 OA
HETATM    2  O5  UNK     1      31.057  -9.489  37.200  1.00  0.00    -0.286 OA
HETATM    3  C1  UNK     1      31.033  -7.114  37.337  1.00  0.00     0.064 A 
HETATM    4  C5  UNK     1      29.081  -8.540  38.049  1.00  0.00     0.049 A 
HETATM    5  C6  UNK     1      28.431  -7.355  38.374  1.00  0.00     0.093 A 
HETATM    6  C7  UNK     1      30.443  -8.473  37.502  1.00  0.00     0.198 A 
HETATM    7  C8  UNK     1      30.292  -6.042  37.691  1.00  0.00     0.174 A 
HETATM    8  C14 UNK     1      26.498  -8.614  39.091  1.00  0.00     0.082 A 
HETATM    9  C15 UNK     1      27.137  -7.389  38.896  1.00  0.00     0.075 A 
HETATM   10  C16 UNK     1      28.445  -9.770  38.242  1.00  0.00     0.021 A 
HETATM   11  C19 UNK     1      27.153  -9.802  38.764  1.00  0.00     0.038 A 
ENDROOT
BRANCH   8  12
HETATM   12  O2  UNK     1      25.237  -8.650  39.599  1.00  0.00    -0.277 OA
BRANCH  12  13
HETATM   13  C17 UNK     1      24.233  -8.282  38.690  1.00  0.00     0.287 C 
HETATM   14  O6  UNK     1      24.324  -8.389  37.471  1.00  0.00    -0.262 OA
BRANCH  13  15
HETATM   15  C2  UNK     1      22.981  -7.753  39.380  1.00  0.00     0.191 C 
BRANCH  15  16
HETATM   16  N1  UNK     1      22.237  -6.842  38.549  1.00  0.00    -0.323 N 
HETATM   17  C25 UNK     1      22.664  -5.568  38.230  1.00  0.00     0.361 C 
HETATM   18  O8  UNK     1      23.712  -5.051  38.602  1.00  0.00    -0.238 OA
HETATM   19  H9  UNK     1      21.340  -7.146  38.182  1.00  0.00     0.165 HD
BRANCH  17  20
HETATM   20  O7  UNK     1      21.741  -4.957  37.428  1.00  0.00    -0.299 OA
BRANCH  20  21
HETATM   21  C29 UNK     1      20.383  -5.022  37.878  1.00  0.00     0.219 C 
BRANCH  21  22
HETATM   22  C30 UNK     1      19.583  -5.838  36.905  1.00  0.00    -0.034 A 
HETATM   23  C31 UNK     1      20.217  -6.460  35.830  1.00  0.00     0.009 A 
HETATM   24  C33 UNK     1      19.473  -7.218  34.926  1.00  0.00     0.001 A 
HETATM   25  C35 UNK     1      18.095  -7.356  35.098  1.00  0.00     0.000 A 
HETATM   26  C34 UNK     1      17.462  -6.735  36.175  1.00  0.00     0.001 A 
HETATM   27  C32 UNK     1      18.205  -5.975  37.078  1.00  0.00     0.009 A 
ENDBRANCH  21  22
ENDBRANCH  20  21
ENDBRANCH  17  20
ENDBRANCH  15  16
BRANCH  15  28
HETATM   28  C4  UNK     1      22.090  -8.892  39.897  1.00  0.00     0.074 C 
BRANCH  28  29
HETATM   29  C11 UNK     1      20.986  -9.307  38.951  1.00  0.00    -0.056 A 
HETATM   30  C23 UNK     1      19.660  -8.983  39.242  1.00  0.00     0.007 A 
HETATM   31  C26 UNK     1      18.641  -9.365  38.369  1.00  0.00     0.001 A 
HETATM   32  C28 UNK     1      18.947 -10.072  37.206  1.00  0.00     0.000 A 
HETATM   33  C27 UNK     1      20.273 -10.396  36.916  1.00  0.00     0.001 A 
HETATM   34  C24 UNK     1      21.291 -10.013  37.788  1.00  0.00     0.007 A 
ENDBRANCH  28  29
ENDBRANCH  15  28
ENDBRANCH  13  15
ENDBRANCH  12  13
ENDBRANCH   8  12
BRANCH   7  35
HETATM   35  C22 UNK     1      30.748  -4.613  37.583  1.00  0.00     0.440 C 
HETATM   36  F1  UNK     1      31.707  -4.349  38.489  1.00  0.00    -0.164 F 
HETATM   37  F2  UNK     1      31.248  -4.363  36.358  1.00  0.00    -0.164 F 
HETATM   38  F3  UNK     1      29.725  -3.765  37.798  1.00  0.00    -0.164 F 
ENDBRANCH   7  35
BRANCH   3  39
HETATM   39  C3  UNK     1      32.381  -6.982  36.801  1.00  0.00    -0.016 A 
HETATM   40  C10 UNK     1      32.590  -7.016  35.423  1.00  0.00     0.052 A 
HETATM   41  C9  UNK     1      33.882  -6.882  34.913  1.00  0.00     0.102 A 
HETATM   42  C12 UNK     1      34.966  -6.742  35.782  1.00  0.00     0.102 A 
HETATM   43  O3  UNK     1      34.020  -6.902  33.550  1.00  0.00    -0.346 OA
HETATM   44  O4  UNK     1      36.261  -6.638  35.346  1.00  0.00    -0.346 OA
HETATM   45  C18 UNK     1      34.754  -6.694  37.161  1.00  0.00     0.040 A 
HETATM   46  C21 UNK     1      36.397  -7.041  33.980  1.00  0.00     0.202 C 
HETATM   47  C20 UNK     1      35.301  -6.417  33.137  1.00  0.00     0.202 C 
HETATM   48  C13 UNK     1      33.461  -6.816  37.670  1.00  0.00     0.015 A 
ENDBRANCH   3  39
TORSDOF 11
ENDMDL
MODEL 2
REMARK VINA RESULT:     -10.3      9.049     14.019
REMARK  11 active torsions:
REMARK  status: ('A' for Active; 'I' for Inactive)
REMARK    1  A    between atoms: C14_26  and  O2_5 
REMARK    2  A    between atoms: C17_29  and  O2_5 
REMARK    3  A    between atoms: C25_37  and  O7_10 
REMARK    4  A    between atoms: C29_41  and  O7_10 
REMARK    5  A    between atoms: C2_14  and  N1_12 
REMARK       I    between atoms: C25_37  and  N1_12 
REMARK    6  A    between atoms: C1_13  and  C3_15 
REMARK    7  A    between atoms: C17_29  and  C2_14 
REMARK    8  A    between atoms: C2_14  and  C4_16 
REMARK    9  A    between atoms: C11_23  and  C4_16 
REMARK   10  A    between atoms: C22_34  and  C8_20 
REMARK   11  A    between atoms: C29_41  and  C30_42 
ROOT
HETATM    1  O1  UNK     1      19.495  -0.848  34.179  1.00  0.00    -0.304 OA
HETATM    2  O5  UNK     1      18.370  -1.719  37.990  1.00  0.00    -0.286 OA
HETATM    3  C1  UNK     1      19.450  -2.443  35.998  1.00  0.00     0.064 A 
HETATM    4  C5  UNK     1      18.411  -0.159  36.234  1.00  0.00     0.049 A 
HETATM    5  C6  UNK     1      18.822   0.079  34.927  1.00  0.00     0.093 A 
HETATM    6  C7  UNK     1      18.712  -1.461  36.843  1.00  0.00     0.198 A 
HETATM    7  C8  UNK     1      19.790  -2.084  34.741  1.00  0.00     0.174 A 
HETATM    8  C14 UNK     1      17.866   2.295  35.033  1.00  0.00     0.082 A 
HETATM    9  C15 UNK     1      18.550   1.308  34.323  1.00  0.00     0.075 A 
HETATM   10  C16 UNK     1      17.724   0.826  36.949  1.00  0.00     0.021 A 
HETATM   11  C19 UNK     1      17.454   2.054  36.344  1.00  0.00     0.038 A 
ENDROOT
BRANCH   8  12
HETATM   12  O2  UNK     1      17.599   3.493  34.446  1.00  0.00    -0.277 OA
BRANCH  12  13
HETATM   13  C17 UNK     1      18.726   4.302  34.237  1.00  0.00     0.287 C 
HETATM   14  O6  UNK     1      19.700   4.346  34.983  1.00  0.00    -0.262 OA
BRANCH  13  15
HETATM   15  C2  UNK     1      18.636   5.115  32.950  1.00  0.00     0.191 C 
BRANCH  15  16
HETATM   16  N1  UNK     1      18.477   4.285  31.784  1.00  0.00    -0.323 N 
HETATM   17  C25 UNK     1      19.091   4.534  30.572  1.00  0.00     0.361 C 
HETATM   18  O8  UNK     1      19.839   5.476  30.331  1.00  0.00    -0.238 OA
HETATM   19  H9  UNK     1      17.870   3.472  31.849  1.00  0.00     0.165 HD
BRANCH  17  20
HETATM   20  O7  UNK     1      18.743   3.570  29.669  1.00  0.00    -0.299 OA
BRANCH  20  21
HETATM   21  C29 UNK     1      18.124   2.399  30.213  1.00  0.00     0.219 C 
BRANCH  21  22
HETATM   22  C30 UNK     1      18.970   1.202  29.891  1.00  0.00    -0.034 A 
HETATM   23  C31 UNK     1      19.866   0.707  30.838  1.00  0.00     0.009 A 
HETATM   24  C33 UNK     1      20.653  -0.405  30.539  1.00  0.00     0.001 A 
HETATM   25  C35 UNK     1      20.543  -1.023  29.293  1.00  0.00     0.000 A 
HETATM   26  C34 UNK     1      19.645  -0.528  28.346  1.00  0.00     0.001 A 
HETATM   27  C32 UNK     1      18.859   0.585  28.645  1.00  0.00     0.009 A 
ENDBRANCH  21  22
ENDBRANCH  20  21
ENDBRANCH  17  20
ENDBRANCH  15  16
BRANCH  15  28
HETATM   28  C4  UNK     1      17.537   6.185  33.028  1.00  0.00     0.074 C 
BRANCH  28  29
HETATM   29  C11 UNK     1      18.019   7.554  33.452  1.00  0.00    -0.056 A 
HETATM   30  C23 UNK     1      19.340   7.731  33.866  1.00  0.00     0.007 A 
HETATM   31  C26 UNK     1      19.785   8.994  34.257  1.00  0.00     0.001 A 
HETATM   32  C28 UNK     1      18.910  10.079  34.236  1.00  0.00     0.000 A 
HETATM   33  C27 UNK     1      17.590   9.902  33.822  1.00  0.00     0.001 A 
HETATM   34  C24 UNK     1      17.145   8.640  33.430  1.00  0.00     0.007 A 
ENDBRANCH  28  29
ENDBRANCH  15  28
ENDBRANCH  13  15
ENDBRANCH  12  13
ENDBRANCH   8  12
BRANCH   7  35
HETATM   35  C22 UNK     1      20.533  -2.962  33.772  1.00  0.00     0.440 C 
HETATM   36  F1  UNK     1      20.119  -2.736  32.512  1.00  0.00    -0.164 F 
HETATM   37  F2  UNK     1      21.856  -2.723  33.829  1.00  0.00    -0.164 F 
HETATM   38  F3  UNK     1      20.331  -4.264  34.051  1.00  0.00    -0.164 F 
ENDBRANCH   7  35
BRANCH   3  39
HETATM   39  C3  UNK     1      19.779  -3.751  36.547  1.00  0.00    -0.016 A 
HETATM   40  C10 UNK     1      21.018  -3.960  37.154  1.00  0.00     0.052 A 
HETATM   41  C9  UNK     1      21.328  -5.212  37.686  1.00  0.00     0.102 A 
HETATM   42  C12 UNK     1      20.412  -6.262  37.584  1.00  0.00     0.102 A 
HETATM   43  O3  UNK     1      22.551  -5.350  38.288  1.00  0.00    -0.346 OA
HETATM   44  O4  UNK     1      20.669  -7.522  38.058  1.00  0.00    -0.346 OA
HETATM   45  C18 UNK     1      19.167  -6.048  36.990  1.00  0.00     0.040 A 
HETATM   46  C21 UNK     1      22.061  -7.718  38.322  1.00  0.00     0.202 C 
HETATM   47  C20 UNK     1      22.622  -6.535  39.086  1.00  0.00     0.202 C 
HETATM   48  C13 UNK     1      18.853  -4.792  36.470  1.00  0.00     0.015 A 
ENDBRANCH   3  39
TORSDOF 11
ENDMDL
MODEL 3
REMARK VINA RESULT:     -10.2      2.515      2.916
REMARK  11 active torsions:
REMARK  status: ('A' for Active; 'I' for Inactive)
REMARK    1  A    between atoms: C14_26  and  O2_5 
REMARK    2  A    between atoms: C17_29  and  O2_5 
REMARK    3  A    between atoms: C25_37  and  O7_10 
REMARK    4  A    between atoms: C29_41  and  O7_10 
REMARK    5  A    between atoms: C2_14  and  N1_12 
REMARK       I    between atoms: C25_37  and  N1_12 
REMARK    6  A    between atoms: C1_13  and  C3_15 
REMARK    7  A    between atoms: C17_29  and  C2_14 
REMARK    8  A    between atoms: C2_14  and  C4_16 
REMARK    9  A    between atoms: C11_23  and  C4_16 
REMARK   10  A    between atoms: C22_34  and  C8_20 
REMARK   11  A    between atoms: C29_41  and  C30_42 
ROOT
HETATM    1  O1  UNK     1      27.779  -5.288  38.788  1.00  0.00    -0.304 OA
HETATM    2  O5  UNK     1      29.104  -8.776  37.167  1.00  0.00    -0.286 OA
HETATM    3  C1  UNK     1      29.618  -6.560  37.864  1.00  0.00     0.064 A 
HETATM    4  C5  UNK     1      27.310  -7.553  38.066  1.00  0.00     0.049 A 
HETATM    5  C6  UNK     1      26.917  -6.337  38.614  1.00  0.00     0.093 A 
HETATM    6  C7  UNK     1      28.710  -7.724  37.655  1.00  0.00     0.198 A 
HETATM    7  C8  UNK     1      29.107  -5.434  38.408  1.00  0.00     0.174 A 
HETATM    8  C14 UNK     1      24.666  -7.178  38.861  1.00  0.00     0.082 A 
HETATM    9  C15 UNK     1      25.593  -6.147  39.014  1.00  0.00     0.075 A 
HETATM   10  C16 UNK     1      26.384  -8.589  37.911  1.00  0.00     0.021 A 
HETATM   11  C19 UNK     1      25.062  -8.397  38.311  1.00  0.00     0.038 A 
ENDROOT
BRANCH   8  12
HETATM   12  O2  UNK     1      23.375  -6.994  39.249  1.00  0.00    -0.277 OA
BRANCH  12  13
HETATM   13  C17 UNK     1      22.452  -6.945  38.194  1.00  0.00     0.287 C 
HETATM   14  O6  UNK     1      22.501  -7.654  37.193  1.00  0.00    -0.262 OA
BRANCH  13  15
HETATM   15  C2  UNK     1      21.342  -5.927  38.429  1.00  0.00     0.191 C 
BRANCH  15  16
HETATM   16  N1  UNK     1      20.919  -5.283  37.213  1.00  0.00    -0.323 N 
HETATM   17  C25 UNK     1      20.522  -3.962  37.140  1.00  0.00     0.361 C 
HETATM   18  O8  UNK     1      20.478  -3.175  38.080  1.00  0.00    -0.238 OA
HETATM   19  H9  UNK     1      20.899  -5.831  36.358  1.00  0.00     0.165 HD
BRANCH  17  20
HETATM   20  O7  UNK     1      20.181  -3.651  35.854  1.00  0.00    -0.299 OA
BRANCH  20  21
HETATM   21  C29 UNK     1      19.790  -2.293  35.621  1.00  0.00     0.219 C 
BRANCH  21  22
HETATM   22  C30 UNK     1      19.824  -2.019  34.146  1.00  0.00    -0.034 A 
HETATM   23  C31 UNK     1      20.800  -2.617  33.348  1.00  0.00     0.009 A 
HETATM   24  C33 UNK     1      20.832  -2.361  31.978  1.00  0.00     0.001 A 
HETATM   25  C35 UNK     1      19.888  -1.509  31.404  1.00  0.00     0.000 A 
HETATM   26  C34 UNK     1      18.912  -0.912  32.202  1.00  0.00     0.001 A 
HETATM   27  C32 UNK     1      18.880  -1.166  33.574  1.00  0.00     0.009 A 
ENDBRANCH  21  22
ENDBRANCH  20  21
ENDBRANCH  17  20
ENDBRANCH  15  16
BRANCH  15  28
HETATM   28  C4  UNK     1      20.152  -6.544  39.179  1.00  0.00     0.074 C 
BRANCH  28  29
HETATM   29  C11 UNK     1      19.761  -7.927  38.711  1.00  0.00    -0.056 A 
HETATM   30  C23 UNK     1      20.097  -9.044  39.479  1.00  0.00     0.007 A 
HETATM   31  C26 UNK     1      19.736 -10.320  39.048  1.00  0.00     0.001 A 
HETATM   32  C28 UNK     1      19.040 -10.481  37.850  1.00  0.00     0.000 A 
HETATM   33  C27 UNK     1      18.704  -9.365  37.083  1.00  0.00     0.001 A 
HETATM   34  C24 UNK     1      19.064  -8.089  37.514  1.00  0.00     0.007 A 
ENDBRANCH  28  29
ENDBRANCH  15  28
ENDBRANCH  13  15
ENDBRANCH  12  13
ENDBRANCH   8  12
BRANCH   7  35
HETATM   35  C22 UNK     1      29.895  -4.182  38.679  1.00  0.00     0.440 C 
HETATM   36  F1  UNK     1      31.128  -4.482  39.124  1.00  0.00    -0.164 F 
HETATM   37  F2  UNK     1      30.021  -3.446  37.558  1.00  0.00    -0.164 F 
HETATM   38  F3  UNK     1      29.287  -3.424  39.610  1.00  0.00    -0.164 F 
ENDBRANCH   7  35
BRANCH   3  39
HETATM   39  C3  UNK     1      31.018  -6.670  37.480  1.00  0.00    -0.016 A 
HETATM   40  C10 UNK     1      31.453  -6.130  36.269  1.00  0.00     0.052 A 
HETATM   41  C9  UNK     1      32.796  -6.230  35.907  1.00  0.00     0.102 A 
HETATM   42  C12 UNK     1      33.698  -6.895  36.741  1.00  0.00     0.102 A 
HETATM   43  O3  UNK     1      33.166  -5.662  34.716  1.00  0.00    -0.346 OA
HETATM   44  O4  UNK     1      35.022  -7.054  36.428  1.00  0.00    -0.346 OA
HETATM   45  C18 UNK     1      33.265  -7.422  37.959  1.00  0.00     0.040 A 
HETATM   46  C21 UNK     1      35.277  -6.795  35.044  1.00  0.00     0.202 C 
HETATM   47  C20 UNK     1      34.585  -5.516  34.613  1.00  0.00     0.202 C 
HETATM   48  C13 UNK     1      31.924  -7.311  38.326  1.00  0.00     0.015 A 
ENDBRANCH   3  39
TORSDOF 11
ENDMDL
MODEL 4
REMARK VINA RESULT:     -10.1      3.308     10.928
REMARK  11 active torsions:
REMARK  status: ('A' for Active; 'I' for Inactive)
REMARK    1  A    between atoms: C14_26  and  O2_5 
REMARK    2  A    between atoms: C17_29  and  O2_5 
REMARK    3  A    between atoms: C25_37  and  O7_10 
REMARK    4  A    between atoms: C29_41  and  O7_10 
REMARK    5  A    between atoms: C2_14  and  N1_12 
REMARK       I    between atoms: C25_37  and  N1_12 
REMARK    6  A    between atoms: C1_13  and  C3_15 
REMARK    7  A    between atoms: C17_29  and  C2_14 
REMARK    8  A    between atoms: C2_14  and  C4_16 
REMARK    9  A    between atoms: C11_23  and  C4_16 
REMARK   10  A    between atoms: C22_34  and  C8_20 
REMARK   11  A    between atoms: C29_41  and  C30_42 
ROOT
HETATM    1  O1  UNK     1      28.606  -8.127  38.810  1.00  0.00    -0.304 OA
HETATM    2  O5  UNK     1      25.832  -5.192  38.328  1.00  0.00    -0.286 OA
HETATM    3  C1  UNK     1      26.274  -7.508  38.642  1.00  0.00     0.064 A 
HETATM    4  C5  UNK     1      28.101  -5.779  38.494  1.00  0.00     0.049 A 
HETATM    5  C6  UNK     1      29.001  -6.825  38.662  1.00  0.00     0.093 A 
HETATM    6  C7  UNK     1      26.663  -6.079  38.475  1.00  0.00     0.198 A 
HETATM    7  C8  UNK     1      27.250  -8.428  38.797  1.00  0.00     0.174 A 
HETATM    8  C14 UNK     1      30.839  -5.262  38.538  1.00  0.00     0.082 A 
HETATM    9  C15 UNK     1      30.373  -6.569  38.685  1.00  0.00     0.075 A 
HETATM   10  C16 UNK     1      28.563  -4.468  38.346  1.00  0.00     0.021 A 
HETATM   11  C19 UNK     1      29.934  -4.214  38.369  1.00  0.00     0.038 A 
ENDROOT
BRANCH   8  12
HETATM   12  O2  UNK     1      32.175  -5.010  38.559  1.00  0.00    -0.277 OA
BRANCH  12  13
HETATM   13  C17 UNK     1      32.790  -5.028  37.298  1.00  0.00     0.287 C 
HETATM   14  O6  UNK     1      32.538  -4.242  36.389  1.00  0.00    -0.262 OA
BRANCH  13  15
HETATM   15  C2  UNK     1      33.847  -6.120  37.174  1.00  0.00     0.191 C 
BRANCH  15  16
HETATM   16  N1  UNK     1      33.392  -7.239  36.390  1.00  0.00    -0.323 N 
HETATM   17  C25 UNK     1      32.785  -8.358  36.927  1.00  0.00     0.361 C 
HETATM   18  O8  UNK     1      32.556  -8.546  38.117  1.00  0.00    -0.238 OA
HETATM   19  H9  UNK     1      33.533  -7.214  35.384  1.00  0.00     0.165 HD
BRANCH  17  20
HETATM   20  O7  UNK     1      32.472  -9.239  35.929  1.00  0.00    -0.299 OA
BRANCH  20  21
HETATM   21  C29 UNK     1      31.967  -8.660  34.721  1.00  0.00     0.219 C 
BRANCH  21  22
HETATM   22  C30 UNK     1      30.518  -8.318  34.910  1.00  0.00    -0.034 A 
HETATM   23  C31 UNK     1      29.592  -9.327  35.173  1.00  0.00     0.009 A 
HETATM   24  C33 UNK     1      28.246  -9.009  35.349  1.00  0.00     0.001 A 
HETATM   25  C35 UNK     1      27.825  -7.682  35.262  1.00  0.00     0.000 A 
HETATM   26  C34 UNK     1      28.751  -6.673  34.999  1.00  0.00     0.001 A 
HETATM   27  C32 UNK     1      30.098  -6.991  34.823  1.00  0.00     0.009 A 
ENDBRANCH  21  22
ENDBRANCH  20  21
ENDBRANCH  17  20
ENDBRANCH  15  16
BRANCH  15  28
HETATM   28  C4  UNK     1      35.177  -5.569  36.642  1.00  0.00     0.074 C 
BRANCH  28  29
HETATM   29  C11 UNK     1      35.589  -6.110  35.291  1.00  0.00    -0.056 A 
HETATM   30  C23 UNK     1      36.606  -7.061  35.202  1.00  0.00     0.007 A 
HETATM   31  C26 UNK     1      36.984  -7.561  33.956  1.00  0.00     0.001 A 
HETATM   32  C28 UNK     1      36.348  -7.110  32.800  1.00  0.00     0.000 A 
HETATM   33  C27 UNK     1      35.330  -6.160  32.890  1.00  0.00     0.001 A 
HETATM   34  C24 UNK     1      34.951  -5.661  34.136  1.00  0.00     0.007 A 
ENDBRANCH  28  29
ENDBRANCH  15  28
ENDBRANCH  13  15
ENDBRANCH  12  13
ENDBRANCH   8  12
BRANCH   7  35
HETATM   35  C22 UNK     1      27.015  -9.903  38.976  1.00  0.00     0.440 C 
HETATM   36  F1  UNK     1      26.515 -10.445  37.851  1.00  0.00    -0.164 F 
HETATM   37  F2  UNK     1      28.166 -10.537  39.271  1.00  0.00    -0.164 F 
HETATM   38  F3  UNK     1      26.143 -10.133  39.975  1.00  0.00    -0.164 F 
ENDBRANCH   7  35
BRANCH   3  39
HETATM   39  C3  UNK     1      24.862  -7.869  38.635  1.00  0.00    -0.016 A 
HETATM   40  C10 UNK     1      24.297  -8.447  37.498  1.00  0.00     0.052 A 
HETATM   41  C9  UNK     1      22.947  -8.798  37.497  1.00  0.00     0.102 A 
HETATM   42  C12 UNK     1      22.157  -8.544  38.621  1.00  0.00     0.102 A 
HETATM   43  O3  UNK     1      22.454  -9.381  36.359  1.00  0.00    -0.346 OA
HETATM   44  O4  UNK     1      20.819  -8.836  38.670  1.00  0.00    -0.346 OA
HETATM   45  C18 UNK     1      22.727  -7.979  39.762  1.00  0.00     0.040 A 
HETATM   46  C21 UNK     1      20.277  -9.078  37.368  1.00  0.00     0.202 C 
HETATM   47  C20 UNK     1      21.187 -10.005  36.585  1.00  0.00     0.202 C 
HETATM   48  C13 UNK     1      24.080  -7.640  39.767  1.00  0.00     0.015 A 
ENDBRANCH   3  39
TORSDOF 11
ENDMDL
MODEL 5
REMARK VINA RESULT:      -9.9      4.441     10.881
REMARK  11 active torsions:
REMARK  status: ('A' for Active; 'I' for Inactive)
REMARK    1  A    between atoms: C14_26  and  O2_5 
REMARK    2  A    between atoms: C17_29  and  O2_5 
REMARK    3  A    between atoms: C25_37  and  O7_10 
REMARK    4  A    between atoms: C29_41  and  O7_10 
REMARK    5  A    between atoms: C2_14  and  N1_12 
REMARK       I    between atoms: C25_37  and  N1_12 
REMARK    6  A    between atoms: C1_13  and  C3_15 
REMARK    7  A    between atoms: C17_29  and  C2_14 
REMARK    8  A    between atoms: C2_14  and  C4_16 
REMARK    9  A    between atoms: C11_23  and  C4_16 
REMARK   10  A    between atoms: C22_34  and  C8_20 
REMARK   11  A    between atoms: C29_41  and  C30_42 
ROOT
HETATM    1  O1  UNK     1      25.193 -10.271  36.467  1.00  0.00    -0.304 OA
HETATM    2  O5  UNK     1      24.124  -7.021  38.667  1.00  0.00    -0.286 OA
HETATM    3  C1  UNK     1      23.429  -8.845  37.308  1.00  0.00     0.064 A 
HETATM    4  C5  UNK     1      25.847  -8.400  37.860  1.00  0.00     0.049 A 
HETATM    5  C6  UNK     1      26.150  -9.521  37.096  1.00  0.00     0.093 A 
HETATM    6  C7  UNK     1      24.441  -8.001  38.004  1.00  0.00     0.198 A 
HETATM    7  C8  UNK     1      23.858  -9.909  36.595  1.00  0.00     0.174 A 
HETATM    8  C14 UNK     1      28.499  -9.200  37.558  1.00  0.00     0.082 A 
HETATM    9  C15 UNK     1      27.477  -9.924  36.943  1.00  0.00     0.075 A 
HETATM   10  C16 UNK     1      26.867  -7.671  38.479  1.00  0.00     0.021 A 
HETATM   11  C19 UNK     1      28.193  -8.076  38.325  1.00  0.00     0.038 A 
ENDROOT
BRANCH   8  12
HETATM   12  O2  UNK     1      29.794  -9.590  37.409  1.00  0.00    -0.277 OA
BRANCH  12  13
HETATM   13  C17 UNK     1      30.716  -8.534  37.345  1.00  0.00     0.287 C 
HETATM   14  O6  UNK     1      31.369  -8.121  38.298  1.00  0.00    -0.262 OA
BRANCH  13  15
HETATM   15  C2  UNK     1      30.853  -7.959  35.940  1.00  0.00     0.191 C 
BRANCH  15  16
HETATM   16  N1  UNK     1      30.378  -8.864  34.925  1.00  0.00    -0.323 N 
HETATM   17  C25 UNK     1      31.169  -9.816  34.313  1.00  0.00     0.361 C 
HETATM   18  O8  UNK     1      32.356 -10.016  34.545  1.00  0.00    -0.238 OA
HETATM   19  H9  UNK     1      29.408  -8.794  34.632  1.00  0.00     0.165 HD
BRANCH  17  20
HETATM   20  O7  UNK     1      30.430 -10.513  33.398  1.00  0.00    -0.299 OA
BRANCH  20  21
HETATM   21  C29 UNK     1      29.174  -9.930  33.035  1.00  0.00     0.219 C 
BRANCH  21  22
HETATM   22  C30 UNK     1      29.293  -9.321  31.668  1.00  0.00    -0.034 A 
HETATM   23  C31 UNK     1      28.151  -9.113  30.895  1.00  0.00     0.009 A 
HETATM   24  C33 UNK     1      28.262  -8.547  29.625  1.00  0.00     0.001 A 
HETATM   25  C35 UNK     1      29.515  -8.187  29.129  1.00  0.00     0.000 A 
HETATM   26  C34 UNK     1      30.658  -8.393  29.903  1.00  0.00     0.001 A 
HETATM   27  C32 UNK     1      30.547  -8.961  31.173  1.00  0.00     0.009 A 
ENDBRANCH  21  22
ENDBRANCH  20  21
ENDBRANCH  17  20
ENDBRANCH  15  16
BRANCH  15  28
HETATM   28  C4  UNK     1      30.182  -6.582  35.819  1.00  0.00     0.074 C 
BRANCH  28  29
HETATM   29  C11 UNK     1      29.670  -6.250  34.436  1.00  0.00    -0.056 A 
HETATM   30  C23 UNK     1      30.548  -5.762  33.466  1.00  0.00     0.007 A 
HETATM   31  C26 UNK     1      30.076  -5.456  32.190  1.00  0.00     0.001 A 
HETATM   32  C28 UNK     1      28.728  -5.636  31.883  1.00  0.00     0.000 A 
HETATM   33  C27 UNK     1      27.851  -6.123  32.852  1.00  0.00     0.001 A 
HETATM   34  C24 UNK     1      28.322  -6.430  34.128  1.00  0.00     0.007 A 
ENDBRANCH  28  29
ENDBRANCH  15  28
ENDBRANCH  13  15
ENDBRANCH  12  13
ENDBRANCH   8  12
BRANCH   7  35
HETATM   35  C22 UNK     1      22.961 -10.851  35.840  1.00  0.00     0.440 C 
HETATM   36  F1  UNK     1      22.377 -10.223  34.803  1.00  0.00    -0.164 F 
HETATM   37  F2  UNK     1      23.663 -11.893  35.357  1.00  0.00    -0.164 F 
HETATM   38  F3  UNK     1      21.990 -11.333  36.637  1.00  0.00    -0.164 F 
ENDBRANCH   7  35
BRANCH   3  39
HETATM   39  C3  UNK     1      22.017  -8.501  37.415  1.00  0.00    -0.016 A 
HETATM   40  C10 UNK     1      21.364  -7.898  36.340  1.00  0.00     0.052 A 
HETATM   41  C9  UNK     1      20.010  -7.577  36.443  1.00  0.00     0.102 A 
HETATM   42  C12 UNK     1      19.319  -7.833  37.630  1.00  0.00     0.102 A 
HETATM   43  O3  UNK     1      19.419  -7.005  35.347  1.00  0.00    -0.346 OA
HETATM   44  O4  UNK     1      17.998  -7.513  37.804  1.00  0.00    -0.346 OA
HETATM   45  C18 UNK     1      19.970  -8.450  38.699  1.00  0.00     0.040 A 
HETATM   46  C21 UNK     1      17.536  -6.595  36.809  1.00  0.00     0.202 C 
HETATM   47  C20 UNK     1      17.991  -7.041  35.432  1.00  0.00     0.202 C 
HETATM   48  C13 UNK     1      21.320  -8.782  38.591  1.00  0.00     0.015 A 
ENDBRANCH   3  39
TORSDOF 11
ENDMDL
MODEL 6
REMARK VINA RESULT:      -9.9     14.624     19.945
REMARK  11 active torsions:
REMARK  status: ('A' for Active; 'I' for Inactive)
REMARK    1  A    between atoms: C14_26  and  O2_5 
REMARK    2  A    between atoms: C17_29  and  O2_5 
REMARK    3  A    between atoms: C25_37  and  O7_10 
REMARK    4  A    between atoms: C29_41  and  O7_10 
REMARK    5  A    between atoms: C2_14  and  N1_12 
REMARK       I    between atoms: C25_37  and  N1_12 
REMARK    6  A    between atoms: C1_13  and  C3_15 
REMARK    7  A    between atoms: C17_29  and  C2_14 
REMARK    8  A    between atoms: C2_14  and  C4_16 
REMARK    9  A    between atoms: C11_23  and  C4_16 
REMARK   10  A    between atoms: C22_34  and  C8_20 
REMARK   11  A    between atoms: C29_41  and  C30_42 
ROOT
HETATM    1  O1  UNK     1      17.951   9.747  33.703  1.00  0.00    -0.304 OA
HETATM    2  O5  UNK     1      13.975   9.133  33.104  1.00  0.00    -0.286 OA
HETATM    3  C1  UNK     1      15.701  10.634  33.755  1.00  0.00     0.064 A 
HETATM    4  C5  UNK     1      16.155   8.260  33.044  1.00  0.00     0.049 A 
HETATM    5  C6  UNK     1      17.501   8.530  33.267  1.00  0.00     0.093 A 
HETATM    6  C7  UNK     1      15.171   9.323  33.284  1.00  0.00     0.198 A 
HETATM    7  C8  UNK     1      17.033  10.764  33.933  1.00  0.00     0.174 A 
HETATM    8  C14 UNK     1      18.062   6.277  32.602  1.00  0.00     0.082 A 
HETATM    9  C15 UNK     1      18.458   7.539  33.045  1.00  0.00     0.075 A 
HETATM   10  C16 UNK     1      15.754   6.997  32.599  1.00  0.00     0.021 A 
HETATM   11  C19 UNK     1      16.712   6.008  32.379  1.00  0.00     0.038 A 
ENDROOT
BRANCH   8  12
HETATM   12  O2  UNK     1      18.993   5.309  32.386  1.00  0.00    -0.277 OA
BRANCH  12  13
HETATM   13  C17 UNK     1      18.862   4.637  31.161  1.00  0.00     0.287 C 
HETATM   14  O6  UNK     1      18.927   5.178  30.061  1.00  0.00    -0.262 OA
BRANCH  13  15
HETATM   15  C2  UNK     1      18.657   3.136  31.332  1.00  0.00     0.191 C 
BRANCH  15  16
HETATM   16  N1  UNK     1      17.804   2.821  32.449  1.00  0.00    -0.323 N 
HETATM   17  C25 UNK     1      18.007   1.745  33.292  1.00  0.00     0.361 C 
HETATM   18  O8  UNK     1      18.920   0.931  33.205  1.00  0.00    -0.238 OA
HETATM   19  H9  UNK     1      17.000   3.416  32.626  1.00  0.00     0.165 HD
BRANCH  17  20
HETATM   20  O7  UNK     1      17.032   1.716  34.249  1.00  0.00    -0.299 OA
BRANCH  20  21
HETATM   21  C29 UNK     1      16.479   0.428  34.540  1.00  0.00     0.219 C 
BRANCH  21  22
HETATM   22  C30 UNK     1      17.062  -0.076  35.828  1.00  0.00    -0.034 A 
HETATM   23  C31 UNK     1      17.500  -1.396  35.925  1.00  0.00     0.009 A 
HETATM   24  C33 UNK     1      18.042  -1.864  37.123  1.00  0.00     0.001 A 
HETATM   25  C35 UNK     1      18.146  -1.012  38.222  1.00  0.00     0.000 A 
HETATM   26  C34 UNK     1      17.709   0.309  38.124  1.00  0.00     0.001 A 
HETATM   27  C32 UNK     1      17.166   0.778  36.926  1.00  0.00     0.009 A 
ENDBRANCH  21  22
ENDBRANCH  20  21
ENDBRANCH  17  20
ENDBRANCH  15  16
BRANCH  15  28
HETATM   28  C4  UNK     1      18.150   2.479  30.040  1.00  0.00     0.074 C 
BRANCH  28  29
HETATM   29  C11 UNK     1      18.923   1.252  29.612  1.00  0.00    -0.056 A 
HETATM   30  C23 UNK     1      19.992   0.797  30.385  1.00  0.00     0.007 A 
HETATM   31  C26 UNK     1      20.705  -0.336  29.990  1.00  0.00     0.001 A 
HETATM   32  C28 UNK     1      20.350  -1.012  28.824  1.00  0.00     0.000 A 
HETATM   33  C27 UNK     1      19.281  -0.557  28.052  1.00  0.00     0.001 A 
HETATM   34  C24 UNK     1      18.567   0.575  28.446  1.00  0.00     0.007 A 
ENDBRANCH  28  29
ENDBRANCH  15  28
ENDBRANCH  13  15
ENDBRANCH  12  13
ENDBRANCH   8  12
BRANCH   7  35
HETATM   35  C22 UNK     1      17.715  12.020  34.402  1.00  0.00     0.440 C 
HETATM   36  F1  UNK     1      19.031  11.807  34.586  1.00  0.00    -0.164 F 
HETATM   37  F2  UNK     1      17.574  13.007  33.496  1.00  0.00    -0.164 F 
HETATM   38  F3  UNK     1      17.193  12.444  35.567  1.00  0.00    -0.164 F 
ENDBRANCH   7  35
BRANCH   3  39
HETATM   39  C3  UNK     1      14.774  11.729  34.009  1.00  0.00    -0.016 A 
HETATM   40  C10 UNK     1      14.412  12.590  32.972  1.00  0.00     0.052 A 
HETATM   41  C9  UNK     1      13.518  13.633  33.216  1.00  0.00     0.102 A 
HETATM   42  C12 UNK     1      13.011  13.832  34.502  1.00  0.00     0.102 A 
HETATM   43  O3  UNK     1      13.185  14.431  32.154  1.00  0.00    -0.346 OA
HETATM   44  O4  UNK     1      12.155  14.856  34.814  1.00  0.00    -0.346 OA
HETATM   45  C18 UNK     1      13.363  12.962  35.536  1.00  0.00     0.040 A 
HETATM   46  C21 UNK     1      12.138  15.864  33.798  1.00  0.00     0.202 C 
HETATM   47  C20 UNK     1      12.027  15.225  32.427  1.00  0.00     0.202 C 
HETATM   48  C13 UNK     1      14.247  11.912  35.288  1.00  0.00     0.015 A 
ENDBRANCH   3  39
TORSDOF 11
ENDMDL
MODEL 7
REMARK VINA RESULT:      -9.9      2.189      2.638
REMARK  11 active torsions:
REMARK  status: ('A' for Active; 'I' for Inactive)
REMARK    1  A    between atoms: C14_26  and  O2_5 
REMARK    2  A    between atoms: C17_29  and  O2_5 
REMARK    3  A    between atoms: C25_37  and  O7_10 
REMARK    4  A    between atoms: C29_41  and  O7_10 
REMARK    5  A    between atoms: C2_14  and  N1_12 
REMARK       I    between atoms: C25_37  and  N1_12 
REMARK    6  A    between atoms: C1_13  and  C3_15 
REMARK    7  A    between atoms: C17_29  and  C2_14 
REMARK    8  A    between atoms: C2_14  and  C4_16 
REMARK    9  A    between atoms: C11_23  and  C4_16 
REMARK   10  A    between atoms: C22_34  and  C8_20 
REMARK   11  A    between atoms: C29_41  and  C30_42 
ROOT
HETATM    1  O1  UNK     1      28.218  -5.705  38.718  1.00  0.00    -0.304 OA
HETATM    2  O5  UNK     1      29.692  -8.912  36.696  1.00  0.00    -0.286 OA
HETATM    3  C1  UNK     1      30.090  -6.746  37.594  1.00  0.00     0.064 A 
HETATM    4  C5  UNK     1      27.866  -7.915  37.789  1.00  0.00     0.049 A 
HETATM    5  C6  UNK     1      27.420  -6.791  38.474  1.00  0.00     0.093 A 
HETATM    6  C7  UNK     1      29.253  -7.945  37.305  1.00  0.00     0.198 A 
HETATM    7  C8  UNK     1      29.533  -5.718  38.270  1.00  0.00     0.174 A 
HETATM    8  C14 UNK     1      25.245  -7.810  38.728  1.00  0.00     0.082 A 
HETATM    9  C15 UNK     1      26.108  -6.735  38.946  1.00  0.00     0.075 A 
HETATM   10  C16 UNK     1      27.006  -8.994  37.568  1.00  0.00     0.021 A 
HETATM   11  C19 UNK     1      25.695  -8.937  38.040  1.00  0.00     0.038 A 
ENDROOT
BRANCH   8  12
HETATM   12  O2  UNK     1      23.965  -7.758  39.186  1.00  0.00    -0.277 OA
BRANCH  12  13
HETATM   13  C17 UNK     1      23.341  -6.511  39.027  1.00  0.00     0.287 C 
HETATM   14  O6  UNK     1      23.802  -5.446  39.424  1.00  0.00    -0.262 OA
BRANCH  13  15
HETATM   15  C2  UNK     1      22.021  -6.607  38.270  1.00  0.00     0.191 C 
BRANCH  15  16
HETATM   16  N1  UNK     1      21.692  -5.386  37.580  1.00  0.00    -0.323 N 
HETATM   17  C25 UNK     1      20.428  -5.084  37.112  1.00  0.00     0.361 C 
HETATM   18  O8  UNK     1      19.436  -5.798  37.218  1.00  0.00    -0.238 OA
HETATM   19  H9  UNK     1      22.432  -4.709  37.417  1.00  0.00     0.165 HD
BRANCH  17  20
HETATM   20  O7  UNK     1      20.440  -3.859  36.505  1.00  0.00    -0.299 OA
BRANCH  20  21
HETATM   21  C29 UNK     1      19.798  -2.800  37.224  1.00  0.00     0.219 C 
BRANCH  21  22
HETATM   22  C30 UNK     1      18.943  -2.011  36.276  1.00  0.00    -0.034 A 
HETATM   23  C31 UNK     1      19.416  -1.708  34.999  1.00  0.00     0.009 A 
HETATM   24  C33 UNK     1      18.621  -0.975  34.118  1.00  0.00     0.001 A 
HETATM   25  C35 UNK     1      17.354  -0.546  34.513  1.00  0.00     0.000 A 
HETATM   26  C34 UNK     1      16.881  -0.851  35.789  1.00  0.00     0.001 A 
HETATM   27  C32 UNK     1      17.676  -1.583  36.671  1.00  0.00     0.009 A 
ENDBRANCH  21  22
ENDBRANCH  20  21
ENDBRANCH  17  20
ENDBRANCH  15  16
BRANCH  15  28
HETATM   28  C4  UNK     1      21.995  -7.811  37.318  1.00  0.00     0.074 C 
BRANCH  28  29
HETATM   29  C11 UNK     1      21.067  -8.928  37.738  1.00  0.00    -0.056 A 
HETATM   30  C23 UNK     1      20.831 -10.000  36.876  1.00  0.00     0.007 A 
HETATM   31  C26 UNK     1      19.976 -11.031  37.265  1.00  0.00     0.001 A 
HETATM   32  C28 UNK     1      19.355 -10.990  38.513  1.00  0.00     0.000 A 
HETATM   33  C27 UNK     1      19.592  -9.919  39.375  1.00  0.00     0.001 A 
HETATM   34  C24 UNK     1      20.448  -8.888  38.987  1.00  0.00     0.007 A 
ENDBRANCH  28  29
ENDBRANCH  15  28
ENDBRANCH  13  15
ENDBRANCH  12  13
ENDBRANCH   8  12
BRANCH   7  35
HETATM   35  C22 UNK     1      30.247  -4.446  38.634  1.00  0.00     0.440 C 
HETATM   36  F1  UNK     1      31.507  -4.704  39.032  1.00  0.00    -0.164 F 
HETATM   37  F2  UNK     1      30.304  -3.612  37.579  1.00  0.00    -0.164 F 
HETATM   38  F3  UNK     1      29.614  -3.810  39.637  1.00  0.00    -0.164 F 
ENDBRANCH   7  35
BRANCH   3  39
HETATM   39  C3  UNK     1      31.475  -6.717  37.142  1.00  0.00    -0.016 A 
HETATM   40  C10 UNK     1      31.806  -6.068  35.952  1.00  0.00     0.052 A 
HETATM   41  C9  UNK     1      33.134  -6.036  35.526  1.00  0.00     0.102 A 
HETATM   42  C12 UNK     1      34.125  -6.676  36.274  1.00  0.00     0.102 A 
HETATM   43  O3  UNK     1      33.400  -5.366  34.361  1.00  0.00    -0.346 OA
HETATM   44  O4  UNK     1      35.441  -6.707  35.894  1.00  0.00    -0.346 OA
HETATM   45  C18 UNK     1      33.794  -7.313  37.472  1.00  0.00     0.040 A 
HETATM   46  C21 UNK     1      35.607  -6.342  34.520  1.00  0.00     0.202 C 
HETATM   47  C20 UNK     1      34.797  -5.099  34.206  1.00  0.00     0.202 C 
HETATM   48  C13 UNK     1      32.468  -7.334  37.904  1.00  0.00     0.015 A 
ENDBRANCH   3  39
TORSDOF 11
ENDMDL
MODEL 8
REMARK VINA RESULT:      -9.7      3.413     10.833
REMARK  11 active torsions:
REMARK  status: ('A' for Active; 'I' for Inactive)
REMARK    1  A    between atoms: C14_26  and  O2_5 
REMARK    2  A    between atoms: C17_29  and  O2_5 
REMARK    3  A    between atoms: C25_37  and  O7_10 
REMARK    4  A    between atoms: C29_41  and  O7_10 
REMARK    5  A    between atoms: C2_14  and  N1_12 
REMARK       I    between atoms: C25_37  and  N1_12 
REMARK    6  A    between atoms: C1_13  and  C3_15 
REMARK    7  A    between atoms: C17_29  and  C2_14 
REMARK    8  A    between atoms: C2_14  and  C4_16 
REMARK    9  A    between atoms: C11_23  and  C4_16 
REMARK   10  A    between atoms: C22_34  and  C8_20 
REMARK   11  A    between atoms: C29_41  and  C30_42 
ROOT
HETATM    1  O1  UNK     1      28.461  -8.122  38.677  1.00  0.00    -0.304 OA
HETATM    2  O5  UNK     1      25.618  -5.222  38.450  1.00  0.00    -0.286 OA
HETATM    3  C1  UNK     1      26.113  -7.541  38.635  1.00  0.00     0.064 A 
HETATM    4  C5  UNK     1      27.902  -5.772  38.494  1.00  0.00     0.049 A 
HETATM    5  C6  UNK     1      28.826  -6.807  38.576  1.00  0.00     0.093 A 
HETATM    6  C7  UNK     1      26.470  -6.098  38.520  1.00  0.00     0.198 A 
HETATM    7  C8  UNK     1      27.111  -8.449  38.705  1.00  0.00     0.174 A 
HETATM    8  C14 UNK     1      30.630  -5.205  38.451  1.00  0.00     0.082 A 
HETATM    9  C15 UNK     1      30.193  -6.526  38.555  1.00  0.00     0.075 A 
HETATM   10  C16 UNK     1      28.334  -4.447  38.390  1.00  0.00     0.021 A 
HETATM   11  C19 UNK     1      29.700  -4.168  38.370  1.00  0.00     0.038 A 
ENDROOT
BRANCH   8  12
HETATM   12  O2  UNK     1      31.961  -4.928  38.430  1.00  0.00    -0.277 OA
BRANCH  12  13
HETATM   13  C17 UNK     1      32.434  -4.439  37.202  1.00  0.00     0.287 C 
HETATM   14  O6  UNK     1      32.234  -3.303  36.782  1.00  0.00    -0.262 OA
BRANCH  13  15
HETATM   15  C2  UNK     1      33.262  -5.466  36.439  1.00  0.00     0.191 C 
BRANCH  15  16
HETATM   16  N1  UNK     1      32.450  -6.338  35.631  1.00  0.00    -0.323 N 
HETATM   17  C25 UNK     1      32.352  -7.702  35.830  1.00  0.00     0.361 C 
HETATM   18  O8  UNK     1      32.929  -8.340  36.703  1.00  0.00    -0.238 OA
HETATM   19  H9  UNK     1      31.925  -5.933  34.861  1.00  0.00     0.165 HD
BRANCH  17  20
HETATM   20  O7  UNK     1      31.507  -8.245  34.903  1.00  0.00    -0.299 OA
BRANCH  20  21
HETATM   21  C29 UNK     1      30.126  -8.304  35.275  1.00  0.00     0.219 C 
BRANCH  21  22
HETATM   22  C30 UNK     1      29.286  -7.843  34.119  1.00  0.00    -0.034 A 
HETATM   23  C31 UNK     1      29.060  -8.695  33.039  1.00  0.00     0.009 A 
HETATM   24  C33 UNK     1      28.280  -8.267  31.965  1.00  0.00     0.001 A 
HETATM   25  C35 UNK     1      27.725  -6.987  31.972  1.00  0.00     0.000 A 
HETATM   26  C34 UNK     1      27.951  -6.135  33.054  1.00  0.00     0.001 A 
HETATM   27  C32 UNK     1      28.732  -6.563  34.127  1.00  0.00     0.009 A 
ENDBRANCH  21  22
ENDBRANCH  20  21
ENDBRANCH  17  20
ENDBRANCH  15  16
BRANCH  15  28
HETATM   28  C4  UNK     1      34.368  -4.802  35.606  1.00  0.00     0.074 C 
BRANCH  28  29
HETATM   29  C11 UNK     1      35.205  -5.761  34.790  1.00  0.00    -0.056 A 
HETATM   30  C23 UNK     1      36.065  -6.655  35.430  1.00  0.00     0.007 A 
HETATM   31  C26 UNK     1      36.836  -7.541  34.677  1.00  0.00     0.001 A 
HETATM   32  C28 UNK     1      36.748  -7.533  33.285  1.00  0.00     0.000 A 
HETATM   33  C27 UNK     1      35.888  -6.639  32.646  1.00  0.00     0.001 A 
HETATM   34  C24 UNK     1      35.116  -5.755  33.398  1.00  0.00     0.007 A 
ENDBRANCH  28  29
ENDBRANCH  15  28
ENDBRANCH  13  15
ENDBRANCH  12  13
ENDBRANCH   8  12
BRANCH   7  35
HETATM   35  C22 UNK     1      26.910  -9.934  38.823  1.00  0.00     0.440 C 
HETATM   36  F1  UNK     1      26.122 -10.226  39.875  1.00  0.00    -0.164 F 
HETATM   37  F2  UNK     1      26.327 -10.427  37.714  1.00  0.00    -0.164 F 
HETATM   38  F3  UNK     1      28.086 -10.567  38.993  1.00  0.00    -0.164 F 
ENDBRANCH   7  35
BRANCH   3  39
HETATM   39  C3  UNK     1      24.709  -7.929  38.668  1.00  0.00    -0.016 A 
HETATM   40  C10 UNK     1      24.081  -8.373  37.505  1.00  0.00     0.052 A 
HETATM   41  C9  UNK     1      22.739  -8.750  37.541  1.00  0.00     0.102 A 
HETATM   42  C12 UNK     1      22.018  -8.655  38.734  1.00  0.00     0.102 A 
HETATM   43  O3  UNK     1      22.184  -9.198  36.371  1.00  0.00    -0.346 OA
HETATM   44  O4  UNK     1      20.690  -8.980  38.828  1.00  0.00    -0.346 OA
HETATM   45  C18 UNK     1      22.650  -8.224  39.900  1.00  0.00     0.040 A 
HETATM   46  C21 UNK     1      20.071  -9.069  37.541  1.00  0.00     0.202 C 
HETATM   47  C20 UNK     1      20.942  -9.872  36.594  1.00  0.00     0.202 C 
HETATM   48  C13 UNK     1      23.996  -7.859  39.866  1.00  0.00     0.015 A 
ENDBRANCH   3  39
TORSDOF 11
ENDMDL
MODEL 9
REMARK VINA RESULT:      -9.7      3.909     11.298
REMARK  11 active torsions:
REMARK  status: ('A' for Active; 'I' for Inactive)
REMARK    1  A    between atoms: C14_26  and  O2_5 
REMARK    2  A    between atoms: C17_29  and  O2_5 
REMARK    3  A    between atoms: C25_37  and  O7_10 
REMARK    4  A    between atoms: C29_41  and  O7_10 
REMARK    5  A    between atoms: C2_14  and  N1_12 
REMARK       I    between atoms: C25_37  and  N1_12 
REMARK    6  A    between atoms: C1_13  and  C3_15 
REMARK    7  A    between atoms: C17_29  and  C2_14 
REMARK    8  A    between atoms: C2_14  and  C4_16 
REMARK    9  A    between atoms: C11_23  and  C4_16 
REMARK   10  A    between atoms: C22_34  and  C8_20 
REMARK   11  A    between atoms: C29_41  and  C30_42 
ROOT
HETATM    1  O1  UNK     1      25.198 -10.247  36.514  1.00  0.00    -0.304 OA
HETATM    2  O5  UNK     1      24.076  -7.004  38.698  1.00  0.00    -0.286 OA
HETATM    3  C1  UNK     1      23.412  -8.834  37.332  1.00  0.00     0.064 A 
HETATM    4  C5  UNK     1      25.819  -8.370  37.914  1.00  0.00     0.049 A 
HETATM    5  C6  UNK     1      26.140  -9.489  37.154  1.00  0.00     0.093 A 
HETATM    6  C7  UNK     1      24.409  -7.982  38.040  1.00  0.00     0.198 A 
HETATM    7  C8  UNK     1      23.858  -9.895  36.625  1.00  0.00     0.174 A 
HETATM    8  C14 UNK     1      28.481  -9.149  37.645  1.00  0.00     0.082 A 
HETATM    9  C15 UNK     1      27.473  -9.881  37.017  1.00  0.00     0.075 A 
HETATM   10  C16 UNK     1      26.826  -7.632  38.544  1.00  0.00     0.021 A 
HETATM   11  C19 UNK     1      28.157  -8.026  38.407  1.00  0.00     0.038 A 
ENDROOT
BRANCH   8  12
HETATM   12  O2  UNK     1      29.781  -9.528  37.512  1.00  0.00    -0.277 OA
BRANCH  12  13
HETATM   13  C17 UNK     1      30.276  -9.459  36.202  1.00  0.00     0.287 C 
HETATM   14  O6  UNK     1      30.625 -10.430  35.537  1.00  0.00    -0.262 OA
BRANCH  13  15
HETATM   15  C2  UNK     1      30.312  -8.034  35.661  1.00  0.00     0.191 C 
BRANCH  15  16
HETATM   16  N1  UNK     1      31.206  -7.185  36.405  1.00  0.00    -0.323 N 
HETATM   17  C25 UNK     1      30.864  -5.930  36.872  1.00  0.00     0.361 C 
HETATM   18  O8  UNK     1      29.778  -5.382  36.719  1.00  0.00    -0.238 OA
HETATM   19  H9  UNK     1      32.147  -7.519  36.592  1.00  0.00     0.165 HD
BRANCH  17  20
HETATM   20  O7  UNK     1      31.924  -5.379  37.537  1.00  0.00    -0.299 OA
BRANCH  20  21
HETATM   21  C29 UNK     1      32.660  -4.382  36.821  1.00  0.00     0.219 C 
BRANCH  21  22
HETATM   22  C30 UNK     1      33.723  -5.051  36.001  1.00  0.00    -0.034 A 
HETATM   23  C31 UNK     1      33.683  -4.973  34.609  1.00  0.00     0.009 A 
HETATM   24  C33 UNK     1      34.671  -5.596  33.846  1.00  0.00     0.001 A 
HETATM   25  C35 UNK     1      35.701  -6.296  34.476  1.00  0.00     0.000 A 
HETATM   26  C34 UNK     1      35.742  -6.372  35.868  1.00  0.00     0.001 A 
HETATM   27  C32 UNK     1      34.753  -5.751  36.631  1.00  0.00     0.009 A 
ENDBRANCH  21  22
ENDBRANCH  20  21
ENDBRANCH  17  20
ENDBRANCH  15  16
BRANCH  15  28
HETATM   28  C4  UNK     1      30.632  -8.002  34.159  1.00  0.00     0.074 C 
BRANCH  28  29
HETATM   29  C11 UNK     1      29.476  -7.585  33.277  1.00  0.00    -0.056 A 
HETATM   30  C23 UNK     1      28.783  -6.404  33.547  1.00  0.00     0.007 A 
HETATM   31  C26 UNK     1      27.718  -6.020  32.733  1.00  0.00     0.001 A 
HETATM   32  C28 UNK     1      27.344  -6.816  31.651  1.00  0.00     0.000 A 
HETATM   33  C27 UNK     1      28.037  -7.996  31.381  1.00  0.00     0.001 A 
HETATM   34  C24 UNK     1      29.103  -8.380  32.194  1.00  0.00     0.007 A 
ENDBRANCH  28  29
ENDBRANCH  15  28
ENDBRANCH  13  15
ENDBRANCH  12  13
ENDBRANCH   8  12
BRANCH   7  35
HETATM   35  C22 UNK     1      22.978 -10.844  35.859  1.00  0.00     0.440 C 
HETATM   36  F1  UNK     1      22.401 -10.222  34.815  1.00  0.00    -0.164 F 
HETATM   37  F2  UNK     1      23.694 -11.882  35.385  1.00  0.00    -0.164 F 
HETATM   38  F3  UNK     1      22.002 -11.335  36.645  1.00  0.00    -0.164 F 
ENDBRANCH   7  35
BRANCH   3  39
HETATM   39  C3  UNK     1      21.996  -8.502  37.421  1.00  0.00    -0.016 A 
HETATM   40  C10 UNK     1      21.348  -7.918  36.333  1.00  0.00     0.052 A 
HETATM   41  C9  UNK     1      19.990  -7.607  36.419  1.00  0.00     0.102 A 
HETATM   42  C12 UNK     1      19.290  -7.855  37.602  1.00  0.00     0.102 A 
HETATM   43  O3  UNK     1      19.405  -7.054  35.310  1.00  0.00    -0.346 OA
HETATM   44  O4  UNK     1      17.965  -7.544  37.760  1.00  0.00    -0.346 OA
HETATM   45  C18 UNK     1      19.936  -8.453  38.685  1.00  0.00     0.040 A 
HETATM   46  C21 UNK     1      17.504  -6.643  36.749  1.00  0.00     0.202 C 
HETATM   47  C20 UNK     1      17.977  -7.101  35.382  1.00  0.00     0.202 C 
HETATM   48  C13 UNK     1      21.291  -8.774  38.593  1.00  0.00     0.015 A 
ENDBRANCH   3  39
TORSDOF 11
ENDMDL
MODEL 10
REMARK VINA RESULT:      -9.7      4.634     10.809
REMARK  11 active torsions:
REMARK  status: ('A' for Active; 'I' for Inactive)
REMARK    1  A    between atoms: C14_26  and  O2_5 
REMARK    2  A    between atoms: C17_29  and  O2_5 
REMARK    3  A    between atoms: C25_37  and  O7_10 
REMARK    4  A    between atoms: C29_41  and  O7_10 
REMARK    5  A    between atoms: C2_14  and  N1_12 
REMARK       I    between atoms: C25_37  and  N1_12 
REMARK    6  A    between atoms: C1_13  and  C3_15 
REMARK    7  A    between atoms: C17_29  and  C2_14 
REMARK    8  A    between atoms: C2_14  and  C4_16 
REMARK    9  A    between atoms: C11_23  and  C4_16 
REMARK   10  A    between atoms: C22_34  and  C8_20 
REMARK   11  A    between atoms: C29_41  and  C30_42 
ROOT
HETATM    1  O1  UNK     1      25.210 -10.166  36.625  1.00  0.00    -0.304 OA
HETATM    2  O5  UNK     1      24.053  -6.933  38.806  1.00  0.00    -0.286 OA
HETATM    3  C1  UNK     1      23.412  -8.753  37.415  1.00  0.00     0.064 A 
HETATM    4  C5  UNK     1      25.808  -8.300  38.049  1.00  0.00     0.049 A 
HETATM    5  C6  UNK     1      26.141  -9.415  37.288  1.00  0.00     0.093 A 
HETATM    6  C7  UNK     1      24.396  -7.908  38.149  1.00  0.00     0.198 A 
HETATM    7  C8  UNK     1      23.869  -9.811  36.711  1.00  0.00     0.174 A 
HETATM    8  C14 UNK     1      28.473  -9.085  37.828  1.00  0.00     0.082 A 
HETATM    9  C15 UNK     1      27.475  -9.811  37.177  1.00  0.00     0.075 A 
HETATM   10  C16 UNK     1      26.804  -7.569  38.703  1.00  0.00     0.021 A 
HETATM   11  C19 UNK     1      28.136  -7.966  38.591  1.00  0.00     0.038 A 
ENDROOT
BRANCH   8  12
HETATM   12  O2  UNK     1      29.773  -9.468  37.720  1.00  0.00    -0.277 OA
BRANCH  12  13
HETATM   13  C17 UNK     1      30.543  -8.675  36.856  1.00  0.00     0.287 C 
HETATM   14  O6  UNK     1      31.335  -7.812  37.223  1.00  0.00    -0.262 OA
BRANCH  13  15
HETATM   15  C2  UNK     1      30.319  -9.017  35.387  1.00  0.00     0.191 C 
BRANCH  15  16
HETATM   16  N1  UNK     1      30.274  -7.846  34.549  1.00  0.00    -0.323 N 
HETATM   17  C25 UNK     1      29.157  -7.046  34.407  1.00  0.00     0.361 C 
HETATM   18  O8  UNK     1      28.077  -7.218  34.962  1.00  0.00    -0.238 OA
HETATM   19  H9  UNK     1      31.106  -7.597  34.023  1.00  0.00     0.165 HD
BRANCH  17  20
HETATM   20  O7  UNK     1      29.431  -6.019  33.547  1.00  0.00    -0.299 OA
BRANCH  20  21
HETATM   21  C29 UNK     1      28.426  -5.741  32.566  1.00  0.00     0.219 C 
BRANCH  21  22
HETATM   22  C30 UNK     1      28.561  -6.718  31.435  1.00  0.00    -0.034 A 
HETATM   23  C31 UNK     1      27.554  -7.654  31.198  1.00  0.00     0.009 A 
HETATM   24  C33 UNK     1      27.679  -8.562  30.147  1.00  0.00     0.001 A 
HETATM   25  C35 UNK     1      28.811  -8.535  29.332  1.00  0.00     0.000 A 
HETATM   26  C34 UNK     1      29.818  -7.598  29.568  1.00  0.00     0.001 A 
HETATM   27  C32 UNK     1      29.693  -6.689  30.620  1.00  0.00     0.009 A 
ENDBRANCH  21  22
ENDBRANCH  20  21
ENDBRANCH  17  20
ENDBRANCH  15  16
BRANCH  15  28
HETATM   28  C4  UNK     1      31.351 -10.032  34.874  1.00  0.00     0.074 C 
BRANCH  28  29
HETATM   29  C11 UNK     1      31.254 -10.337  33.396  1.00  0.00    -0.056 A 
HETATM   30  C23 UNK     1      32.277  -9.940  32.533  1.00  0.00     0.007 A 
HETATM   31  C26 UNK     1      32.187 -10.223  31.170  1.00  0.00     0.001 A 
HETATM   32  C28 UNK     1      31.076 -10.901  30.670  1.00  0.00     0.000 A 
HETATM   33  C27 UNK     1      30.054 -11.298  31.533  1.00  0.00     0.001 A 
HETATM   34  C24 UNK     1      30.144 -11.016  32.896  1.00  0.00     0.007 A 
ENDBRANCH  28  29
ENDBRANCH  15  28
ENDBRANCH  13  15
ENDBRANCH  12  13
ENDBRANCH   8  12
BRANCH   7  35
HETATM   35  C22 UNK     1      23.002 -10.753  35.922  1.00  0.00     0.440 C 
HETATM   36  F1  UNK     1      23.720 -11.801  35.477  1.00  0.00    -0.164 F 
HETATM   37  F2  UNK     1      21.997 -11.227  36.683  1.00  0.00    -0.164 F 
HETATM   38  F3  UNK     1      22.463 -10.132  34.857  1.00  0.00    -0.164 F 
ENDBRANCH   7  35
BRANCH   3  39
HETATM   39  C3  UNK     1      21.996  -8.417  37.478  1.00  0.00    -0.016 A 
HETATM   40  C10 UNK     1      21.358  -7.876  36.362  1.00  0.00     0.052 A 
HETATM   41  C9  UNK     1      20.000  -7.562  36.423  1.00  0.00     0.102 A 
HETATM   42  C12 UNK     1      19.288  -7.763  37.608  1.00  0.00     0.102 A 
HETATM   43  O3  UNK     1      19.425  -7.052  35.288  1.00  0.00    -0.346 OA
HETATM   44  O4  UNK     1      17.962  -7.446  37.741  1.00  0.00    -0.346 OA
HETATM   45  C18 UNK     1      19.924  -8.318  38.719  1.00  0.00     0.040 A 
HETATM   46  C21 UNK     1      17.511  -6.585  36.691  1.00  0.00     0.202 C 
HETATM   47  C20 UNK     1      17.996  -7.096  35.348  1.00  0.00     0.202 C 
HETATM   48  C13 UNK     1      21.279  -8.643  38.654  1.00  0.00     0.015 A 
ENDBRANCH   3  39
TORSDOF 11
ENDMDL
