MODEL 1
REMARK VINA RESULT:      -9.4      0.000      0.000
REMARK  4 active torsions:
REMARK  status: ('A' for Active; 'I' for Inactive)
REMARK    1  A    between atoms: C10_17  and  O1_2 
REMARK       I    between atoms: C11_18  and  N1_7 
REMARK    2  A    between atoms: C9_16  and  N1_7 
REMARK    3  A    between atoms: C10_17  and  C8_15 
REMARK    4  A    between atoms: C11_18  and  C12_19 
ROOT
HETATM    1  O3  UNK     1      18.472   5.170  30.435  1.00  0.00    -0.267 OA
HETATM    2  N1  UNK     1      17.471   4.954  32.568  1.00  0.00    -0.316 N 
HETATM    3  C11 UNK     1      18.153   4.521  31.423  1.00  0.00     0.262 C 
HETATM    4  H11 UNK     1      17.297   4.286  33.314  1.00  0.00     0.169 HD
ENDROOT
BRANCH   2   5
HETATM    5  C9  UNK     1      17.014   6.220  32.818  1.00  0.00     0.094 A 
HETATM    6  C8  UNK     1      17.633   7.320  33.369  1.00  0.00     0.080 A 
HETATM    7  C5  UNK     1      16.764   8.450  33.441  1.00  0.00    -0.026 A 
HETATM    8  C4  UNK     1      17.111   9.808  33.963  1.00  0.00     0.041 C 
HETATM    9  C6  UNK     1      15.514   8.155  32.932  1.00  0.00    -0.008 A 
HETATM   10  C2  UNK     1      15.855  10.651  34.243  1.00  0.00     0.009 C 
HETATM   11  C1  UNK     1      14.837  10.560  33.086  1.00  0.00    -0.014 C 
HETATM   12  C3  UNK     1      14.357   9.104  32.881  1.00  0.00     0.051 C 
HETATM   13  C7  UNK     1      13.648  11.484  33.336  1.00  0.00     0.010 C 
HETATM   14  S1  UNK     1      15.388   6.546  32.387  1.00  0.00    -0.075 SA
BRANCH   6  15
HETATM   15  C10 UNK     1      19.008   7.294  33.805  1.00  0.00     0.296 C 
HETATM   16  O2  UNK     1      19.397   7.357  34.980  1.00  0.00    -0.259 OA
BRANCH  15  17
HETATM   17  O1  UNK     1      19.876   7.187  32.744  1.00  0.00    -0.322 OA
HETATM   18  C16 UNK     1      21.006   6.325  32.919  1.00  0.00     0.213 C 
ENDBRANCH  15  17
ENDBRANCH   6  15
ENDBRANCH   2   5
BRANCH   3  19
HETATM   19  C12 UNK     1      18.501   3.086  31.483  1.00  0.00     0.108 A 
HETATM   20  C13 UNK     1      18.970   2.543  30.353  1.00  0.00     0.037 A 
HETATM   21  C14 UNK     1      19.338   1.137  30.312  1.00  0.00    -0.001 A 
HETATM   22  C17 UNK     1      19.195   0.370  31.465  1.00  0.00     0.089 A 
HETATM   23  C18 UNK     1      19.832   0.529  29.156  1.00  0.00     0.014 A 
HETATM   24  O4  UNK     1      18.702   0.947  32.652  1.00  0.00    -0.274 OA
HETATM   25  C19 UNK     1      19.530  -0.982  31.493  1.00  0.00     0.038 A 
HETATM   26  C15 UNK     1      18.341   2.289  32.721  1.00  0.00     0.304 A 
HETATM   27  O5  UNK     1      17.911   2.782  33.758  1.00  0.00    -0.259 OA
HETATM   28  C21 UNK     1      20.021  -1.581  30.334  1.00  0.00     0.003 A 
HETATM   29  C20 UNK     1      20.172  -0.827  29.168  1.00  0.00     0.001 A 
ENDBRANCH   3  19
TORSDOF 4
ENDMDL
MODEL 2
REMARK VINA RESULT:      -9.3      1.856      8.769
REMARK  4 active torsions:
REMARK  status: ('A' for Active; 'I' for Inactive)
REMARK    1  A    between atoms: C10_17  and  O1_2 
REMARK       I    between atoms: C11_18  and  N1_7 
REMARK    2  A    between atoms: C9_16  and  N1_7 
REMARK    3  A    between atoms: C10_17  and  C8_15 
REMARK    4  A    between atoms: C11_18  and  C12_19 
ROOT
HETATM    1  O3  UNK     1      19.378   5.491  32.861  1.00  0.00    -0.267 OA
HETATM    2  N1  UNK     1      17.625   4.319  31.789  1.00  0.00    -0.316 N 
HETATM    3  C11 UNK     1      18.251   5.421  32.386  1.00  0.00     0.262 C 
HETATM    4  H11 UNK     1      16.682   4.431  31.426  1.00  0.00     0.169 HD
ENDROOT
BRANCH   2   5
HETATM    5  C9  UNK     1      18.158   3.071  31.611  1.00  0.00     0.094 A 
HETATM    6  C8  UNK     1      18.310   2.012  32.479  1.00  0.00     0.080 A 
HETATM    7  C5  UNK     1      18.929   0.887  31.855  1.00  0.00    -0.026 A 
HETATM    8  C4  UNK     1      19.227  -0.432  32.495  1.00  0.00     0.041 C 
HETATM    9  C6  UNK     1      19.215   1.143  30.528  1.00  0.00    -0.008 A 
HETATM   10  C2  UNK     1      20.222  -1.259  31.662  1.00  0.00     0.009 C 
HETATM   11  C1  UNK     1      19.856  -1.249  30.162  1.00  0.00    -0.014 C 
HETATM   12  C3  UNK     1      19.888   0.188  29.591  1.00  0.00     0.051 C 
HETATM   13  C7  UNK     1      20.792  -2.159  29.370  1.00  0.00     0.010 C 
HETATM   14  S1  UNK     1      18.758   2.711  30.047  1.00  0.00    -0.075 SA
BRANCH   6  15
HETATM   15  C10 UNK     1      17.876   2.073  33.853  1.00  0.00     0.296 C 
HETATM   16  O2  UNK     1      18.375   2.779  34.741  1.00  0.00    -0.259 OA
BRANCH  15  17
HETATM   17  O1  UNK     1      16.811   1.235  34.087  1.00  0.00    -0.322 OA
HETATM   18  C16 UNK     1      16.850   0.461  35.291  1.00  0.00     0.213 C 
ENDBRANCH  15  17
ENDBRANCH   6  15
ENDBRANCH   2   5
BRANCH   3  19
HETATM   19  C12 UNK     1      17.384   6.617  32.415  1.00  0.00     0.108 A 
HETATM   20  C13 UNK     1      16.961   7.012  33.621  1.00  0.00     0.037 A 
HETATM   21  C14 UNK     1      16.101   8.178  33.751  1.00  0.00    -0.001 A 
HETATM   22  C17 UNK     1      15.729   8.872  32.603  1.00  0.00     0.089 A 
HETATM   23  C18 UNK     1      15.636   8.627  34.989  1.00  0.00     0.014 A 
HETATM   24  O4  UNK     1      16.178   8.451  31.336  1.00  0.00    -0.274 OA
HETATM   25  C19 UNK     1      14.909   9.996  32.658  1.00  0.00     0.038 A 
HETATM   26  C15 UNK     1      17.001   7.339  31.180  1.00  0.00     0.304 A 
HETATM   27  O5  UNK     1      17.386   6.980  30.073  1.00  0.00    -0.259 OA
HETATM   28  C21 UNK     1      14.449  10.437  33.898  1.00  0.00     0.003 A 
HETATM   29  C20 UNK     1      14.812   9.754  35.061  1.00  0.00     0.001 A 
ENDBRANCH   3  19
TORSDOF 4
ENDMDL
MODEL 3
REMARK VINA RESULT:      -9.2     15.591     20.202
REMARK  4 active torsions:
REMARK  status: ('A' for Active; 'I' for Inactive)
REMARK    1  A    between atoms: C10_17  and  O1_2 
REMARK       I    between atoms: C11_18  and  N1_7 
REMARK    2  A    between atoms: C9_16  and  N1_7 
REMARK    3  A    between atoms: C10_17  and  C8_15 
REMARK    4  A    between atoms: C11_18  and  C12_19 
ROOT
HETATM    1  O3  UNK     1      17.885  -2.185  15.936  1.00  0.00    -0.267 OA
HETATM    2  N1  UNK     1      19.744  -1.363  14.726  1.00  0.00    -0.316 N 
HETATM    3  C11 UNK     1      18.810  -1.399  15.769  1.00  0.00     0.262 C 
HETATM    4  H11 UNK     1      20.468  -0.649  14.744  1.00  0.00     0.169 HD
ENDROOT
BRANCH   2   5
HETATM    5  C9  UNK     1      19.813  -2.217  13.659  1.00  0.00     0.094 A 
HETATM    6  C8  UNK     1      20.220  -3.530  13.567  1.00  0.00     0.080 A 
HETATM    7  C5  UNK     1      20.124  -4.033  12.235  1.00  0.00    -0.026 A 
HETATM    8  C4  UNK     1      20.462  -5.418  11.780  1.00  0.00     0.041 C 
HETATM    9  C6  UNK     1      19.640  -3.072  11.368  1.00  0.00    -0.008 A 
HETATM   10  C2  UNK     1      20.606  -5.498  10.251  1.00  0.00     0.009 C 
HETATM   11  C1  UNK     1      19.456  -4.762   9.531  1.00  0.00    -0.014 C 
HETATM   12  C3  UNK     1      19.443  -3.260   9.896  1.00  0.00     0.051 C 
HETATM   13  C7  UNK     1      19.559  -4.943   8.019  1.00  0.00     0.010 C 
HETATM   14  S1  UNK     1      19.317  -1.590  12.143  1.00  0.00    -0.075 SA
BRANCH   6  15
HETATM   15  C10 UNK     1      20.677  -4.278  14.713  1.00  0.00     0.296 C 
HETATM   16  O2  UNK     1      20.050  -5.177  15.290  1.00  0.00    -0.259 OA
BRANCH  15  17
HETATM   17  O1  UNK     1      21.930  -3.876  15.114  1.00  0.00    -0.322 OA
HETATM   18  C16 UNK     1      22.123  -3.672  16.518  1.00  0.00     0.213 C 
ENDBRANCH  15  17
ENDBRANCH   6  15
ENDBRANCH   2   5
BRANCH   3  19
HETATM   19  C12 UNK     1      19.027  -0.324  16.760  1.00  0.00     0.108 A 
HETATM   20  C13 UNK     1      19.020  -0.695  18.046  1.00  0.00     0.037 A 
HETATM   21  C14 UNK     1      19.224   0.293  19.094  1.00  0.00    -0.001 A 
HETATM   22  C17 UNK     1      19.426   1.623  18.737  1.00  0.00     0.089 A 
HETATM   23  C18 UNK     1      19.226  -0.048  20.449  1.00  0.00     0.014 A 
HETATM   24  O4  UNK     1      19.432   2.007  17.381  1.00  0.00    -0.274 OA
HETATM   25  C19 UNK     1      19.627   2.617  19.691  1.00  0.00     0.038 A 
HETATM   26  C15 UNK     1      19.240   1.085  16.356  1.00  0.00     0.304 A 
HETATM   27  O5  UNK     1      19.246   1.428  15.179  1.00  0.00    -0.259 OA
HETATM   28  C21 UNK     1      19.627   2.268  21.041  1.00  0.00     0.003 A 
HETATM   29  C20 UNK     1      19.426   0.938  21.419  1.00  0.00     0.001 A 
ENDBRANCH   3  19
TORSDOF 4
ENDMDL
MODEL 4
REMARK VINA RESULT:      -9.0      1.065      1.839
REMARK  4 active torsions:
REMARK  status: ('A' for Active; 'I' for Inactive)
REMARK    1  A    between atoms: C10_17  and  O1_2 
REMARK       I    between atoms: C11_18  and  N1_7 
REMARK    2  A    between atoms: C9_16  and  N1_7 
REMARK    3  A    between atoms: C10_17  and  C8_15 
REMARK    4  A    between atoms: C11_18  and  C12_19 
ROOT
HETATM    1  O3  UNK     1      17.832   3.456  33.391  1.00  0.00    -0.267 OA
HETATM    2  N1  UNK     1      17.902   4.948  31.555  1.00  0.00    -0.316 N 
HETATM    3  C11 UNK     1      18.057   3.722  32.217  1.00  0.00     0.262 C 
HETATM    4  H11 UNK     1      18.119   4.997  30.563  1.00  0.00     0.169 HD
ENDROOT
BRANCH   2   5
HETATM    5  C9  UNK     1      17.459   6.122  32.101  1.00  0.00     0.094 A 
HETATM    6  C8  UNK     1      18.113   7.097  32.821  1.00  0.00     0.080 A 
HETATM    7  C5  UNK     1      17.245   8.165  33.197  1.00  0.00    -0.026 A 
HETATM    8  C4  UNK     1      17.624   9.393  33.964  1.00  0.00     0.041 C 
HETATM    9  C6  UNK     1      15.960   7.955  32.735  1.00  0.00    -0.008 A 
HETATM   10  C2  UNK     1      16.390  10.128  34.512  1.00  0.00     0.009 C 
HETATM   11  C1  UNK     1      15.283  10.258  33.443  1.00  0.00    -0.014 C 
HETATM   12  C3  UNK     1      14.797   8.867  32.974  1.00  0.00     0.051 C 
HETATM   13  C7  UNK     1      14.112  11.082  33.973  1.00  0.00     0.010 C 
HETATM   14  S1  UNK     1      15.802   6.493  31.875  1.00  0.00    -0.075 SA
BRANCH   6  15
HETATM   15  C10 UNK     1      19.519   7.012  33.135  1.00  0.00     0.296 C 
HETATM   16  O2  UNK     1      20.047   7.368  34.198  1.00  0.00    -0.259 OA
BRANCH  15  17
HETATM   17  O1  UNK     1      20.240   6.473  32.095  1.00  0.00    -0.322 OA
HETATM   18  C16 UNK     1      21.612   6.156  32.357  1.00  0.00     0.213 C 
ENDBRANCH  15  17
ENDBRANCH   6  15
ENDBRANCH   2   5
BRANCH   3  19
HETATM   19  C12 UNK     1      18.559   2.658  31.323  1.00  0.00     0.108 A 
HETATM   20  C13 UNK     1      18.841   1.484  31.901  1.00  0.00     0.037 A 
HETATM   21  C14 UNK     1      19.342   0.376  31.103  1.00  0.00    -0.001 A 
HETATM   22  C17 UNK     1      19.522   0.557  29.735  1.00  0.00     0.089 A 
HETATM   23  C18 UNK     1      19.649  -0.867  31.664  1.00  0.00     0.014 A 
HETATM   24  O4  UNK     1      19.223   1.795  29.132  1.00  0.00    -0.274 OA
HETATM   25  C19 UNK     1      19.998  -0.464  28.916  1.00  0.00     0.038 A 
HETATM   26  C15 UNK     1      18.742   2.874  29.869  1.00  0.00     0.304 A 
HETATM   27  O5  UNK     1      18.486   3.947  29.336  1.00  0.00    -0.259 OA
HETATM   28  C21 UNK     1      20.302  -1.700  29.483  1.00  0.00     0.003 A 
HETATM   29  C20 UNK     1      20.128  -1.901  30.855  1.00  0.00     0.001 A 
ENDBRANCH   3  19
TORSDOF 4
ENDMDL
MODEL 5
REMARK VINA RESULT:      -8.9     15.513     20.395
REMARK  4 active torsions:
REMARK  status: ('A' for Active; 'I' for Inactive)
REMARK    1  A    between atoms: C10_17  and  O1_2 
REMARK       I    between atoms: C11_18  and  N1_7 
REMARK    2  A    between atoms: C9_16  and  N1_7 
REMARK    3  A    between atoms: C10_17  and  C8_15 
REMARK    4  A    between atoms: C11_18  and  C12_19 
ROOT
HETATM    1  O3  UNK     1      17.688  -2.294  16.021  1.00  0.00    -0.267 OA
HETATM    2  N1  UNK     1      19.968  -2.182  15.396  1.00  0.00    -0.316 N 
HETATM    3  C11 UNK     1      18.801  -1.784  16.062  1.00  0.00     0.262 C 
HETATM    4  H11 UNK     1      20.823  -1.656  15.553  1.00  0.00     0.169 HD
ENDROOT
BRANCH   2   5
HETATM    5  C9  UNK     1      20.102  -3.246  14.546  1.00  0.00     0.094 A 
HETATM    6  C8  UNK     1      20.036  -3.328  13.172  1.00  0.00     0.080 A 
HETATM    7  C5  UNK     1      20.238  -4.660  12.701  1.00  0.00    -0.026 A 
HETATM    8  C4  UNK     1      20.252  -5.107  11.273  1.00  0.00     0.041 C 
HETATM    9  C6  UNK     1      20.457  -5.536  13.747  1.00  0.00    -0.008 A 
HETATM   10  C2  UNK     1      20.115  -6.634  11.150  1.00  0.00     0.009 C 
HETATM   11  C1  UNK     1      21.037  -7.371  12.146  1.00  0.00    -0.014 C 
HETATM   12  C3  UNK     1      20.678  -7.010  13.607  1.00  0.00     0.051 C 
HETATM   13  C7  UNK     1      20.964  -8.881  11.936  1.00  0.00     0.010 C 
HETATM   14  S1  UNK     1      20.408  -4.769  15.267  1.00  0.00    -0.075 SA
BRANCH   6  15
HETATM   15  C10 UNK     1      19.793  -2.175  12.340  1.00  0.00     0.296 C 
HETATM   16  O2  UNK     1      18.718  -1.889  11.794  1.00  0.00    -0.259 OA
BRANCH  15  17
HETATM   17  O1  UNK     1      20.918  -1.395  12.212  1.00  0.00    -0.322 OA
HETATM   18  C16 UNK     1      21.427  -1.211  10.886  1.00  0.00     0.213 C 
ENDBRANCH  15  17
ENDBRANCH   6  15
ENDBRANCH   2   5
BRANCH   3  19
HETATM   19  C12 UNK     1      19.012  -0.588  16.905  1.00  0.00     0.108 A 
HETATM   20  C13 UNK     1      19.029  -0.793  18.228  1.00  0.00     0.037 A 
HETATM   21  C14 UNK     1      19.230   0.323  19.140  1.00  0.00    -0.001 A 
HETATM   22  C17 UNK     1      19.403   1.599  18.614  1.00  0.00     0.089 A 
HETATM   23  C18 UNK     1      19.256   0.156  20.527  1.00  0.00     0.014 A 
HETATM   24  O4  UNK     1      19.385   1.808  17.221  1.00  0.00    -0.274 OA
HETATM   25  C19 UNK     1      19.600   2.710  19.432  1.00  0.00     0.038 A 
HETATM   26  C15 UNK     1      19.195   0.761  16.324  1.00  0.00     0.304 A 
HETATM   27  O5  UNK     1      19.179   0.952  15.113  1.00  0.00    -0.259 OA
HETATM   28  C21 UNK     1      19.624   2.535  20.815  1.00  0.00     0.003 A 
HETATM   29  C20 UNK     1      19.452   1.260  21.361  1.00  0.00     0.001 A 
ENDBRANCH   3  19
TORSDOF 4
ENDMDL
MODEL 6
REMARK VINA RESULT:      -8.7      7.429     10.492
REMARK  4 active torsions:
REMARK  status: ('A' for Active; 'I' for Inactive)
REMARK    1  A    between atoms: C10_17  and  O1_2 
REMARK       I    between atoms: C11_18  and  N1_7 
REMARK    2  A    between atoms: C9_16  and  N1_7 
REMARK    3  A    between atoms: C10_17  and  C8_15 
REMARK    4  A    between atoms: C11_18  and  C12_19 
ROOT
HETATM    1  O3  UNK     1      18.473  -5.574  36.479  1.00  0.00    -0.267 OA
HETATM    2  N1  UNK     1      20.257  -4.021  36.530  1.00  0.00    -0.316 N 
HETATM    3  C11 UNK     1      19.662  -5.289  36.550  1.00  0.00     0.262 C 
HETATM    4  H11 UNK     1      21.270  -3.957  36.580  1.00  0.00     0.169 HD
ENDROOT
BRANCH   2   5
HETATM    5  C9  UNK     1      19.615  -2.817  36.425  1.00  0.00     0.094 A 
HETATM    6  C8  UNK     1      19.546  -1.908  35.392  1.00  0.00     0.080 A 
HETATM    7  C5  UNK     1      18.750  -0.771  35.726  1.00  0.00    -0.026 A 
HETATM    8  C4  UNK     1      18.447   0.395  34.839  1.00  0.00     0.041 C 
HETATM    9  C6  UNK     1      18.241  -0.872  37.007  1.00  0.00    -0.008 A 
HETATM   10  C2  UNK     1      17.894   1.590  35.634  1.00  0.00     0.009 C 
HETATM   11  C1  UNK     1      16.811   1.150  36.644  1.00  0.00    -0.014 C 
HETATM   12  C3  UNK     1      17.388   0.158  37.680  1.00  0.00     0.051 C 
HETATM   13  C7  UNK     1      16.202   2.361  37.346  1.00  0.00     0.010 C 
HETATM   14  S1  UNK     1      18.722  -2.304  37.794  1.00  0.00    -0.075 SA
BRANCH   6  15
HETATM   15  C10 UNK     1      20.213  -2.120  34.131  1.00  0.00     0.296 C 
HETATM   16  O2  UNK     1      21.392  -2.472  33.985  1.00  0.00    -0.259 OA
BRANCH  15  17
HETATM   17  O1  UNK     1      19.374  -1.884  33.067  1.00  0.00    -0.322 OA
HETATM   18  C16 UNK     1      19.987  -1.749  31.780  1.00  0.00     0.213 C 
ENDBRANCH  15  17
ENDBRANCH   6  15
ENDBRANCH   2   5
BRANCH   3  19
HETATM   19  C12 UNK     1      20.655  -6.377  36.674  1.00  0.00     0.108 A 
HETATM   20  C13 UNK     1      20.510  -7.409  35.834  1.00  0.00     0.037 A 
HETATM   21  C14 UNK     1      21.438  -8.528  35.880  1.00  0.00    -0.001 A 
HETATM   22  C17 UNK     1      22.474  -8.506  36.809  1.00  0.00     0.089 A 
HETATM   23  C18 UNK     1      21.325  -9.626  35.023  1.00  0.00     0.014 A 
HETATM   24  O4  UNK     1      22.622  -7.416  37.690  1.00  0.00    -0.274 OA
HETATM   25  C19 UNK     1      23.396  -9.545  36.905  1.00  0.00     0.038 A 
HETATM   26  C15 UNK     1      21.750  -6.331  37.670  1.00  0.00     0.304 A 
HETATM   27  O5  UNK     1      21.886  -5.388  38.441  1.00  0.00    -0.259 OA
HETATM   28  C21 UNK     1      23.276 -10.637  36.047  1.00  0.00     0.003 A 
HETATM   29  C20 UNK     1      22.243 -10.677  35.108  1.00  0.00     0.001 A 
ENDBRANCH   3  19
TORSDOF 4
ENDMDL
MODEL 7
REMARK VINA RESULT:      -8.7      5.709      8.635
REMARK  4 active torsions:
REMARK  status: ('A' for Active; 'I' for Inactive)
REMARK    1  A    between atoms: C10_17  and  O1_2 
REMARK       I    between atoms: C11_18  and  N1_7 
REMARK    2  A    between atoms: C9_16  and  N1_7 
REMARK    3  A    between atoms: C10_17  and  C8_15 
REMARK    4  A    between atoms: C11_18  and  C12_19 
ROOT
HETATM    1  O3  UNK     1      21.426  -2.125  35.215  1.00  0.00    -0.267 OA
HETATM    2  N1  UNK     1      19.106  -2.147  34.750  1.00  0.00    -0.316 N 
HETATM    3  C11 UNK     1      20.304  -2.608  35.312  1.00  0.00     0.262 C 
HETATM    4  H11 UNK     1      18.249  -2.659  34.943  1.00  0.00     0.169 HD
ENDROOT
BRANCH   2   5
HETATM    5  C9  UNK     1      18.943  -1.040  33.963  1.00  0.00     0.094 A 
HETATM    6  C8  UNK     1      18.641   0.267  34.280  1.00  0.00     0.080 A 
HETATM    7  C5  UNK     1      18.569   1.100  33.123  1.00  0.00    -0.026 A 
HETATM    8  C4  UNK     1      18.282   2.568  33.101  1.00  0.00     0.041 C 
HETATM    9  C6  UNK     1      18.828   0.383  31.971  1.00  0.00    -0.008 A 
HETATM   10  C2  UNK     1      17.908   3.056  31.691  1.00  0.00     0.009 C 
HETATM   11  C1  UNK     1      18.865   2.490  30.619  1.00  0.00    -0.014 C 
HETATM   12  C3  UNK     1      18.808   0.945  30.583  1.00  0.00     0.051 C 
HETATM   13  C7  UNK     1      18.542   3.068  29.244  1.00  0.00     0.010 C 
HETATM   14  S1  UNK     1      19.141  -1.263  32.277  1.00  0.00    -0.075 SA
BRANCH   6  15
HETATM   15  C10 UNK     1      18.433   0.703  35.639  1.00  0.00     0.296 C 
HETATM   16  O2  UNK     1      19.088   1.574  36.229  1.00  0.00    -0.259 OA
BRANCH  15  17
HETATM   17  O1  UNK     1      17.393   0.029  36.236  1.00  0.00    -0.322 OA
HETATM   18  C16 UNK     1      17.621  -0.468  37.559  1.00  0.00     0.213 C 
ENDBRANCH  15  17
ENDBRANCH   6  15
ENDBRANCH   2   5
BRANCH   3  19
HETATM   19  C12 UNK     1      20.118  -3.838  36.109  1.00  0.00     0.108 A 
HETATM   20  C13 UNK     1      19.848  -4.954  35.421  1.00  0.00     0.037 A 
HETATM   21  C14 UNK     1      19.647  -6.214  36.119  1.00  0.00    -0.001 A 
HETATM   22  C17 UNK     1      19.741  -6.239  37.507  1.00  0.00     0.089 A 
HETATM   23  C18 UNK     1      19.364  -7.403  35.442  1.00  0.00     0.014 A 
HETATM   24  O4  UNK     1      20.026  -5.061  38.226  1.00  0.00    -0.274 OA
HETATM   25  C19 UNK     1      19.559  -7.413  38.235  1.00  0.00     0.038 A 
HETATM   26  C15 UNK     1      20.223  -3.840  37.586  1.00  0.00     0.304 A 
HETATM   27  O5  UNK     1      20.469  -2.820  38.220  1.00  0.00    -0.259 OA
HETATM   28  C21 UNK     1      19.276  -8.594  37.552  1.00  0.00     0.003 A 
HETATM   29  C20 UNK     1      19.179  -8.590  36.158  1.00  0.00     0.001 A 
ENDBRANCH   3  19
TORSDOF 4
ENDMDL
MODEL 8
REMARK VINA RESULT:      -8.6     16.125     21.060
REMARK  4 active torsions:
REMARK  status: ('A' for Active; 'I' for Inactive)
REMARK    1  A    between atoms: C10_17  and  O1_2 
REMARK       I    between atoms: C11_18  and  N1_7 
REMARK    2  A    between atoms: C9_16  and  N1_7 
REMARK    3  A    between atoms: C10_17  and  C8_15 
REMARK    4  A    between atoms: C11_18  and  C12_19 
ROOT
HETATM    1  O3  UNK     1      17.610  -3.039  15.346  1.00  0.00    -0.267 OA
HETATM    2  N1  UNK     1      19.760  -2.724  14.411  1.00  0.00    -0.316 N 
HETATM    3  C11 UNK     1      18.653  -2.412  15.212  1.00  0.00     0.262 C 
HETATM    4  H11 UNK     1      20.564  -2.101  14.425  1.00  0.00     0.169 HD
ENDROOT
BRANCH   2   5
HETATM    5  C9  UNK     1      19.901  -3.816  13.599  1.00  0.00     0.094 A 
HETATM    6  C8  UNK     1      20.361  -5.090  13.856  1.00  0.00     0.080 A 
HETATM    7  C5  UNK     1      20.334  -5.918  12.694  1.00  0.00    -0.026 A 
HETATM    8  C4  UNK     1      20.741  -7.356  12.616  1.00  0.00     0.041 C 
HETATM    9  C6  UNK     1      19.845  -5.232  11.599  1.00  0.00    -0.008 A 
HETATM   10  C2  UNK     1      20.944  -7.814  11.162  1.00  0.00     0.009 C 
HETATM   11  C1  UNK     1      19.793  -7.340  10.249  1.00  0.00    -0.014 C 
HETATM   12  C3  UNK     1      19.708  -5.796  10.218  1.00  0.00     0.051 C 
HETATM   13  C7  UNK     1      19.958  -7.893   8.836  1.00  0.00     0.010 C 
HETATM   14  S1  UNK     1      19.436  -3.619  11.962  1.00  0.00    -0.075 SA
BRANCH   6  15
HETATM   15  C10 UNK     1      20.805  -5.500  15.165  1.00  0.00     0.296 C 
HETATM   16  O2  UNK     1      21.973  -5.762  15.485  1.00  0.00    -0.259 OA
BRANCH  15  17
HETATM   17  O1  UNK     1      19.760  -5.573  16.057  1.00  0.00    -0.322 OA
HETATM   18  C16 UNK     1      18.610  -6.319  15.643  1.00  0.00     0.213 C 
ENDBRANCH  15  17
ENDBRANCH   6  15
ENDBRANCH   2   5
BRANCH   3  19
HETATM   19  C12 UNK     1      18.837  -1.153  15.963  1.00  0.00     0.108 A 
HETATM   20  C13 UNK     1      18.591  -1.207  17.278  1.00  0.00     0.037 A 
HETATM   21  C14 UNK     1      18.743  -0.018  18.101  1.00  0.00    -0.001 A 
HETATM   22  C17 UNK     1      19.147   1.171  17.501  1.00  0.00     0.089 A 
HETATM   23  C18 UNK     1      18.497  -0.028  19.477  1.00  0.00     0.014 A 
HETATM   24  O4  UNK     1      19.405   1.221  16.117  1.00  0.00    -0.274 OA
HETATM   25  C19 UNK     1      19.311   2.344  18.233  1.00  0.00     0.038 A 
HETATM   26  C15 UNK     1      19.268   0.100  15.303  1.00  0.00     0.304 A 
HETATM   27  O5  UNK     1      19.494   0.154  14.099  1.00  0.00    -0.259 OA
HETATM   28  C21 UNK     1      19.064   2.325  19.605  1.00  0.00     0.003 A 
HETATM   29  C20 UNK     1      18.657   1.142  20.225  1.00  0.00     0.001 A 
ENDBRANCH   3  19
TORSDOF 4
ENDMDL
MODEL 9
REMARK VINA RESULT:      -8.6      7.352     12.644
REMARK  4 active torsions:
REMARK  status: ('A' for Active; 'I' for Inactive)
REMARK    1  A    between atoms: C10_17  and  O1_2 
REMARK       I    between atoms: C11_18  and  N1_7 
REMARK    2  A    between atoms: C9_16  and  N1_7 
REMARK    3  A    between atoms: C10_17  and  C8_15 
REMARK    4  A    between atoms: C11_18  and  C12_19 
ROOT
HETATM    1  O3  UNK     1      19.345  -2.331  36.997  1.00  0.00    -0.267 OA
HETATM    2  N1  UNK     1      19.950  -4.099  35.545  1.00  0.00    -0.316 N 
HETATM    3  C11 UNK     1      19.562  -2.796  35.884  1.00  0.00     0.262 C 
HETATM    4  H11 UNK     1      20.107  -4.322  34.565  1.00  0.00     0.169 HD
ENDROOT
BRANCH   2   5
HETATM    5  C9  UNK     1      20.170  -5.139  36.407  1.00  0.00     0.094 A 
HETATM    6  C8  UNK     1      19.565  -6.372  36.522  1.00  0.00     0.080 A 
HETATM    7  C5  UNK     1      20.123  -7.150  37.581  1.00  0.00    -0.026 A 
HETATM    8  C4  UNK     1      19.722  -8.537  37.972  1.00  0.00     0.041 C 
HETATM    9  C6  UNK     1      21.139  -6.469  38.224  1.00  0.00    -0.008 A 
HETATM   10  C2  UNK     1      20.252  -8.913  39.366  1.00  0.00     0.009 C 
HETATM   11  C1  UNK     1      21.734  -8.514  39.539  1.00  0.00    -0.014 C 
HETATM   12  C3  UNK     1      21.917  -6.985  39.394  1.00  0.00     0.051 C 
HETATM   13  C7  UNK     1      22.269  -8.990  40.887  1.00  0.00     0.010 C 
HETATM   14  S1  UNK     1      21.407  -4.919  37.571  1.00  0.00    -0.075 SA
BRANCH   6  15
HETATM   15  C10 UNK     1      18.497  -6.792  35.649  1.00  0.00     0.296 C 
HETATM   16  O2  UNK     1      18.635  -7.288  34.522  1.00  0.00    -0.259 OA
BRANCH  15  17
HETATM   17  O1  UNK     1      17.263  -6.577  36.216  1.00  0.00    -0.322 OA
HETATM   18  C16 UNK     1      16.120  -6.934  35.430  1.00  0.00     0.213 C 
ENDBRANCH  15  17
ENDBRANCH   6  15
ENDBRANCH   2   5
BRANCH   3  19
HETATM   19  C12 UNK     1      19.413  -1.925  34.700  1.00  0.00     0.108 A 
HETATM   20  C13 UNK     1      20.025  -2.336  33.583  1.00  0.00     0.037 A 
HETATM   21  C14 UNK     1      19.938  -1.545  32.366  1.00  0.00    -0.001 A 
HETATM   22  C17 UNK     1      19.210  -0.359  32.384  1.00  0.00     0.089 A 
HETATM   23  C18 UNK     1      20.559  -1.935  31.177  1.00  0.00     0.014 A 
HETATM   24  O4  UNK     1      18.568   0.069  33.563  1.00  0.00    -0.274 OA
HETATM   25  C19 UNK     1      19.087   0.445  31.253  1.00  0.00     0.038 A 
HETATM   26  C15 UNK     1      18.633  -0.667  34.743  1.00  0.00     0.304 A 
HETATM   27  O5  UNK     1      18.072  -0.287  35.764  1.00  0.00    -0.259 OA
HETATM   28  C21 UNK     1      19.711   0.048  30.071  1.00  0.00     0.003 A 
HETATM   29  C20 UNK     1      20.446  -1.139  30.033  1.00  0.00     0.001 A 
ENDBRANCH   3  19
TORSDOF 4
ENDMDL
MODEL 10
REMARK VINA RESULT:      -8.4     23.521     25.225
REMARK  4 active torsions:
REMARK  status: ('A' for Active; 'I' for Inactive)
REMARK    1  A    between atoms: C10_17  and  O1_2 
REMARK       I    between atoms: C11_18  and  N1_7 
REMARK    2  A    between atoms: C9_16  and  N1_7 
REMARK    3  A    between atoms: C10_17  and  C8_15 
REMARK    4  A    between atoms: C11_18  and  C12_19 
ROOT
HETATM    1  O3  UNK     1      14.277   8.395  10.721  1.00  0.00    -0.267 OA
HETATM    2  N1  UNK     1      13.318   9.134   8.688  1.00  0.00    -0.316 N 
HETATM    3  C11 UNK     1      14.329   8.978   9.645  1.00  0.00     0.262 C 
HETATM    4  H11 UNK     1      13.531   9.637   7.831  1.00  0.00     0.169 HD
ENDROOT
BRANCH   2   5
HETATM    5  C9  UNK     1      12.038   8.655   8.765  1.00  0.00     0.094 A 
HETATM    6  C8  UNK     1      11.424   7.593   8.137  1.00  0.00     0.080 A 
HETATM    7  C5  UNK     1      10.056   7.458   8.520  1.00  0.00    -0.026 A 
HETATM    8  C4  UNK     1       9.100   6.407   8.050  1.00  0.00     0.041 C 
HETATM    9  C6  UNK     1       9.691   8.428   9.433  1.00  0.00    -0.008 A 
HETATM   10  C2  UNK     1       7.641   6.782   8.359  1.00  0.00     0.009 C 
HETATM   11  C1  UNK     1       7.481   7.311   9.801  1.00  0.00    -0.014 C 
HETATM   12  C3  UNK     1       8.323   8.590  10.020  1.00  0.00     0.051 C 
HETATM   13  C7  UNK     1       6.013   7.578  10.121  1.00  0.00     0.010 C 
HETATM   14  S1  UNK     1      10.970   9.487   9.814  1.00  0.00    -0.075 SA
BRANCH   6  15
HETATM   15  C10 UNK     1      12.121   6.736   7.210  1.00  0.00     0.296 C 
HETATM   16  O2  UNK     1      11.921   6.674   5.989  1.00  0.00    -0.259 OA
BRANCH  15  17
HETATM   17  O1  UNK     1      13.069   5.966   7.843  1.00  0.00    -0.322 OA
HETATM   18  C16 UNK     1      12.666   4.653   8.250  1.00  0.00     0.213 C 
ENDBRANCH  15  17
ENDBRANCH   6  15
ENDBRANCH   2   5
BRANCH   3  19
HETATM   19  C12 UNK     1      15.595   9.626   9.240  1.00  0.00     0.108 A 
HETATM   20  C13 UNK     1      15.480  10.733   8.496  1.00  0.00     0.037 A 
HETATM   21  C14 UNK     1      16.669  11.440   8.047  1.00  0.00    -0.001 A 
HETATM   22  C17 UNK     1      17.921  10.948   8.404  1.00  0.00     0.089 A 
HETATM   23  C18 UNK     1      16.598  12.599   7.269  1.00  0.00     0.014 A 
HETATM   24  O4  UNK     1      18.035   9.783   9.188  1.00  0.00    -0.274 OA
HETATM   25  C19 UNK     1      19.098  11.578   8.007  1.00  0.00     0.038 A 
HETATM   26  C15 UNK     1      16.916   9.085   9.632  1.00  0.00     0.304 A 
HETATM   27  O5  UNK     1      17.024   8.071  10.314  1.00  0.00    -0.259 OA
HETATM   28  C21 UNK     1      19.018  12.733   7.231  1.00  0.00     0.003 A 
HETATM   29  C20 UNK     1      17.770  13.242   6.863  1.00  0.00     0.001 A 
ENDBRANCH   3  19
TORSDOF 4
ENDMDL
