MODEL 1
REMARK VINA RESULT:      -7.6      0.000      0.000
REMARK  6 active torsions:
REMARK  status: ('A' for Active; 'I' for Inactive)
REMARK    1  A    between atoms: C1_6  and  O1_1 
REMARK    2  A    between atoms: C4_9  and  O1_1 
REMARK    3  A    between atoms: C10_15  and  O3_3 
REMARK    4  A    between atoms: C15_20  and  O3_3 
REMARK    5  A    between atoms: C1_6  and  C2_7 
REMARK    6  A    between atoms: C1_6  and  C10_15 
ROOT
HETATM    1  O2  UNK     1      19.229  -0.112  32.808  1.00  0.00    -0.275 OA
HETATM    2  O5  UNK     1      20.041  -2.154  33.442  1.00  0.00    -0.260 OA
HETATM    3  C3  UNK     1      19.411   0.571  30.470  1.00  0.00     0.004 A 
HETATM    4  C4  UNK     1      18.140   2.987  31.180  1.00  0.00     0.072 A 
HETATM    5  C5  UNK     1      19.012   0.829  31.782  1.00  0.00     0.092 A 
HETATM    6  C6  UNK     1      18.382   2.020  32.150  1.00  0.00     0.075 A 
HETATM    7  C7  UNK     1      20.066  -0.710  30.172  1.00  0.00    -0.043 A 
HETATM    8  C8  UNK     1      19.158   1.558  29.507  1.00  0.00     0.017 A 
HETATM    9  C9  UNK     1      18.528   2.757  29.861  1.00  0.00     0.038 A 
HETATM   10  C12 UNK     1      20.259  -1.587  31.168  1.00  0.00     0.090 A 
HETATM   11  C13 UNK     1      20.506  -1.017  28.771  1.00  0.00     0.049 C 
HETATM   12  C14 UNK     1      19.846  -1.329  32.557  1.00  0.00     0.288 A 
ENDROOT
BRANCH   4  13
HETATM   13  O1  UNK     1      17.528   4.155  31.518  1.00  0.00    -0.336 OA
BRANCH  13  14
HETATM   14  C1  UNK     1      18.338   5.162  32.122  1.00  0.00     0.228 C 
BRANCH  14  15
HETATM   15  C2  UNK     1      18.985   6.006  31.025  1.00  0.00     0.038 C 
HETATM   16  C11 UNK     1      20.494   5.806  30.959  1.00  0.00     0.008 C 
ENDBRANCH  14  15
BRANCH  14  17
HETATM   17  C10 UNK     1      17.447   6.010  33.009  1.00  0.00     0.288 C 
HETATM   18  O4  UNK     1      16.350   6.442  32.682  1.00  0.00    -0.262 OA
BRANCH  17  19
HETATM   19  O3  UNK     1      18.069   6.234  34.204  1.00  0.00    -0.320 OA
BRANCH  19  20
HETATM   20  C15 UNK     1      18.177   7.606  34.596  1.00  0.00     0.174 C 
HETATM   21  C16 UNK     1      19.536   8.132  34.184  1.00  0.00     0.034 C 
ENDBRANCH  19  20
ENDBRANCH  17  19
ENDBRANCH  14  17
ENDBRANCH  13  14
ENDBRANCH   4  13
TORSDOF 6
ENDMDL
MODEL 2
REMARK VINA RESULT:      -7.5      1.137      1.711
REMARK  6 active torsions:
REMARK  status: ('A' for Active; 'I' for Inactive)
REMARK    1  A    between atoms: C1_6  and  O1_1 
REMARK    2  A    between atoms: C4_9  and  O1_1 
REMARK    3  A    between atoms: C10_15  and  O3_3 
REMARK    4  A    between atoms: C15_20  and  O3_3 
REMARK    5  A    between atoms: C1_6  and  C2_7 
REMARK    6  A    between atoms: C1_6  and  C10_15 
ROOT
HETATM    1  O2  UNK     1      19.115  -0.009  32.896  1.00  0.00    -0.275 OA
HETATM    2  O5  UNK     1      19.869  -2.078  33.515  1.00  0.00    -0.260 OA
HETATM    3  C3  UNK     1      19.418   0.732  30.588  1.00  0.00     0.004 A 
HETATM    4  C4  UNK     1      18.146   3.146  31.300  1.00  0.00     0.072 A 
HETATM    5  C5  UNK     1      18.960   0.961  31.886  1.00  0.00     0.092 A 
HETATM    6  C6  UNK     1      18.328   2.150  32.255  1.00  0.00     0.075 A 
HETATM    7  C7  UNK     1      20.072  -0.550  30.289  1.00  0.00    -0.043 A 
HETATM    8  C8  UNK     1      19.226   1.746  29.641  1.00  0.00     0.017 A 
HETATM    9  C9  UNK     1      18.594   2.944  29.995  1.00  0.00     0.038 A 
HETATM   10  C12 UNK     1      20.205  -1.455  31.270  1.00  0.00     0.090 A 
HETATM   11  C13 UNK     1      20.575  -0.828  28.903  1.00  0.00     0.049 C 
HETATM   12  C14 UNK     1      19.728  -1.227  32.643  1.00  0.00     0.288 A 
ENDROOT
BRANCH   4  13
HETATM   13  O1  UNK     1      17.532   4.312  31.638  1.00  0.00    -0.336 OA
BRANCH  13  14
HETATM   14  C1  UNK     1      18.200   5.147  32.583  1.00  0.00     0.228 C 
BRANCH  14  15
HETATM   15  C2  UNK     1      19.371   5.844  31.894  1.00  0.00     0.038 C 
HETATM   16  C11 UNK     1      20.331   6.481  32.891  1.00  0.00     0.008 C 
ENDBRANCH  14  15
BRANCH  14  17
HETATM   17  C10 UNK     1      17.197   6.155  33.109  1.00  0.00     0.288 C 
HETATM   18  O4  UNK     1      17.105   6.498  34.281  1.00  0.00    -0.262 OA
BRANCH  17  19
HETATM   19  O3  UNK     1      16.406   6.594  32.086  1.00  0.00    -0.320 OA
BRANCH  19  20
HETATM   20  C15 UNK     1      15.565   7.711  32.390  1.00  0.00     0.174 C 
HETATM   21  C16 UNK     1      14.122   7.252  32.406  1.00  0.00     0.034 C 
ENDBRANCH  19  20
ENDBRANCH  17  19
ENDBRANCH  14  17
ENDBRANCH  13  14
ENDBRANCH   4  13
TORSDOF 6
ENDMDL
MODEL 3
REMARK VINA RESULT:      -7.4      1.522      2.287
REMARK  6 active torsions:
REMARK  status: ('A' for Active; 'I' for Inactive)
REMARK    1  A    between atoms: C1_6  and  O1_1 
REMARK    2  A    between atoms: C4_9  and  O1_1 
REMARK    3  A    between atoms: C10_15  and  O3_3 
REMARK    4  A    between atoms: C15_20  and  O3_3 
REMARK    5  A    between atoms: C1_6  and  C2_7 
REMARK    6  A    between atoms: C1_6  and  C10_15 
ROOT
HETATM    1  O2  UNK     1      19.640   0.815  29.405  1.00  0.00    -0.275 OA
HETATM    2  O5  UNK     1      20.601  -0.863  28.183  1.00  0.00    -0.260 OA
HETATM    3  C3  UNK     1      19.127   0.432  31.762  1.00  0.00     0.004 A 
HETATM    4  C4  UNK     1      18.119   3.064  31.869  1.00  0.00     0.072 A 
HETATM    5  C5  UNK     1      19.130   1.261  30.640  1.00  0.00     0.092 A 
HETATM    6  C6  UNK     1      18.635   2.567  30.676  1.00  0.00     0.075 A 
HETATM    7  C7  UNK     1      19.670  -0.928  31.633  1.00  0.00    -0.043 A 
HETATM    8  C8  UNK     1      18.604   0.951  32.954  1.00  0.00     0.017 A 
HETATM    9  C9  UNK     1      18.104   2.257  33.006  1.00  0.00     0.038 A 
HETATM   10  C12 UNK     1      20.148  -1.326  30.446  1.00  0.00     0.090 A 
HETATM   11  C13 UNK     1      19.681  -1.844  32.822  1.00  0.00     0.049 C 
HETATM   12  C14 UNK     1      20.157  -0.463  29.253  1.00  0.00     0.288 A 
ENDROOT
BRANCH   4  13
HETATM   13  O1  UNK     1      17.632   4.333  31.925  1.00  0.00    -0.336 OA
BRANCH  13  14
HETATM   14  C1  UNK     1      18.356   5.273  32.718  1.00  0.00     0.228 C 
BRANCH  14  15
HETATM   15  C2  UNK     1      19.442   5.919  31.859  1.00  0.00     0.038 C 
HETATM   16  C11 UNK     1      18.949   6.246  30.456  1.00  0.00     0.008 C 
ENDBRANCH  14  15
BRANCH  14  17
HETATM   17  C10 UNK     1      17.374   6.310  33.228  1.00  0.00     0.288 C 
HETATM   18  O4  UNK     1      16.303   6.573  32.697  1.00  0.00    -0.262 OA
BRANCH  17  19
HETATM   19  O3  UNK     1      17.881   6.913  34.343  1.00  0.00    -0.320 OA
BRANCH  19  20
HETATM   20  C15 UNK     1      18.068   8.329  34.249  1.00  0.00     0.174 C 
HETATM   21  C16 UNK     1      19.543   8.642  34.387  1.00  0.00     0.034 C 
ENDBRANCH  19  20
ENDBRANCH  17  19
ENDBRANCH  14  17
ENDBRANCH  13  14
ENDBRANCH   4  13
TORSDOF 6
ENDMDL
MODEL 4
REMARK VINA RESULT:      -7.2      3.772      7.210
REMARK  6 active torsions:
REMARK  status: ('A' for Active; 'I' for Inactive)
REMARK    1  A    between atoms: C1_6  and  O1_1 
REMARK    2  A    between atoms: C4_9  and  O1_1 
REMARK    3  A    between atoms: C10_15  and  O3_3 
REMARK    4  A    between atoms: C15_20  and  O3_3 
REMARK    5  A    between atoms: C1_6  and  C2_7 
REMARK    6  A    between atoms: C1_6  and  C10_15 
ROOT
HETATM    1  O2  UNK     1      19.676  -0.938  30.440  1.00  0.00    -0.275 OA
HETATM    2  O5  UNK     1      20.262  -0.655  28.247  1.00  0.00    -0.260 OA
HETATM    3  C3  UNK     1      18.824   0.971  31.704  1.00  0.00     0.004 A 
HETATM    4  C4  UNK     1      18.583  -0.739  33.934  1.00  0.00     0.072 A 
HETATM    5  C5  UNK     1      19.181  -0.377  31.633  1.00  0.00     0.092 A 
HETATM    6  C6  UNK     1      19.067  -1.236  32.728  1.00  0.00     0.075 A 
HETATM    7  C7  UNK     1      18.975   1.802  30.502  1.00  0.00    -0.043 A 
HETATM    8  C8  UNK     1      18.338   1.452  32.927  1.00  0.00     0.017 A 
HETATM    9  C9  UNK     1      18.219   0.603  34.033  1.00  0.00     0.038 A 
HETATM   10  C12 UNK     1      19.449   1.241  29.380  1.00  0.00     0.090 A 
HETATM   11  C13 UNK     1      18.600   3.255  30.545  1.00  0.00     0.049 C 
HETATM   12  C14 UNK     1      19.831  -0.177  29.290  1.00  0.00     0.288 A 
ENDROOT
BRANCH   4  13
HETATM   13  O1  UNK     1      18.465  -1.560  35.012  1.00  0.00    -0.336 OA
BRANCH  13  14
HETATM   14  C1  UNK     1      19.236  -1.231  36.167  1.00  0.00     0.228 C 
BRANCH  14  15
HETATM   15  C2  UNK     1      18.353  -1.355  37.408  1.00  0.00     0.038 C 
HETATM   16  C11 UNK     1      17.630  -0.054  37.733  1.00  0.00     0.008 C 
ENDBRANCH  14  15
BRANCH  14  17
HETATM   17  C10 UNK     1      20.411  -2.188  36.235  1.00  0.00     0.288 C 
HETATM   18  O4  UNK     1      21.344  -2.198  35.443  1.00  0.00    -0.262 OA
BRANCH  17  19
HETATM   19  O3  UNK     1      20.250  -3.039  37.290  1.00  0.00    -0.320 OA
BRANCH  19  20
HETATM   20  C15 UNK     1      20.326  -4.433  36.975  1.00  0.00     0.174 C 
HETATM   21  C16 UNK     1      21.371  -5.082  37.858  1.00  0.00     0.034 C 
ENDBRANCH  19  20
ENDBRANCH  17  19
ENDBRANCH  14  17
ENDBRANCH  13  14
ENDBRANCH   4  13
TORSDOF 6
ENDMDL
MODEL 5
REMARK VINA RESULT:      -7.2      5.287     10.248
REMARK  6 active torsions:
REMARK  status: ('A' for Active; 'I' for Inactive)
REMARK    1  A    between atoms: C1_6  and  O1_1 
REMARK    2  A    between atoms: C4_9  and  O1_1 
REMARK    3  A    between atoms: C10_15  and  O3_3 
REMARK    4  A    between atoms: C15_20  and  O3_3 
REMARK    5  A    between atoms: C1_6  and  C2_7 
REMARK    6  A    between atoms: C1_6  and  C10_15 
ROOT
HETATM    1  O2  UNK     1      18.981  -0.220  33.849  1.00  0.00    -0.275 OA
HETATM    2  O5  UNK     1      18.197   1.635  32.764  1.00  0.00    -0.260 OA
HETATM    3  C3  UNK     1      18.428  -0.548  36.205  1.00  0.00     0.004 A 
HETATM    4  C4  UNK     1      19.917  -2.942  36.119  1.00  0.00     0.072 A 
HETATM    5  C5  UNK     1      19.062  -0.973  35.036  1.00  0.00     0.092 A 
HETATM    6  C6  UNK     1      19.802  -2.155  34.977  1.00  0.00     0.075 A 
HETATM    7  C7  UNK     1      17.668   0.709  36.176  1.00  0.00    -0.043 A 
HETATM    8  C8  UNK     1      18.555  -1.354  37.344  1.00  0.00     0.017 A 
HETATM    9  C9  UNK     1      19.294  -2.542  37.300  1.00  0.00     0.038 A 
HETATM   10  C12 UNK     1      17.608   1.406  35.032  1.00  0.00     0.090 A 
HETATM   11  C13 UNK     1      16.975   1.194  37.416  1.00  0.00     0.049 C 
HETATM   12  C14 UNK     1      18.272   0.971  33.792  1.00  0.00     0.288 A 
ENDROOT
BRANCH   4  13
HETATM   13  O1  UNK     1      20.634  -4.097  36.082  1.00  0.00    -0.336 OA
BRANCH  13  14
HETATM   14  C1  UNK     1      19.979  -5.284  36.526  1.00  0.00     0.228 C 
BRANCH  14  15
HETATM   15  C2  UNK     1      19.806  -6.233  35.341  1.00  0.00     0.038 C 
HETATM   16  C11 UNK     1      18.579  -7.123  35.488  1.00  0.00     0.008 C 
ENDBRANCH  14  15
BRANCH  14  17
HETATM   17  C10 UNK     1      20.831  -5.914  37.610  1.00  0.00     0.288 C 
HETATM   18  O4  UNK     1      22.041  -6.083  37.531  1.00  0.00    -0.262 OA
BRANCH  17  19
HETATM   19  O3  UNK     1      20.041  -6.281  38.661  1.00  0.00    -0.320 OA
BRANCH  19  20
HETATM   20  C15 UNK     1      20.517  -7.387  39.435  1.00  0.00     0.174 C 
HETATM   21  C16 UNK     1      19.701  -8.616  39.094  1.00  0.00     0.034 C 
ENDBRANCH  19  20
ENDBRANCH  17  19
ENDBRANCH  14  17
ENDBRANCH  13  14
ENDBRANCH   4  13
TORSDOF 6
ENDMDL
MODEL 6
REMARK VINA RESULT:      -7.2      2.725      8.577
REMARK  6 active torsions:
REMARK  status: ('A' for Active; 'I' for Inactive)
REMARK    1  A    between atoms: C1_6  and  O1_1 
REMARK    2  A    between atoms: C4_9  and  O1_1 
REMARK    3  A    between atoms: C10_15  and  O3_3 
REMARK    4  A    between atoms: C15_20  and  O3_3 
REMARK    5  A    between atoms: C1_6  and  C2_7 
REMARK    6  A    between atoms: C1_6  and  C10_15 
ROOT
HETATM    1  O2  UNK     1      18.447  10.351  33.714  1.00  0.00    -0.275 OA
HETATM    2  O5  UNK     1      18.308  12.569  34.256  1.00  0.00    -0.260 OA
HETATM    3  C3  UNK     1      16.460   8.946  33.918  1.00  0.00     0.004 A 
HETATM    4  C4  UNK     1      18.021   6.778  33.014  1.00  0.00     0.072 A 
HETATM    5  C5  UNK     1      17.809   9.101  33.599  1.00  0.00     0.092 A 
HETATM    6  C6  UNK     1      18.596   8.038  33.149  1.00  0.00     0.075 A 
HETATM    7  C7  UNK     1      15.708  10.120  34.382  1.00  0.00    -0.043 A 
HETATM    8  C8  UNK     1      15.899   7.670  33.775  1.00  0.00     0.017 A 
HETATM    9  C9  UNK     1      16.675   6.595  33.326  1.00  0.00     0.038 A 
HETATM   10  C12 UNK     1      16.340  11.298  34.483  1.00  0.00     0.090 A 
HETATM   11  C13 UNK     1      14.255   9.987  34.734  1.00  0.00     0.049 C 
HETATM   12  C14 UNK     1      17.763  11.476  34.151  1.00  0.00     0.288 A 
ENDROOT
BRANCH   4  13
HETATM   13  O1  UNK     1      18.770   5.729  32.578  1.00  0.00    -0.336 OA
BRANCH  13  14
HETATM   14  C1  UNK     1      18.576   5.308  31.229  1.00  0.00     0.228 C 
BRANCH  14  15
HETATM   15  C2  UNK     1      19.780   5.739  30.393  1.00  0.00     0.038 C 
HETATM   16  C11 UNK     1      21.042   5.884  31.233  1.00  0.00     0.008 C 
ENDBRANCH  14  15
BRANCH  14  17
HETATM   17  C10 UNK     1      18.421   3.799  31.226  1.00  0.00     0.288 C 
HETATM   18  O4  UNK     1      17.861   3.158  32.106  1.00  0.00    -0.262 OA
BRANCH  17  19
HETATM   19  O3  UNK     1      19.020   3.277  30.116  1.00  0.00    -0.320 OA
BRANCH  19  20
HETATM   20  C15 UNK     1      18.765   1.890  29.871  1.00  0.00     0.174 C 
HETATM   21  C16 UNK     1      17.849   1.761  28.673  1.00  0.00     0.034 C 
ENDBRANCH  19  20
ENDBRANCH  17  19
ENDBRANCH  14  17
ENDBRANCH  13  14
ENDBRANCH   4  13
TORSDOF 6
ENDMDL
MODEL 7
REMARK VINA RESULT:      -7.1      2.303      7.862
REMARK  6 active torsions:
REMARK  status: ('A' for Active; 'I' for Inactive)
REMARK    1  A    between atoms: C1_6  and  O1_1 
REMARK    2  A    between atoms: C4_9  and  O1_1 
REMARK    3  A    between atoms: C10_15  and  O3_3 
REMARK    4  A    between atoms: C15_20  and  O3_3 
REMARK    5  A    between atoms: C1_6  and  C2_7 
REMARK    6  A    between atoms: C1_6  and  C10_15 
ROOT
HETATM    1  O2  UNK     1      16.498   8.580  33.433  1.00  0.00    -0.275 OA
HETATM    2  O5  UNK     1      15.999  10.782  33.802  1.00  0.00    -0.260 OA
HETATM    3  C3  UNK     1      18.793   7.807  33.746  1.00  0.00     0.004 A 
HETATM    4  C4  UNK     1      17.921   5.228  33.009  1.00  0.00     0.072 A 
HETATM    5  C5  UNK     1      17.462   7.554  33.413  1.00  0.00     0.092 A 
HETATM    6  C6  UNK     1      17.014   6.283  33.046  1.00  0.00     0.075 A 
HETATM    7  C7  UNK     1      19.176   9.175  34.122  1.00  0.00    -0.043 A 
HETATM    8  C8  UNK     1      19.691   6.732  33.703  1.00  0.00     0.017 A 
HETATM    9  C9  UNK     1      19.257   5.453  33.337  1.00  0.00     0.038 A 
HETATM   10  C12 UNK     1      18.238  10.132  34.132  1.00  0.00     0.090 A 
HETATM   11  C13 UNK     1      20.600   9.480  34.486  1.00  0.00     0.049 C 
HETATM   12  C14 UNK     1      16.830   9.881  33.782  1.00  0.00     0.288 A 
ENDROOT
BRANCH   4  13
HETATM   13  O1  UNK     1      17.505   3.983  32.654  1.00  0.00    -0.336 OA
BRANCH  13  14
HETATM   14  C1  UNK     1      18.384   2.897  32.941  1.00  0.00     0.228 C 
BRANCH  14  15
HETATM   15  C2  UNK     1      17.909   2.190  34.209  1.00  0.00     0.038 C 
HETATM   16  C11 UNK     1      18.905   2.328  35.353  1.00  0.00     0.008 C 
ENDBRANCH  14  15
BRANCH  14  17
HETATM   17  C10 UNK     1      18.370   1.955  31.753  1.00  0.00     0.288 C 
HETATM   18  O4  UNK     1      18.931   0.867  31.722  1.00  0.00    -0.262 OA
BRANCH  17  19
HETATM   19  O3  UNK     1      17.663   2.517  30.729  1.00  0.00    -0.320 OA
BRANCH  19  20
HETATM   20  C15 UNK     1      18.358   2.619  29.482  1.00  0.00     0.174 C 
HETATM   21  C16 UNK     1      17.895   1.505  28.567  1.00  0.00     0.034 C 
ENDBRANCH  19  20
ENDBRANCH  17  19
ENDBRANCH  14  17
ENDBRANCH  13  14
ENDBRANCH   4  13
TORSDOF 6
ENDMDL
MODEL 8
REMARK VINA RESULT:      -7.1     22.439     24.399
REMARK  6 active torsions:
REMARK  status: ('A' for Active; 'I' for Inactive)
REMARK    1  A    between atoms: C1_6  and  O1_1 
REMARK    2  A    between atoms: C4_9  and  O1_1 
REMARK    3  A    between atoms: C10_15  and  O3_3 
REMARK    4  A    between atoms: C15_20  and  O3_3 
REMARK    5  A    between atoms: C1_6  and  C2_7 
REMARK    6  A    between atoms: C1_6  and  C10_15 
ROOT
HETATM    1  O2  UNK     1      12.977   8.123  10.858  1.00  0.00    -0.275 OA
HETATM    2  O5  UNK     1      14.145   9.509  12.253  1.00  0.00    -0.260 OA
HETATM    3  C3  UNK     1      14.189   6.469   9.530  1.00  0.00     0.004 A 
HETATM    4  C4  UNK     1      11.708   5.647   8.470  1.00  0.00     0.072 A 
HETATM    5  C5  UNK     1      12.992   7.074   9.917  1.00  0.00     0.092 A 
HETATM    6  C6  UNK     1      11.756   6.679   9.403  1.00  0.00     0.075 A 
HETATM    7  C7  UNK     1      15.444   6.948  10.124  1.00  0.00    -0.043 A 
HETATM    8  C8  UNK     1      14.119   5.432   8.590  1.00  0.00     0.017 A 
HETATM    9  C9  UNK     1      12.887   5.024   8.065  1.00  0.00     0.038 A 
HETATM   10  C12 UNK     1      15.400   7.948  11.017  1.00  0.00     0.090 A 
HETATM   11  C13 UNK     1      16.748   6.318   9.729  1.00  0.00     0.049 C 
HETATM   12  C14 UNK     1      14.146   8.596  11.434  1.00  0.00     0.288 A 
ENDROOT
BRANCH   4  13
HETATM   13  O1  UNK     1      10.513   5.247   7.956  1.00  0.00    -0.336 OA
BRANCH  13  14
HETATM   14  C1  UNK     1       9.400   6.121   8.142  1.00  0.00     0.228 C 
BRANCH  14  15
HETATM   15  C2  UNK     1       8.918   6.612   6.778  1.00  0.00     0.038 C 
HETATM   16  C11 UNK     1       9.786   6.093   5.639  1.00  0.00     0.008 C 
ENDBRANCH  14  15
BRANCH  14  17
HETATM   17  C10 UNK     1       8.311   5.348   8.860  1.00  0.00     0.288 C 
HETATM   18  O4  UNK     1       7.438   4.697   8.302  1.00  0.00    -0.262 OA
BRANCH  17  19
HETATM   19  O3  UNK     1       8.445   5.512  10.209  1.00  0.00    -0.320 OA
BRANCH  19  20
HETATM   20  C15 UNK     1       7.292   5.178  10.989  1.00  0.00     0.174 C 
HETATM   21  C16 UNK     1       6.581   6.453  11.390  1.00  0.00     0.034 C 
ENDBRANCH  19  20
ENDBRANCH  17  19
ENDBRANCH  14  17
ENDBRANCH  13  14
ENDBRANCH   4  13
TORSDOF 6
ENDMDL
MODEL 9
REMARK VINA RESULT:      -7.1     22.846     24.767
REMARK  6 active torsions:
REMARK  status: ('A' for Active; 'I' for Inactive)
REMARK    1  A    between atoms: C1_6  and  O1_1 
REMARK    2  A    between atoms: C4_9  and  O1_1 
REMARK    3  A    between atoms: C10_15  and  O3_3 
REMARK    4  A    between atoms: C15_20  and  O3_3 
REMARK    5  A    between atoms: C1_6  and  C2_7 
REMARK    6  A    between atoms: C1_6  and  C10_15 
ROOT
HETATM    1  O2  UNK     1      13.967   5.033   9.576  1.00  0.00    -0.275 OA
HETATM    2  O5  UNK     1      15.940   3.889   9.758  1.00  0.00    -0.260 OA
HETATM    3  C3  UNK     1      13.995   7.475   9.602  1.00  0.00     0.004 A 
HETATM    4  C4  UNK     1      11.189   7.413   9.329  1.00  0.00     0.072 A 
HETATM    5  C5  UNK     1      13.296   6.270   9.523  1.00  0.00     0.092 A 
HETATM    6  C6  UNK     1      11.907   6.222   9.387  1.00  0.00     0.075 A 
HETATM    7  C7  UNK     1      15.458   7.431   9.743  1.00  0.00    -0.043 A 
HETATM    8  C8  UNK     1      13.255   8.663   9.541  1.00  0.00     0.017 A 
HETATM    9  C9  UNK     1      11.862   8.631   9.406  1.00  0.00     0.038 A 
HETATM   10  C12 UNK     1      16.070   6.239   9.791  1.00  0.00     0.090 A 
HETATM   11  C13 UNK     1      16.239   8.709   9.831  1.00  0.00     0.049 C 
HETATM   12  C14 UNK     1      15.346   4.961   9.709  1.00  0.00     0.288 A 
ENDROOT
BRANCH   4  13
HETATM   13  O1  UNK     1       9.835   7.387   9.197  1.00  0.00    -0.336 OA
BRANCH  13  14
HETATM   14  C1  UNK     1       9.242   6.148   8.812  1.00  0.00     0.228 C 
BRANCH  14  15
HETATM   15  C2  UNK     1       8.250   5.712   9.889  1.00  0.00     0.038 C 
HETATM   16  C11 UNK     1       8.424   4.250  10.275  1.00  0.00     0.008 C 
ENDBRANCH  14  15
BRANCH  14  17
HETATM   17  C10 UNK     1       8.547   6.355   7.480  1.00  0.00     0.288 C 
HETATM   18  O4  UNK     1       7.524   7.008   7.325  1.00  0.00    -0.262 OA
BRANCH  17  19
HETATM   19  O3  UNK     1       9.221   5.683   6.500  1.00  0.00    -0.320 OA
BRANCH  19  20
HETATM   20  C15 UNK     1      10.033   6.493   5.644  1.00  0.00     0.174 C 
HETATM   21  C16 UNK     1      11.491   6.183   5.908  1.00  0.00     0.034 C 
ENDBRANCH  19  20
ENDBRANCH  17  19
ENDBRANCH  14  17
ENDBRANCH  13  14
ENDBRANCH   4  13
TORSDOF 6
ENDMDL
MODEL 10
REMARK VINA RESULT:      -7.1      2.321      8.264
REMARK  6 active torsions:
REMARK  status: ('A' for Active; 'I' for Inactive)
REMARK    1  A    between atoms: C1_6  and  O1_1 
REMARK    2  A    between atoms: C4_9  and  O1_1 
REMARK    3  A    between atoms: C10_15  and  O3_3 
REMARK    4  A    between atoms: C15_20  and  O3_3 
REMARK    5  A    between atoms: C1_6  and  C2_7 
REMARK    6  A    between atoms: C1_6  and  C10_15 
ROOT
HETATM    1  O2  UNK     1      15.362   8.594  33.325  1.00  0.00    -0.275 OA
HETATM    2  O5  UNK     1      13.904  10.349  33.471  1.00  0.00    -0.260 OA
HETATM    3  C3  UNK     1      17.730   8.965  33.798  1.00  0.00     0.004 A 
HETATM    4  C4  UNK     1      18.164   6.230  33.265  1.00  0.00     0.072 A 
HETATM    5  C5  UNK     1      16.683   8.116  33.436  1.00  0.00     0.092 A 
HETATM    6  C6  UNK     1      16.881   6.759  33.170  1.00  0.00     0.075 A 
HETATM    7  C7  UNK     1      17.429  10.379  34.062  1.00  0.00    -0.043 A 
HETATM    8  C8  UNK     1      19.014   8.413  33.889  1.00  0.00     0.017 A 
HETATM    9  C9  UNK     1      19.229   7.055  33.624  1.00  0.00     0.038 A 
HETATM   10  C12 UNK     1      16.163  10.806  33.948  1.00  0.00     0.090 A 
HETATM   11  C13 UNK     1      18.533  11.318  34.453  1.00  0.00     0.049 C 
HETATM   12  C14 UNK     1      15.049   9.923  33.567  1.00  0.00     0.288 A 
ENDROOT
BRANCH   4  13
HETATM   13  O1  UNK     1      18.379   4.911  33.008  1.00  0.00    -0.336 OA
BRANCH  13  14
HETATM   14  C1  UNK     1      18.297   4.492  31.647  1.00  0.00     0.228 C 
BRANCH  14  15
HETATM   15  C2  UNK     1      19.514   5.018  30.888  1.00  0.00     0.038 C 
HETATM   16  C11 UNK     1      19.126   5.986  29.778  1.00  0.00     0.008 C 
ENDBRANCH  14  15
BRANCH  14  17
HETATM   17  C10 UNK     1      18.252   2.976  31.625  1.00  0.00     0.288 C 
HETATM   18  O4  UNK     1      17.647   2.287  32.436  1.00  0.00    -0.262 OA
BRANCH  17  19
HETATM   19  O3  UNK     1      19.006   2.509  30.587  1.00  0.00    -0.320 OA
BRANCH  19  20
HETATM   20  C15 UNK     1      18.454   1.398  29.873  1.00  0.00     0.174 C 
HETATM   21  C16 UNK     1      17.865   1.893  28.569  1.00  0.00     0.034 C 
ENDBRANCH  19  20
ENDBRANCH  17  19
ENDBRANCH  14  17
ENDBRANCH  13  14
ENDBRANCH   4  13
TORSDOF 6
ENDMDL
