MODEL 1
REMARK VINA RESULT:      -8.6      0.000      0.000
REMARK  3 active torsions:
REMARK  status: ('A' for Active; 'I' for Inactive)
REMARK    1  A    between atoms: C7_11  and  O2_2 
REMARK    2  A    between atoms: C5_9  and  O3_3 
REMARK    3  A    between atoms: C1_5  and  C2_6 
ROOT
HETATM    1  O1  UNK     1      18.479   0.229  32.506  1.00  0.00    -0.306 OA
HETATM    2  O4  UNK     1      20.897  -3.044  32.720  1.00  0.00    -0.284 OA
HETATM    3  C1  UNK     1      18.568  -0.530  33.662  1.00  0.00     0.126 A 
HETATM    4  C3  UNK     1      20.089  -1.239  31.435  1.00  0.00     0.051 A 
HETATM    5  C4  UNK     1      19.241  -0.133  31.425  1.00  0.00     0.090 A 
HETATM    6  C5  UNK     1      19.339  -1.624  33.799  1.00  0.00     0.152 A 
HETATM    7  C6  UNK     1      20.175  -2.058  32.654  1.00  0.00     0.220 A 
HETATM    8  C8  UNK     1      20.841  -1.561  30.303  1.00  0.00     0.018 A 
HETATM    9  C10 UNK     1      19.139   0.658  30.281  1.00  0.00     0.038 A 
HETATM   10  C12 UNK     1      20.739  -0.768  29.160  1.00  0.00     0.001 A 
HETATM   11  C13 UNK     1      19.890   0.339  29.148  1.00  0.00     0.003 A 
ENDROOT
BRANCH   3  12
HETATM   12  C2  UNK     1      17.701  -0.033  34.744  1.00  0.00     0.034 A 
HETATM   13  C7  UNK     1      18.193   0.836  35.722  1.00  0.00     0.081 A 
HETATM   14  C11 UNK     1      17.353   1.294  36.737  1.00  0.00     0.038 A 
HETATM   15  C15 UNK     1      16.021   0.884  36.777  1.00  0.00     0.003 A 
HETATM   16  C14 UNK     1      15.527   0.016  35.803  1.00  0.00     0.001 A 
HETATM   17  C9  UNK     1      16.367  -0.442  34.787  1.00  0.00     0.017 A 
BRANCH  13  18
HETATM   18  O2  UNK     1      19.492   1.251  35.706  1.00  0.00    -0.355 OA
HETATM   19  C16 UNK     1      19.747   2.589  36.126  1.00  0.00     0.210 C 
ENDBRANCH  13  18
ENDBRANCH   3  12
BRANCH   6  20
HETATM   20  O3  UNK     1      19.378  -2.377  34.953  1.00  0.00    -0.355 OA
HETATM   21  H9  UNK     1      18.913  -1.911  35.666  1.00  0.00     0.218 HD
ENDBRANCH   6  20
TORSDOF 3
ENDMDL
MODEL 2
REMARK VINA RESULT:      -8.6      1.669      3.469
REMARK  3 active torsions:
REMARK  status: ('A' for Active; 'I' for Inactive)
REMARK    1  A    between atoms: C7_11  and  O2_2 
REMARK    2  A    between atoms: C5_9  and  O3_3 
REMARK    3  A    between atoms: C1_5  and  C2_6 
ROOT
HETATM    1  O1  UNK     1      19.037  -0.014  32.843  1.00  0.00    -0.306 OA
HETATM    2  O4  UNK     1      18.586   2.968  30.103  1.00  0.00    -0.284 OA
HETATM    3  C1  UNK     1      18.480   1.207  33.188  1.00  0.00     0.126 A 
HETATM    4  C3  UNK     1      19.294   0.765  30.559  1.00  0.00     0.051 A 
HETATM    5  C4  UNK     1      19.424  -0.212  31.543  1.00  0.00     0.090 A 
HETATM    6  C5  UNK     1      18.309   2.236  32.338  1.00  0.00     0.152 A 
HETATM    7  C6  UNK     1      18.718   2.069  30.923  1.00  0.00     0.220 A 
HETATM    8  C8  UNK     1      19.707   0.507  29.249  1.00  0.00     0.018 A 
HETATM    9  C10 UNK     1      19.969  -1.455  31.224  1.00  0.00     0.038 A 
HETATM   10  C12 UNK     1      20.251  -0.738  28.932  1.00  0.00     0.001 A 
HETATM   11  C13 UNK     1      20.382  -1.717  29.917  1.00  0.00     0.003 A 
ENDROOT
BRANCH   3  12
HETATM   12  C2  UNK     1      18.108   1.287  34.612  1.00  0.00     0.034 A 
HETATM   13  C7  UNK     1      16.947   0.676  35.090  1.00  0.00     0.081 A 
HETATM   14  C11 UNK     1      16.616   0.765  36.442  1.00  0.00     0.038 A 
HETATM   15  C15 UNK     1      17.443   1.467  37.318  1.00  0.00     0.003 A 
HETATM   16  C14 UNK     1      18.604   2.079  36.843  1.00  0.00     0.001 A 
HETATM   17  C9  UNK     1      18.935   1.990  35.491  1.00  0.00     0.017 A 
BRANCH  13  18
HETATM   18  O2  UNK     1      16.120  -0.016  34.255  1.00  0.00    -0.355 OA
HETATM   19  C16 UNK     1      15.919  -1.397  34.544  1.00  0.00     0.210 C 
ENDBRANCH  13  18
ENDBRANCH   3  12
BRANCH   6  20
HETATM   20  O3  UNK     1      17.782   3.450  32.723  1.00  0.00    -0.355 OA
HETATM   21  H9  UNK     1      16.834   3.354  32.907  1.00  0.00     0.218 HD
ENDBRANCH   6  20
TORSDOF 3
ENDMDL
MODEL 3
REMARK VINA RESULT:      -8.5     24.649     26.656
REMARK  3 active torsions:
REMARK  status: ('A' for Active; 'I' for Inactive)
REMARK    1  A    between atoms: C7_11  and  O2_2 
REMARK    2  A    between atoms: C5_9  and  O3_3 
REMARK    3  A    between atoms: C1_5  and  C2_6 
ROOT
HETATM    1  O1  UNK     1      13.240   7.539   8.476  1.00  0.00    -0.306 OA
HETATM    2  O4  UNK     1      15.238   4.216   9.730  1.00  0.00    -0.284 OA
HETATM    3  C1  UNK     1      12.697   6.272   8.334  1.00  0.00     0.126 A 
HETATM    4  C3  UNK     1      15.203   6.565   9.520  1.00  0.00     0.051 A 
HETATM    5  C4  UNK     1      14.471   7.660   9.068  1.00  0.00     0.090 A 
HETATM    6  C5  UNK     1      13.304   5.134   8.719  1.00  0.00     0.152 A 
HETATM    7  C6  UNK     1      14.638   5.216   9.358  1.00  0.00     0.220 A 
HETATM    8  C8  UNK     1      16.453   6.749  10.116  1.00  0.00     0.018 A 
HETATM    9  C10 UNK     1      14.985   8.949   9.208  1.00  0.00     0.038 A 
HETATM   10  C12 UNK     1      16.965   8.040  10.255  1.00  0.00     0.001 A 
HETATM   11  C13 UNK     1      16.233   9.137   9.802  1.00  0.00     0.003 A 
ENDROOT
BRANCH   3  12
HETATM   12  C2  UNK     1      11.375   6.282   7.685  1.00  0.00     0.034 A 
HETATM   13  C7  UNK     1      10.217   5.968   8.400  1.00  0.00     0.081 A 
HETATM   14  C11 UNK     1       8.975   5.985   7.764  1.00  0.00     0.038 A 
HETATM   15  C15 UNK     1       8.889   6.316   6.412  1.00  0.00     0.003 A 
HETATM   16  C14 UNK     1      10.044   6.630   5.695  1.00  0.00     0.001 A 
HETATM   17  C9  UNK     1      11.286   6.613   6.331  1.00  0.00     0.017 A 
BRANCH  13  18
HETATM   18  O2  UNK     1      10.273   5.640   9.722  1.00  0.00    -0.355 OA
HETATM   19  C16 UNK     1       9.616   4.438  10.118  1.00  0.00     0.210 C 
ENDBRANCH  13  18
ENDBRANCH   3  12
BRANCH   6  20
HETATM   20  O3  UNK     1      12.749   3.886   8.532  1.00  0.00    -0.355 OA
HETATM   21  H9  UNK     1      11.853   3.974   8.170  1.00  0.00     0.218 HD
ENDBRANCH   6  20
TORSDOF 3
ENDMDL
MODEL 4
REMARK VINA RESULT:      -8.4      1.351      2.670
REMARK  3 active torsions:
REMARK  status: ('A' for Active; 'I' for Inactive)
REMARK    1  A    between atoms: C7_11  and  O2_2 
REMARK    2  A    between atoms: C5_9  and  O3_3 
REMARK    3  A    between atoms: C1_5  and  C2_6 
ROOT
HETATM    1  O1  UNK     1      18.786  -0.414  32.999  1.00  0.00    -0.306 OA
HETATM    2  O4  UNK     1      18.984   2.809  30.514  1.00  0.00    -0.284 OA
HETATM    3  C1  UNK     1      18.261   0.815  33.366  1.00  0.00     0.126 A 
HETATM    4  C3  UNK     1      19.464   0.527  30.867  1.00  0.00     0.051 A 
HETATM    5  C4  UNK     1      19.367  -0.535  31.764  1.00  0.00     0.090 A 
HETATM    6  C5  UNK     1      18.298   1.920  32.599  1.00  0.00     0.152 A 
HETATM    7  C6  UNK     1      18.922   1.838  31.257  1.00  0.00     0.220 A 
HETATM    8  C8  UNK     1      20.068   0.345  29.620  1.00  0.00     0.018 A 
HETATM    9  C10 UNK     1      19.874  -1.787  31.419  1.00  0.00     0.038 A 
HETATM   10  C12 UNK     1      20.574  -0.909  29.277  1.00  0.00     0.001 A 
HETATM   11  C13 UNK     1      20.478  -1.973  30.174  1.00  0.00     0.003 A 
ENDROOT
BRANCH   3  12
HETATM   12  C2  UNK     1      17.667   0.808  34.714  1.00  0.00     0.034 A 
HETATM   13  C7  UNK     1      18.410   1.193  35.832  1.00  0.00     0.081 A 
HETATM   14  C11 UNK     1      17.825   1.178  37.099  1.00  0.00     0.038 A 
HETATM   15  C15 UNK     1      16.498   0.777  37.250  1.00  0.00     0.003 A 
HETATM   16  C14 UNK     1      15.755   0.390  36.135  1.00  0.00     0.001 A 
HETATM   17  C9  UNK     1      16.338   0.405  34.868  1.00  0.00     0.017 A 
BRANCH  13  18
HETATM   18  O2  UNK     1      19.709   1.590  35.713  1.00  0.00    -0.355 OA
HETATM   19  C16 UNK     1      20.025   2.908  36.153  1.00  0.00     0.210 C 
ENDBRANCH  13  18
ENDBRANCH   3  12
BRANCH   6  20
HETATM   20  O3  UNK     1      17.796   3.137  33.008  1.00  0.00    -0.355 OA
HETATM   21  H9  UNK     1      18.036   3.298  33.934  1.00  0.00     0.218 HD
ENDBRANCH   6  20
TORSDOF 3
ENDMDL
MODEL 5
REMARK VINA RESULT:      -8.2     24.814     26.930
REMARK  3 active torsions:
REMARK  status: ('A' for Active; 'I' for Inactive)
REMARK    1  A    between atoms: C7_11  and  O2_2 
REMARK    2  A    between atoms: C5_9  and  O3_3 
REMARK    3  A    between atoms: C1_5  and  C2_6 
ROOT
HETATM    1  O1  UNK     1      13.075   8.247   8.168  1.00  0.00    -0.306 OA
HETATM    2  O4  UNK     1      14.889   5.573  10.651  1.00  0.00    -0.284 OA
HETATM    3  C1  UNK     1      12.497   7.020   8.456  1.00  0.00     0.126 A 
HETATM    4  C3  UNK     1      14.945   7.689   9.611  1.00  0.00     0.051 A 
HETATM    5  C4  UNK     1      14.275   8.557   8.752  1.00  0.00     0.090 A 
HETATM    6  C5  UNK     1      13.043   6.089   9.260  1.00  0.00     0.152 A 
HETATM    7  C6  UNK     1      14.344   6.379   9.909  1.00  0.00     0.220 A 
HETATM    8  C8  UNK     1      16.167   8.059  10.178  1.00  0.00     0.018 A 
HETATM    9  C10 UNK     1      14.825   9.804   8.453  1.00  0.00     0.038 A 
HETATM   10  C12 UNK     1      16.715   9.307   9.877  1.00  0.00     0.001 A 
HETATM   11  C13 UNK     1      16.046  10.177   9.017  1.00  0.00     0.003 A 
ENDROOT
BRANCH   3  12
HETATM   12  C2  UNK     1      11.212   6.814   7.766  1.00  0.00     0.034 A 
HETATM   13  C7  UNK     1      10.002   7.152   8.376  1.00  0.00     0.081 A 
HETATM   14  C11 UNK     1       8.798   6.947   7.702  1.00  0.00     0.038 A 
HETATM   15  C15 UNK     1       8.801   6.404   6.418  1.00  0.00     0.003 A 
HETATM   16  C14 UNK     1      10.009   6.065   5.806  1.00  0.00     0.001 A 
HETATM   17  C9  UNK     1      11.213   6.269   6.479  1.00  0.00     0.017 A 
BRANCH  13  18
HETATM   18  O2  UNK     1       9.971   7.684   9.631  1.00  0.00    -0.355 OA
HETATM   19  C16 UNK     1       9.221   8.884   9.805  1.00  0.00     0.210 C 
ENDBRANCH  13  18
ENDBRANCH   3  12
BRANCH   6  20
HETATM   20  O3  UNK     1      12.457   4.865   9.499  1.00  0.00    -0.355 OA
HETATM   21  H9  UNK     1      13.134   4.170   9.500  1.00  0.00     0.218 HD
ENDBRANCH   6  20
TORSDOF 3
ENDMDL
MODEL 6
REMARK VINA RESULT:      -8.1     24.501     27.242
REMARK  3 active torsions:
REMARK  status: ('A' for Active; 'I' for Inactive)
REMARK    1  A    between atoms: C7_11  and  O2_2 
REMARK    2  A    between atoms: C5_9  and  O3_3 
REMARK    3  A    between atoms: C1_5  and  C2_6 
ROOT
HETATM    1  O1  UNK     1      11.669   7.849   9.053  1.00  0.00    -0.306 OA
HETATM    2  O4  UNK     1      11.572   5.957   5.445  1.00  0.00    -0.284 OA
HETATM    3  C1  UNK     1      12.830   7.574   8.349  1.00  0.00     0.126 A 
HETATM    4  C3  UNK     1      10.367   6.837   7.271  1.00  0.00     0.051 A 
HETATM    5  C4  UNK     1      10.468   7.483   8.501  1.00  0.00     0.090 A 
HETATM    6  C5  UNK     1      12.872   6.948   7.158  1.00  0.00     0.152 A 
HETATM    7  C6  UNK     1      11.598   6.529   6.527  1.00  0.00     0.220 A 
HETATM    8  C8  UNK     1       9.115   6.488   6.758  1.00  0.00     0.018 A 
HETATM    9  C10 UNK     1       9.316   7.785   9.227  1.00  0.00     0.038 A 
HETATM   10  C12 UNK     1       7.965   6.791   7.486  1.00  0.00     0.001 A 
HETATM   11  C13 UNK     1       8.064   7.437   8.718  1.00  0.00     0.003 A 
ENDROOT
BRANCH   3  12
HETATM   12  C2  UNK     1      14.047   8.019   9.051  1.00  0.00     0.034 A 
HETATM   13  C7  UNK     1      14.667   7.208  10.005  1.00  0.00     0.081 A 
HETATM   14  C11 UNK     1      15.818   7.651  10.656  1.00  0.00     0.038 A 
HETATM   15  C15 UNK     1      16.351   8.904  10.357  1.00  0.00     0.003 A 
HETATM   16  C14 UNK     1      15.733   9.716   9.406  1.00  0.00     0.001 A 
HETATM   17  C9  UNK     1      14.582   9.274   8.753  1.00  0.00     0.017 A 
BRANCH  13  18
HETATM   18  O2  UNK     1      14.166   5.979  10.316  1.00  0.00    -0.355 OA
HETATM   19  C16 UNK     1      14.957   4.849   9.956  1.00  0.00     0.210 C 
ENDBRANCH  13  18
ENDBRANCH   3  12
BRANCH   6  20
HETATM   20  O3  UNK     1      14.048   6.661   6.500  1.00  0.00    -0.355 OA
HETATM   21  H9  UNK     1      13.855   6.324   5.611  1.00  0.00     0.218 HD
ENDBRANCH   6  20
TORSDOF 3
ENDMDL
MODEL 7
REMARK VINA RESULT:      -8.0     24.479     26.880
REMARK  3 active torsions:
REMARK  status: ('A' for Active; 'I' for Inactive)
REMARK    1  A    between atoms: C7_11  and  O2_2 
REMARK    2  A    between atoms: C5_9  and  O3_3 
REMARK    3  A    between atoms: C1_5  and  C2_6 
ROOT
HETATM    1  O1  UNK     1      12.915   7.257   7.825  1.00  0.00    -0.306 OA
HETATM    2  O4  UNK     1       9.655   8.411   9.979  1.00  0.00    -0.284 OA
HETATM    3  C1  UNK     1      13.045   7.927   9.031  1.00  0.00     0.126 A 
HETATM    4  C3  UNK     1      10.501   7.333   8.060  1.00  0.00     0.051 A 
HETATM    5  C4  UNK     1      11.655   6.969   7.370  1.00  0.00     0.090 A 
HETATM    6  C5  UNK     1      12.014   8.343   9.788  1.00  0.00     0.152 A 
HETATM    7  C6  UNK     1      10.632   8.059   9.332  1.00  0.00     0.220 A 
HETATM    8  C8  UNK     1       9.241   7.013   7.547  1.00  0.00     0.018 A 
HETATM    9  C10 UNK     1      11.556   6.282   6.160  1.00  0.00     0.038 A 
HETATM   10  C12 UNK     1       9.145   6.326   6.337  1.00  0.00     0.001 A 
HETATM   11  C13 UNK     1      10.300   5.961   5.644  1.00  0.00     0.003 A 
ENDROOT
BRANCH   3  12
HETATM   12  C2  UNK     1      14.449   8.172   9.403  1.00  0.00     0.034 A 
HETATM   13  C7  UNK     1      15.173   7.237  10.147  1.00  0.00     0.081 A 
HETATM   14  C11 UNK     1      16.502   7.491  10.487  1.00  0.00     0.038 A 
HETATM   15  C15 UNK     1      17.109   8.680  10.087  1.00  0.00     0.003 A 
HETATM   16  C14 UNK     1      16.389   9.617   9.345  1.00  0.00     0.001 A 
HETATM   17  C9  UNK     1      15.060   9.363   9.003  1.00  0.00     0.017 A 
BRANCH  13  18
HETATM   18  O2  UNK     1      14.603   6.066  10.552  1.00  0.00    -0.355 OA
HETATM   19  C16 UNK     1      15.047   4.874   9.908  1.00  0.00     0.210 C 
ENDBRANCH  13  18
ENDBRANCH   3  12
BRANCH   6  20
HETATM   20  O3  UNK     1      12.179   9.038  10.967  1.00  0.00    -0.355 OA
HETATM   21  H9  UNK     1      11.426   8.871  11.556  1.00  0.00     0.218 HD
ENDBRANCH   6  20
TORSDOF 3
ENDMDL
MODEL 8
REMARK VINA RESULT:      -7.8      1.467      5.570
REMARK  3 active torsions:
REMARK  status: ('A' for Active; 'I' for Inactive)
REMARK    1  A    between atoms: C7_11  and  O2_2 
REMARK    2  A    between atoms: C5_9  and  O3_3 
REMARK    3  A    between atoms: C1_5  and  C2_6 
ROOT
HETATM    1  O1  UNK     1      18.073  -0.306  33.296  1.00  0.00    -0.306 OA
HETATM    2  O4  UNK     1      20.146  -2.413  36.100  1.00  0.00    -0.284 OA
HETATM    3  C1  UNK     1      19.204  -1.034  32.963  1.00  0.00     0.126 A 
HETATM    4  C3  UNK     1      18.309  -1.021  35.603  1.00  0.00     0.051 A 
HETATM    5  C4  UNK     1      17.647  -0.319  34.598  1.00  0.00     0.090 A 
HETATM    6  C5  UNK     1      19.939  -1.745  33.838  1.00  0.00     0.152 A 
HETATM    7  C6  UNK     1      19.519  -1.783  35.259  1.00  0.00     0.220 A 
HETATM    8  C8  UNK     1      17.828  -0.997  36.915  1.00  0.00     0.018 A 
HETATM    9  C10 UNK     1      16.498   0.413  34.899  1.00  0.00     0.038 A 
HETATM   10  C12 UNK     1      16.679  -0.265  37.213  1.00  0.00     0.001 A 
HETATM   11  C13 UNK     1      16.015   0.439  36.208  1.00  0.00     0.003 A 
ENDROOT
BRANCH   3  12
HETATM   12  C2  UNK     1      19.552  -0.936  31.535  1.00  0.00     0.034 A 
HETATM   13  C7  UNK     1      19.371   0.255  30.828  1.00  0.00     0.081 A 
HETATM   14  C11 UNK     1      19.708   0.324  29.476  1.00  0.00     0.038 A 
HETATM   15  C15 UNK     1      20.225  -0.797  28.828  1.00  0.00     0.003 A 
HETATM   16  C14 UNK     1      20.406  -1.988  29.532  1.00  0.00     0.001 A 
HETATM   17  C9  UNK     1      20.069  -2.058  30.883  1.00  0.00     0.017 A 
BRANCH  13  18
HETATM   18  O2  UNK     1      18.867   1.366  31.437  1.00  0.00    -0.355 OA
HETATM   19  C16 UNK     1      18.641   2.508  30.614  1.00  0.00     0.210 C 
ENDBRANCH  13  18
ENDBRANCH   3  12
BRANCH   6  20
HETATM   20  O3  UNK     1      21.079  -2.432  33.479  1.00  0.00    -0.355 OA
HETATM   21  H9  UNK     1      20.900  -3.385  33.467  1.00  0.00     0.218 HD
ENDBRANCH   6  20
TORSDOF 3
ENDMDL
MODEL 9
REMARK VINA RESULT:      -7.7      0.958      2.058
REMARK  3 active torsions:
REMARK  status: ('A' for Active; 'I' for Inactive)
REMARK    1  A    between atoms: C7_11  and  O2_2 
REMARK    2  A    between atoms: C5_9  and  O3_3 
REMARK    3  A    between atoms: C1_5  and  C2_6 
ROOT
HETATM    1  O1  UNK     1      18.691   0.591  32.641  1.00  0.00    -0.306 OA
HETATM    2  O4  UNK     1      20.571  -3.024  32.583  1.00  0.00    -0.284 OA
HETATM    3  C1  UNK     1      18.775  -0.199  33.777  1.00  0.00     0.126 A 
HETATM    4  C3  UNK     1      19.932  -1.086  31.401  1.00  0.00     0.051 A 
HETATM    5  C4  UNK     1      19.272   0.138  31.485  1.00  0.00     0.090 A 
HETATM    6  C5  UNK     1      19.374  -1.403  33.827  1.00  0.00     0.152 A 
HETATM    7  C6  UNK     1      20.011  -1.936  32.599  1.00  0.00     0.220 A 
HETATM    8  C8  UNK     1      20.505  -1.497  30.194  1.00  0.00     0.018 A 
HETATM    9  C10 UNK     1      19.182   0.961  30.363  1.00  0.00     0.038 A 
HETATM   10  C12 UNK     1      20.414  -0.672  29.073  1.00  0.00     0.001 A 
HETATM   11  C13 UNK     1      19.754   0.554  29.156  1.00  0.00     0.003 A 
ENDROOT
BRANCH   3  12
HETATM   12  C2  UNK     1      18.112   0.404  34.946  1.00  0.00     0.034 A 
HETATM   13  C7  UNK     1      16.737   0.263  35.149  1.00  0.00     0.081 A 
HETATM   14  C11 UNK     1      16.132   0.842  36.264  1.00  0.00     0.038 A 
HETATM   15  C15 UNK     1      16.899   1.564  37.178  1.00  0.00     0.003 A 
HETATM   16  C14 UNK     1      18.272   1.706  36.978  1.00  0.00     0.001 A 
HETATM   17  C9  UNK     1      18.878   1.127  35.863  1.00  0.00     0.017 A 
BRANCH  13  18
HETATM   18  O2  UNK     1      15.964  -0.436  34.270  1.00  0.00    -0.355 OA
HETATM   19  C16 UNK     1      15.695  -1.799  34.590  1.00  0.00     0.210 C 
ENDBRANCH  13  18
ENDBRANCH   3  12
BRANCH   6  20
HETATM   20  O3  UNK     1      19.410  -2.178  34.966  1.00  0.00    -0.355 OA
HETATM   21  H9  UNK     1      20.317  -2.216  35.310  1.00  0.00     0.218 HD
ENDBRANCH   6  20
TORSDOF 3
ENDMDL
MODEL 10
REMARK VINA RESULT:      -7.6     25.472     27.505
REMARK  3 active torsions:
REMARK  status: ('A' for Active; 'I' for Inactive)
REMARK    1  A    between atoms: C7_11  and  O2_2 
REMARK    2  A    between atoms: C5_9  and  O3_3 
REMARK    3  A    between atoms: C1_5  and  C2_6 
ROOT
HETATM    1  O1  UNK     1       7.697   4.412   8.976  1.00  0.00    -0.306 OA
HETATM    2  O4  UNK     1       6.513   7.105  11.797  1.00  0.00    -0.284 OA
HETATM    3  C1  UNK     1       8.258   5.678   9.049  1.00  0.00     0.126 A 
HETATM    4  C3  UNK     1       6.289   4.943  10.881  1.00  0.00     0.051 A 
HETATM    5  C4  UNK     1       6.735   4.070   9.891  1.00  0.00     0.090 A 
HETATM    6  C5  UNK     1       7.910   6.616   9.949  1.00  0.00     0.152 A 
HETATM    7  C6  UNK     1       6.870   6.293  10.954  1.00  0.00     0.220 A 
HETATM    8  C8  UNK     1       5.305   4.539  11.787  1.00  0.00     0.018 A 
HETATM    9  C10 UNK     1       6.198   2.786   9.800  1.00  0.00     0.038 A 
HETATM   10  C12 UNK     1       4.770   3.254  11.694  1.00  0.00     0.001 A 
HETATM   11  C13 UNK     1       5.215   2.379  10.703  1.00  0.00     0.003 A 
ENDROOT
BRANCH   3  12
HETATM   12  C2  UNK     1       9.276   5.915   8.012  1.00  0.00     0.034 A 
HETATM   13  C7  UNK     1      10.639   5.816   8.301  1.00  0.00     0.081 A 
HETATM   14  C11 UNK     1      11.585   6.045   7.301  1.00  0.00     0.038 A 
HETATM   15  C15 UNK     1      11.171   6.375   6.012  1.00  0.00     0.003 A 
HETATM   16  C14 UNK     1       9.810   6.475   5.720  1.00  0.00     0.001 A 
HETATM   17  C9  UNK     1       8.864   6.246   6.719  1.00  0.00     0.017 A 
BRANCH  13  18
HETATM   18  O2  UNK     1      11.071   5.496   9.554  1.00  0.00    -0.355 OA
HETATM   19  C16 UNK     1      12.480   5.500   9.772  1.00  0.00     0.210 C 
ENDBRANCH  13  18
ENDBRANCH   3  12
BRANCH   6  20
HETATM   20  O3  UNK     1       8.466   7.878   9.972  1.00  0.00    -0.355 OA
HETATM   21  H9  UNK     1       7.915   8.471  10.507  1.00  0.00     0.218 HD
ENDBRANCH   6  20
TORSDOF 3
ENDMDL
