MODEL 1
REMARK VINA RESULT:      -7.4      0.000      0.000
REMARK  3 active torsions:
REMARK  status: ('A' for Active; 'I' for Inactive)
REMARK    1  A    between atoms: C13_16  and  O3_3 
REMARK    2  A    between atoms: C1_4  and  C4_7 
REMARK    3  A    between atoms: C3_6  and  C6_9 
ROOT
HETATM    1  O1  UNK     1      29.451  -6.081  39.096  1.00  0.00    -0.274 OA
HETATM    2  O2  UNK     1      31.090  -4.519  38.892  1.00  0.00    -0.259 OA
HETATM    3  C1  UNK     1      30.542  -7.422  36.837  1.00  0.00     0.004 A 
HETATM    4  C2  UNK     1      29.347  -7.940  37.536  1.00  0.00     0.010 A 
HETATM    5  C3  UNK     1      31.115  -6.282  37.297  1.00  0.00     0.062 A 
HETATM    6  C5  UNK     1      28.844  -7.258  38.637  1.00  0.00     0.093 A 
HETATM    7  C7  UNK     1      30.570  -5.551  38.479  1.00  0.00     0.300 A 
HETATM    8  C8  UNK     1      28.683  -9.111  37.138  1.00  0.00     0.018 A 
HETATM    9  C9  UNK     1      27.719  -7.699  39.338  1.00  0.00     0.074 A 
HETATM   10  C12 UNK     1      27.554  -9.567  37.829  1.00  0.00     0.037 A 
HETATM   11  C13 UNK     1      27.073  -8.861  38.929  1.00  0.00     0.068 A 
ENDROOT
BRANCH   3  12
HETATM   12  C4  UNK     1      31.142  -8.077  35.668  1.00  0.00    -0.024 A 
HETATM   13  C10 UNK     1      32.135  -9.030  35.853  1.00  0.00     0.012 A 
HETATM   14  C16 UNK     1      32.705  -9.653  34.743  1.00  0.00     0.001 A 
HETATM   15  C20 UNK     1      32.277  -9.316  33.459  1.00  0.00     0.000 A 
HETATM   16  C17 UNK     1      31.279  -8.358  33.284  1.00  0.00     0.001 A 
HETATM   17  C11 UNK     1      30.708  -7.735  34.394  1.00  0.00     0.012 A 
ENDBRANCH   3  12
BRANCH   5  18
HETATM   18  C6  UNK     1      32.299  -5.721  36.645  1.00  0.00    -0.019 A 
HETATM   19  C14 UNK     1      32.146  -4.803  35.613  1.00  0.00     0.012 A 
HETATM   20  C18 UNK     1      33.275  -4.269  34.990  1.00  0.00     0.001 A 
HETATM   21  C21 UNK     1      34.549  -4.656  35.406  1.00  0.00     0.000 A 
HETATM   22  C19 UNK     1      34.694  -5.577  36.443  1.00  0.00     0.001 A 
HETATM   23  C15 UNK     1      33.566  -6.112  37.064  1.00  0.00     0.012 A 
ENDBRANCH   5  18
BRANCH  11  24
HETATM   24  O3  UNK     1      25.976  -9.306  39.599  1.00  0.00    -0.361 OA
HETATM   25  H14 UNK     1      25.656 -10.120  39.175  1.00  0.00     0.217 HD
ENDBRANCH  11  24
TORSDOF 3
ENDMDL
MODEL 2
REMARK VINA RESULT:      -7.3      1.735      5.584
REMARK  3 active torsions:
REMARK  status: ('A' for Active; 'I' for Inactive)
REMARK    1  A    between atoms: C13_16  and  O3_3 
REMARK    2  A    between atoms: C1_4  and  C4_7 
REMARK    3  A    between atoms: C3_6  and  C6_9 
ROOT
HETATM    1  O1  UNK     1      29.094  -4.638  38.252  1.00  0.00    -0.274 OA
HETATM    2  O2  UNK     1      27.383  -5.805  39.191  1.00  0.00    -0.259 OA
HETATM    3  C1  UNK     1      29.908  -7.026  36.937  1.00  0.00     0.004 A 
HETATM    4  C2  UNK     1      30.648  -5.759  36.758  1.00  0.00     0.010 A 
HETATM    5  C3  UNK     1      28.822  -7.031  37.749  1.00  0.00     0.062 A 
HETATM    6  C5  UNK     1      30.219  -4.613  37.416  1.00  0.00     0.093 A 
HETATM    7  C7  UNK     1      28.366  -5.798  38.456  1.00  0.00     0.300 A 
HETATM    8  C8  UNK     1      31.783  -5.651  35.939  1.00  0.00     0.018 A 
HETATM    9  C9  UNK     1      30.875  -3.387  37.286  1.00  0.00     0.074 A 
HETATM   10  C12 UNK     1      32.453  -4.431  35.798  1.00  0.00     0.037 A 
HETATM   11  C13 UNK     1      31.999  -3.299  36.471  1.00  0.00     0.068 A 
ENDROOT
BRANCH   3  12
HETATM   12  C4  UNK     1      30.289  -8.283  36.281  1.00  0.00    -0.024 A 
HETATM   13  C10 UNK     1      29.789  -8.575  35.019  1.00  0.00     0.012 A 
HETATM   14  C16 UNK     1      30.150  -9.769  34.396  1.00  0.00     0.001 A 
HETATM   15  C20 UNK     1      31.008 -10.660  35.040  1.00  0.00     0.000 A 
HETATM   16  C17 UNK     1      31.505 -10.358  36.308  1.00  0.00     0.001 A 
HETATM   17  C11 UNK     1      31.145  -9.163  36.931  1.00  0.00     0.012 A 
ENDBRANCH   3  12
BRANCH   5  18
HETATM   18  C6  UNK     1      28.051  -8.256  37.965  1.00  0.00    -0.019 A 
HETATM   19  C14 UNK     1      27.075  -8.625  37.048  1.00  0.00     0.012 A 
HETATM   20  C18 UNK     1      26.339  -9.792  37.254  1.00  0.00     0.001 A 
HETATM   21  C21 UNK     1      26.586 -10.583  38.377  1.00  0.00     0.000 A 
HETATM   22  C19 UNK     1      27.569 -10.207  39.292  1.00  0.00     0.001 A 
HETATM   23  C15 UNK     1      28.303  -9.039  39.087  1.00  0.00     0.012 A 
ENDBRANCH   5  18
BRANCH  11  24
HETATM   24  O3  UNK     1      32.652  -2.114  36.332  1.00  0.00    -0.361 OA
HETATM   25  H14 UNK     1      31.997  -1.400  36.248  1.00  0.00     0.217 HD
ENDBRANCH  11  24
TORSDOF 3
ENDMDL
MODEL 3
REMARK VINA RESULT:      -7.2     20.429     21.891
REMARK  3 active torsions:
REMARK  status: ('A' for Active; 'I' for Inactive)
REMARK    1  A    between atoms: C13_16  and  O3_3 
REMARK    2  A    between atoms: C1_4  and  C4_7 
REMARK    3  A    between atoms: C3_6  and  C6_9 
ROOT
HETATM    1  O1  UNK     1      19.508  10.641  34.423  1.00  0.00    -0.274 OA
HETATM    2  O2  UNK     1      20.680   8.729  34.048  1.00  0.00    -0.259 OA
HETATM    3  C1  UNK     1      17.145   9.265  33.636  1.00  0.00     0.004 A 
HETATM    4  C2  UNK     1      17.108  10.685  34.048  1.00  0.00     0.010 A 
HETATM    5  C3  UNK     1      18.339   8.624  33.640  1.00  0.00     0.062 A 
HETATM    6  C5  UNK     1      18.283  11.323  34.427  1.00  0.00     0.093 A 
HETATM    7  C7  UNK     1      19.600   9.313  34.046  1.00  0.00     0.300 A 
HETATM    8  C8  UNK     1      15.922  11.436  34.079  1.00  0.00     0.018 A 
HETATM    9  C9  UNK     1      18.311  12.661  34.826  1.00  0.00     0.074 A 
HETATM   10  C12 UNK     1      15.933  12.778  34.476  1.00  0.00     0.037 A 
HETATM   11  C13 UNK     1      17.127  13.390  34.850  1.00  0.00     0.068 A 
ENDROOT
BRANCH   3  12
HETATM   12  C4  UNK     1      15.954   8.513  33.222  1.00  0.00    -0.024 A 
HETATM   13  C10 UNK     1      15.097   8.004  34.189  1.00  0.00     0.012 A 
HETATM   14  C16 UNK     1      13.966   7.289  33.796  1.00  0.00     0.001 A 
HETATM   15  C20 UNK     1      13.703   7.090  32.441  1.00  0.00     0.000 A 
HETATM   16  C17 UNK     1      14.570   7.606  31.478  1.00  0.00     0.001 A 
HETATM   17  C11 UNK     1      15.701   8.321  31.871  1.00  0.00     0.012 A 
ENDBRANCH   3  12
BRANCH   5  18
HETATM   18  C6  UNK     1      18.438   7.219  33.242  1.00  0.00    -0.019 A 
HETATM   19  C14 UNK     1      18.173   6.220  34.171  1.00  0.00     0.012 A 
HETATM   20  C18 UNK     1      18.268   4.881  33.793  1.00  0.00     0.001 A 
HETATM   21  C21 UNK     1      18.626   4.550  32.485  1.00  0.00     0.000 A 
HETATM   22  C19 UNK     1      18.889   5.558  31.558  1.00  0.00     0.001 A 
HETATM   23  C15 UNK     1      18.796   6.897  31.937  1.00  0.00     0.012 A 
ENDBRANCH   5  18
BRANCH  11  24
HETATM   24  O3  UNK     1      17.134  14.694  35.235  1.00  0.00    -0.361 OA
HETATM   25  H14 UNK     1      18.045  15.032  35.189  1.00  0.00     0.217 HD
ENDBRANCH  11  24
TORSDOF 3
ENDMDL
MODEL 4
REMARK VINA RESULT:      -7.1      2.042      4.671
REMARK  3 active torsions:
REMARK  status: ('A' for Active; 'I' for Inactive)
REMARK    1  A    between atoms: C13_16  and  O3_3 
REMARK    2  A    between atoms: C1_4  and  C4_7 
REMARK    3  A    between atoms: C3_6  and  C6_9 
ROOT
HETATM    1  O1  UNK     1      28.360  -7.671  37.972  1.00  0.00    -0.274 OA
HETATM    2  O2  UNK     1      27.835  -9.638  36.961  1.00  0.00    -0.259 OA
HETATM    3  C1  UNK     1      30.460  -7.339  36.082  1.00  0.00     0.004 A 
HETATM    4  C2  UNK     1      30.207  -6.333  37.136  1.00  0.00     0.010 A 
HETATM    5  C3  UNK     1      29.664  -8.436  36.033  1.00  0.00     0.062 A 
HETATM    6  C5  UNK     1      29.171  -6.530  38.040  1.00  0.00     0.093 A 
HETATM    7  C7  UNK     1      28.553  -8.644  37.008  1.00  0.00     0.300 A 
HETATM    8  C8  UNK     1      30.973  -5.165  37.269  1.00  0.00     0.018 A 
HETATM    9  C9  UNK     1      28.883  -5.615  39.056  1.00  0.00     0.074 A 
HETATM   10  C12 UNK     1      30.699  -4.238  38.282  1.00  0.00     0.037 A 
HETATM   11  C13 UNK     1      29.654  -4.464  39.174  1.00  0.00     0.068 A 
ENDROOT
BRANCH   3  12
HETATM   12  C4  UNK     1      31.530  -7.213  35.085  1.00  0.00    -0.024 A 
HETATM   13  C10 UNK     1      32.818  -7.617  35.410  1.00  0.00     0.012 A 
HETATM   14  C16 UNK     1      33.835  -7.497  34.463  1.00  0.00     0.001 A 
HETATM   15  C20 UNK     1      33.554  -6.975  33.201  1.00  0.00     0.000 A 
HETATM   16  C17 UNK     1      32.257  -6.571  32.885  1.00  0.00     0.001 A 
HETATM   17  C11 UNK     1      31.240  -6.691  33.831  1.00  0.00     0.012 A 
ENDBRANCH   3  12
BRANCH   5  18
HETATM   18  C6  UNK     1      29.867  -9.466  35.013  1.00  0.00    -0.019 A 
HETATM   19  C14 UNK     1      30.845 -10.435  35.199  1.00  0.00     0.012 A 
HETATM   20  C18 UNK     1      31.040 -11.416  34.227  1.00  0.00     0.001 A 
HETATM   21  C21 UNK     1      30.253 -11.422  33.075  1.00  0.00     0.000 A 
HETATM   22  C19 UNK     1      29.273 -10.446  32.895  1.00  0.00     0.001 A 
HETATM   23  C15 UNK     1      29.079  -9.464  33.867  1.00  0.00     0.012 A 
ENDBRANCH   5  18
BRANCH  11  24
HETATM   24  O3  UNK     1      29.389  -3.561  40.157  1.00  0.00    -0.361 OA
HETATM   25  H14 UNK     1      29.507  -2.664  39.802  1.00  0.00     0.217 HD
ENDBRANCH  11  24
TORSDOF 3
ENDMDL
MODEL 5
REMARK VINA RESULT:      -7.1      2.036      5.680
REMARK  3 active torsions:
REMARK  status: ('A' for Active; 'I' for Inactive)
REMARK    1  A    between atoms: C13_16  and  O3_3 
REMARK    2  A    between atoms: C1_4  and  C4_7 
REMARK    3  A    between atoms: C3_6  and  C6_9 
ROOT
HETATM    1  O1  UNK     1      30.810  -4.224  38.113  1.00  0.00    -0.274 OA
HETATM    2  O2  UNK     1      29.192  -4.773  39.614  1.00  0.00    -0.259 OA
HETATM    3  C1  UNK     1      30.146  -6.569  36.645  1.00  0.00     0.004 A 
HETATM    4  C2  UNK     1      31.218  -5.655  36.193  1.00  0.00     0.010 A 
HETATM    5  C3  UNK     1      29.478  -6.265  37.785  1.00  0.00     0.062 A 
HETATM    6  C5  UNK     1      31.513  -4.519  36.937  1.00  0.00     0.093 A 
HETATM    7  C7  UNK     1      29.799  -5.045  38.582  1.00  0.00     0.300 A 
HETATM    8  C8  UNK     1      31.966  -5.881  35.028  1.00  0.00     0.018 A 
HETATM    9  C9  UNK     1      32.513  -3.619  36.562  1.00  0.00     0.074 A 
HETATM   10  C12 UNK     1      32.972  -4.990  34.637  1.00  0.00     0.037 A 
HETATM   11  C13 UNK     1      33.244  -3.859  35.404  1.00  0.00     0.068 A 
ENDROOT
BRANCH   3  12
HETATM   12  C4  UNK     1      29.768  -7.789  35.922  1.00  0.00    -0.024 A 
HETATM   13  C10 UNK     1      30.499  -8.954  36.117  1.00  0.00     0.012 A 
HETATM   14  C16 UNK     1      30.140 -10.113  35.431  1.00  0.00     0.001 A 
HETATM   15  C20 UNK     1      29.053 -10.098  34.557  1.00  0.00     0.000 A 
HETATM   16  C17 UNK     1      28.325  -8.923  34.368  1.00  0.00     0.001 A 
HETATM   17  C11 UNK     1      28.684  -7.763  35.055  1.00  0.00     0.012 A 
ENDBRANCH   3  12
BRANCH   5  18
HETATM   18  C6  UNK     1      28.408  -7.132  38.282  1.00  0.00    -0.019 A 
HETATM   19  C14 UNK     1      28.727  -8.267  39.018  1.00  0.00     0.012 A 
HETATM   20  C18 UNK     1      27.708  -9.094  39.490  1.00  0.00     0.001 A 
HETATM   21  C21 UNK     1      26.375  -8.778  39.223  1.00  0.00     0.000 A 
HETATM   22  C19 UNK     1      26.063  -7.638  38.485  1.00  0.00     0.001 A 
HETATM   23  C15 UNK     1      27.082  -6.812  38.012  1.00  0.00     0.012 A 
ENDBRANCH   5  18
BRANCH  11  24
HETATM   24  O3  UNK     1      34.223  -2.995  35.021  1.00  0.00    -0.361 OA
HETATM   25  H14 UNK     1      34.128  -2.168  35.525  1.00  0.00     0.217 HD
ENDBRANCH  11  24
TORSDOF 3
ENDMDL
MODEL 6
REMARK VINA RESULT:      -7.1      2.540      4.060
REMARK  3 active torsions:
REMARK  status: ('A' for Active; 'I' for Inactive)
REMARK    1  A    between atoms: C13_16  and  O3_3 
REMARK    2  A    between atoms: C1_4  and  C4_7 
REMARK    3  A    between atoms: C3_6  and  C6_9 
ROOT
HETATM    1  O1  UNK     1      32.036  -4.012  36.279  1.00  0.00    -0.274 OA
HETATM    2  O2  UNK     1      33.313  -4.182  34.406  1.00  0.00    -0.259 OA
HETATM    3  C1  UNK     1      30.736  -6.429  35.528  1.00  0.00     0.004 A 
HETATM    4  C2  UNK     1      30.363  -5.706  36.763  1.00  0.00     0.010 A 
HETATM    5  C3  UNK     1      31.720  -5.913  34.750  1.00  0.00     0.062 A 
HETATM    6  C5  UNK     1      31.021  -4.529  37.097  1.00  0.00     0.093 A 
HETATM    7  C7  UNK     1      32.424  -4.647  35.112  1.00  0.00     0.300 A 
HETATM    8  C8  UNK     1      29.359  -6.158  37.634  1.00  0.00     0.018 A 
HETATM    9  C9  UNK     1      30.714  -3.802  38.250  1.00  0.00     0.074 A 
HETATM   10  C12 UNK     1      29.038  -5.442  38.793  1.00  0.00     0.037 A 
HETATM   11  C13 UNK     1      29.716  -4.265  39.100  1.00  0.00     0.068 A 
ENDROOT
BRANCH   3  12
HETATM   12  C4  UNK     1      30.095  -7.678  35.099  1.00  0.00    -0.024 A 
HETATM   13  C10 UNK     1      30.669  -8.895  35.444  1.00  0.00     0.012 A 
HETATM   14  C16 UNK     1      30.060 -10.081  35.036  1.00  0.00     0.001 A 
HETATM   15  C20 UNK     1      28.885 -10.040  34.287  1.00  0.00     0.000 A 
HETATM   16  C17 UNK     1      28.317  -8.813  33.945  1.00  0.00     0.001 A 
HETATM   17  C11 UNK     1      28.925  -7.626  34.353  1.00  0.00     0.012 A 
ENDBRANCH   3  12
BRANCH   5  18
HETATM   18  C6  UNK     1      32.131  -6.584  33.516  1.00  0.00    -0.019 A 
HETATM   19  C14 UNK     1      33.268  -7.383  33.514  1.00  0.00     0.012 A 
HETATM   20  C18 UNK     1      33.661  -8.021  32.338  1.00  0.00     0.001 A 
HETATM   21  C21 UNK     1      32.912  -7.858  31.172  1.00  0.00     0.000 A 
HETATM   22  C19 UNK     1      31.772  -7.055  31.183  1.00  0.00     0.001 A 
HETATM   23  C15 UNK     1      31.380  -6.415  32.358  1.00  0.00     0.012 A 
ENDBRANCH   5  18
BRANCH  11  24
HETATM   24  O3  UNK     1      29.402  -3.571  40.228  1.00  0.00    -0.361 OA
HETATM   25  H14 UNK     1      29.213  -4.202  40.944  1.00  0.00     0.217 HD
ENDBRANCH  11  24
TORSDOF 3
ENDMDL
MODEL 7
REMARK VINA RESULT:      -7.0      4.092      7.408
REMARK  3 active torsions:
REMARK  status: ('A' for Active; 'I' for Inactive)
REMARK    1  A    between atoms: C13_16  and  O3_3 
REMARK    2  A    between atoms: C1_4  and  C4_7 
REMARK    3  A    between atoms: C3_6  and  C6_9 
ROOT
HETATM    1  O1  UNK     1      33.497  -7.872  33.350  1.00  0.00    -0.274 OA
HETATM    2  O2  UNK     1      32.496  -8.324  35.341  1.00  0.00    -0.259 OA
HETATM    3  C1  UNK     1      30.915  -7.721  32.165  1.00  0.00     0.004 A 
HETATM    4  C2  UNK     1      32.142  -7.511  31.366  1.00  0.00     0.010 A 
HETATM    5  C3  UNK     1      31.044  -7.992  33.487  1.00  0.00     0.062 A 
HETATM    6  C5  UNK     1      33.385  -7.592  31.981  1.00  0.00     0.093 A 
HETATM    7  C7  UNK     1      32.382  -8.079  34.143  1.00  0.00     0.300 A 
HETATM    8  C8  UNK     1      32.114  -7.225  29.992  1.00  0.00     0.018 A 
HETATM    9  C9  UNK     1      34.579  -7.402  31.280  1.00  0.00     0.074 A 
HETATM   10  C12 UNK     1      33.300  -7.033  29.275  1.00  0.00     0.037 A 
HETATM   11  C13 UNK     1      34.532  -7.121  29.919  1.00  0.00     0.068 A 
ENDROOT
BRANCH   3  12
HETATM   12  C4  UNK     1      29.562  -7.654  31.599  1.00  0.00    -0.024 A 
HETATM   13  C10 UNK     1      28.867  -6.452  31.631  1.00  0.00     0.012 A 
HETATM   14  C16 UNK     1      27.581  -6.387  31.094  1.00  0.00     0.001 A 
HETATM   15  C20 UNK     1      27.003  -7.524  30.531  1.00  0.00     0.000 A 
HETATM   16  C17 UNK     1      27.710  -8.727  30.504  1.00  0.00     0.001 A 
HETATM   17  C11 UNK     1      28.995  -8.792  31.040  1.00  0.00     0.012 A 
ENDBRANCH   3  12
BRANCH   5  18
HETATM   18  C6  UNK     1      29.866  -8.210  34.327  1.00  0.00    -0.019 A 
HETATM   19  C14 UNK     1      29.352  -9.493  34.472  1.00  0.00     0.012 A 
HETATM   20  C18 UNK     1      28.228  -9.701  35.272  1.00  0.00     0.001 A 
HETATM   21  C21 UNK     1      27.627  -8.623  35.923  1.00  0.00     0.000 A 
HETATM   22  C19 UNK     1      28.149  -7.339  35.774  1.00  0.00     0.001 A 
HETATM   23  C15 UNK     1      29.272  -7.131  34.973  1.00  0.00     0.012 A 
ENDBRANCH   5  18
BRANCH  11  24
HETATM   24  O3  UNK     1      35.683  -6.934  29.219  1.00  0.00    -0.361 OA
HETATM   25  H14 UNK     1      35.625  -6.092  28.736  1.00  0.00     0.217 HD
ENDBRANCH  11  24
TORSDOF 3
ENDMDL
MODEL 8
REMARK VINA RESULT:      -7.0      5.415      7.921
REMARK  3 active torsions:
REMARK  status: ('A' for Active; 'I' for Inactive)
REMARK    1  A    between atoms: C13_16  and  O3_3 
REMARK    2  A    between atoms: C1_4  and  C4_7 
REMARK    3  A    between atoms: C3_6  and  C6_9 
ROOT
HETATM    1  O1  UNK     1      30.028 -12.057  29.452  1.00  0.00    -0.274 OA
HETATM    2  O2  UNK     1      29.237 -10.239  28.340  1.00  0.00    -0.259 OA
HETATM    3  C1  UNK     1      29.922 -10.545  31.860  1.00  0.00     0.004 A 
HETATM    4  C2  UNK     1      30.390 -11.948  31.852  1.00  0.00     0.010 A 
HETATM    5  C3  UNK     1      29.540  -9.986  30.685  1.00  0.00     0.062 A 
HETATM    6  C5  UNK     1      30.427 -12.654  30.656  1.00  0.00     0.093 A 
HETATM    7  C7  UNK     1      29.583 -10.748  29.402  1.00  0.00     0.300 A 
HETATM    8  C8  UNK     1      30.805 -12.616  33.014  1.00  0.00     0.018 A 
HETATM    9  C9  UNK     1      30.859 -13.981  30.585  1.00  0.00     0.074 A 
HETATM   10  C12 UNK     1      31.242 -13.945  32.961  1.00  0.00     0.037 A 
HETATM   11  C13 UNK     1      31.268 -14.626  31.747  1.00  0.00     0.068 A 
ENDROOT
BRANCH   3  12
HETATM   12  C4  UNK     1      29.849  -9.725  33.075  1.00  0.00    -0.024 A 
HETATM   13  C10 UNK     1      28.687  -9.732  33.836  1.00  0.00     0.012 A 
HETATM   14  C16 UNK     1      28.618  -8.953  34.990  1.00  0.00     0.001 A 
HETATM   15  C20 UNK     1      29.709  -8.173  35.373  1.00  0.00     0.000 A 
HETATM   16  C17 UNK     1      30.871  -8.172  34.600  1.00  0.00     0.001 A 
HETATM   17  C11 UNK     1      30.942  -8.952  33.446  1.00  0.00     0.012 A 
ENDBRANCH   3  12
BRANCH   5  18
HETATM   18  C6  UNK     1      29.068  -8.601  30.631  1.00  0.00    -0.019 A 
HETATM   19  C14 UNK     1      27.712  -8.331  30.767  1.00  0.00     0.012 A 
HETATM   20  C18 UNK     1      27.261  -7.012  30.714  1.00  0.00     0.001 A 
HETATM   21  C21 UNK     1      28.172  -5.971  30.527  1.00  0.00     0.000 A 
HETATM   22  C19 UNK     1      29.532  -6.251  30.392  1.00  0.00     0.001 A 
HETATM   23  C15 UNK     1      29.982  -7.570  30.443  1.00  0.00     0.012 A 
ENDBRANCH   5  18
BRANCH  11  24
HETATM   24  O3  UNK     1      31.692 -15.918  31.699  1.00  0.00    -0.361 OA
HETATM   25  H14 UNK     1      31.917 -16.210  32.599  1.00  0.00     0.217 HD
ENDBRANCH  11  24
TORSDOF 3
ENDMDL
MODEL 9
REMARK VINA RESULT:      -7.0      3.381      5.535
REMARK  3 active torsions:
REMARK  status: ('A' for Active; 'I' for Inactive)
REMARK    1  A    between atoms: C13_16  and  O3_3 
REMARK    2  A    between atoms: C1_4  and  C4_7 
REMARK    3  A    between atoms: C3_6  and  C6_9 
ROOT
HETATM    1  O1  UNK     1      27.959  -7.472  33.717  1.00  0.00    -0.274 OA
HETATM    2  O2  UNK     1      28.170  -8.346  35.806  1.00  0.00    -0.259 OA
HETATM    3  C1  UNK     1      30.596  -6.430  33.962  1.00  0.00     0.004 A 
HETATM    4  C2  UNK     1      29.793  -6.214  32.739  1.00  0.00     0.010 A 
HETATM    5  C3  UNK     1      30.046  -7.142  34.977  1.00  0.00     0.062 A 
HETATM    6  C5  UNK     1      28.510  -6.739  32.657  1.00  0.00     0.093 A 
HETATM    7  C7  UNK     1      28.665  -7.703  34.885  1.00  0.00     0.300 A 
HETATM    8  C8  UNK     1      30.273  -5.493  31.635  1.00  0.00     0.018 A 
HETATM    9  C9  UNK     1      27.704  -6.569  31.528  1.00  0.00     0.074 A 
HETATM   10  C12 UNK     1      29.479  -5.312  30.496  1.00  0.00     0.037 A 
HETATM   11  C13 UNK     1      28.196  -5.851  30.443  1.00  0.00     0.068 A 
ENDROOT
BRANCH   3  12
HETATM   12  C4  UNK     1      31.959  -5.914  34.136  1.00  0.00    -0.024 A 
HETATM   13  C10 UNK     1      33.040  -6.687  33.732  1.00  0.00     0.012 A 
HETATM   14  C16 UNK     1      34.334  -6.196  33.897  1.00  0.00     0.001 A 
HETATM   15  C20 UNK     1      34.537  -4.938  34.464  1.00  0.00     0.000 A 
HETATM   16  C17 UNK     1      33.444  -4.170  34.867  1.00  0.00     0.001 A 
HETATM   17  C11 UNK     1      32.149  -4.660  34.702  1.00  0.00     0.012 A 
ENDBRANCH   3  12
BRANCH   5  18
HETATM   18  C6  UNK     1      30.792  -7.387  36.213  1.00  0.00    -0.019 A 
HETATM   19  C14 UNK     1      30.723  -6.468  37.252  1.00  0.00     0.012 A 
HETATM   20  C18 UNK     1      31.434  -6.701  38.429  1.00  0.00     0.001 A 
HETATM   21  C21 UNK     1      32.210  -7.854  38.558  1.00  0.00     0.000 A 
HETATM   22  C19 UNK     1      32.273  -8.772  37.511  1.00  0.00     0.001 A 
HETATM   23  C15 UNK     1      31.562  -8.538  36.333  1.00  0.00     0.012 A 
ENDBRANCH   5  18
BRANCH  11  24
HETATM   24  O3  UNK     1      27.426  -5.674  29.335  1.00  0.00    -0.361 OA
HETATM   25  H14 UNK     1      27.315  -4.721  29.178  1.00  0.00     0.217 HD
ENDBRANCH  11  24
TORSDOF 3
ENDMDL
MODEL 10
REMARK VINA RESULT:      -6.9      2.127      3.112
REMARK  3 active torsions:
REMARK  status: ('A' for Active; 'I' for Inactive)
REMARK    1  A    between atoms: C13_16  and  O3_3 
REMARK    2  A    between atoms: C1_4  and  C4_7 
REMARK    3  A    between atoms: C3_6  and  C6_9 
ROOT
HETATM    1  O1  UNK     1      30.588  -9.139  38.494  1.00  0.00    -0.274 OA
HETATM    2  O2  UNK     1      32.628  -8.483  37.734  1.00  0.00    -0.259 OA
HETATM    3  C1  UNK     1      29.489  -8.400  35.977  1.00  0.00     0.004 A 
HETATM    4  C2  UNK     1      28.641  -8.955  37.054  1.00  0.00     0.010 A 
HETATM    5  C3  UNK     1      30.815  -8.247  36.214  1.00  0.00     0.062 A 
HETATM    6  C5  UNK     1      29.215  -9.306  38.269  1.00  0.00     0.093 A 
HETATM    7  C7  UNK     1      31.427  -8.623  37.522  1.00  0.00     0.300 A 
HETATM    8  C8  UNK     1      27.259  -9.153  36.906  1.00  0.00     0.018 A 
HETATM    9  C9  UNK     1      28.466  -9.835  39.324  1.00  0.00     0.074 A 
HETATM   10  C12 UNK     1      26.494  -9.681  37.952  1.00  0.00     0.037 A 
HETATM   11  C13 UNK     1      27.098 -10.023  39.160  1.00  0.00     0.068 A 
ENDROOT
BRANCH   3  12
HETATM   12  C4  UNK     1      28.968  -8.005  34.662  1.00  0.00    -0.024 A 
HETATM   13  C10 UNK     1      28.498  -6.711  34.474  1.00  0.00     0.012 A 
HETATM   14  C16 UNK     1      28.004  -6.335  33.226  1.00  0.00     0.001 A 
HETATM   15  C20 UNK     1      27.984  -7.255  32.177  1.00  0.00     0.000 A 
HETATM   16  C17 UNK     1      28.458  -8.551  32.377  1.00  0.00     0.001 A 
HETATM   17  C11 UNK     1      28.953  -8.928  33.625  1.00  0.00     0.012 A 
ENDBRANCH   3  12
BRANCH   5  18
HETATM   18  C6  UNK     1      31.703  -7.702  35.186  1.00  0.00    -0.019 A 
HETATM   19  C14 UNK     1      32.323  -8.561  34.286  1.00  0.00     0.012 A 
HETATM   20  C18 UNK     1      33.171  -8.043  33.307  1.00  0.00     0.001 A 
HETATM   21  C21 UNK     1      33.391  -6.666  33.234  1.00  0.00     0.000 A 
HETATM   22  C19 UNK     1      32.765  -5.811  34.140  1.00  0.00     0.001 A 
HETATM   23  C15 UNK     1      31.918  -6.330  35.120  1.00  0.00     0.012 A 
ENDBRANCH   5  18
BRANCH  11  24
HETATM   24  O3  UNK     1      26.352 -10.537  40.175  1.00  0.00    -0.361 OA
HETATM   25  H14 UNK     1      25.611  -9.935  40.358  1.00  0.00     0.217 HD
ENDBRANCH  11  24
TORSDOF 3
ENDMDL
