MODEL 1
REMARK VINA RESULT:      -9.2      0.000      0.000
REMARK  3 active torsions:
REMARK  status: ('A' for Active; 'I' for Inactive)
REMARK    1  A    between atoms: C19_24  and  O4_4 
REMARK    2  A    between atoms: C8_13  and  N1_5 
REMARK    3  A    between atoms: C11_16  and  C8_13 
ROOT
HETATM    1  O1  UNK     1      18.255   5.287  31.036  1.00  0.00    -0.320 OA
HETATM    2  O2  UNK     1      18.433   0.716  32.250  1.00  0.00    -0.274 OA
HETATM    3  O3  UNK     1      18.538  -1.499  32.734  1.00  0.00    -0.259 OA
HETATM    4  N1  UNK     1      17.703   7.004  32.681  1.00  0.00     0.120 N 
HETATM    5  C1  UNK     1      18.192   6.178  33.792  1.00  0.00     0.317 C 
HETATM    6  C2  UNK     1      18.240   4.724  33.401  1.00  0.00     0.005 A 
HETATM    7  C3  UNK     1      18.287   4.366  32.050  1.00  0.00     0.087 A 
HETATM    8  C4  UNK     1      18.445   6.649  31.467  1.00  0.00     0.448 C 
HETATM    9  C5  UNK     1      18.339   3.025  31.686  1.00  0.00     0.007 A 
HETATM   10  C6  UNK     1      18.337   2.361  34.041  1.00  0.00     0.006 A 
HETATM   11  C7  UNK     1      18.281   3.722  34.385  1.00  0.00     0.026 A 
HETATM   12  C9  UNK     1      18.367   2.050  32.685  1.00  0.00     0.099 A 
HETATM   13  C10 UNK     1      18.374   1.261  35.027  1.00  0.00    -0.037 A 
HETATM   14  C12 UNK     1      18.362   2.631  30.244  1.00  0.00     0.054 C 
HETATM   15  C13 UNK     1      18.472  -0.015  34.595  1.00  0.00     0.020 A 
HETATM   16  C14 UNK     1      18.488  -0.342  33.141  1.00  0.00     0.294 A 
HETATM   17  C15 UNK     1      18.284   1.645  36.483  1.00  0.00     0.050 C 
HETATM   18  C18 UNK     1      18.583  -1.221  35.492  1.00  0.00     0.055 C 
ENDROOT
BRANCH   4  19
HETATM   19  C8  UNK     1      17.844   8.425  32.990  1.00  0.00     0.314 C 
BRANCH  19  20
HETATM   20  C11 UNK     1      16.529   8.999  33.439  1.00  0.00    -0.027 A 
HETATM   21  C16 UNK     1      16.491   9.854  34.532  1.00  0.00     0.045 A 
HETATM   22  C19 UNK     1      15.271  10.386  34.948  1.00  0.00     0.068 A 
HETATM   23  C21 UNK     1      14.099  10.057  34.267  1.00  0.00     0.037 A 
HETATM   24  C20 UNK     1      14.147   9.197  33.171  1.00  0.00     0.003 A 
HETATM   25  C17 UNK     1      15.367   8.665  32.754  1.00  0.00     0.009 A 
BRANCH  22  26
HETATM   26  O4  UNK     1      15.223  11.225  36.019  1.00  0.00    -0.356 OA
HETATM   27  C22 UNK     1      13.941  11.471  36.595  1.00  0.00     0.210 C 
ENDBRANCH  22  26
ENDBRANCH  19  20
ENDBRANCH   4  19
TORSDOF 3
ENDMDL
MODEL 2
REMARK VINA RESULT:      -9.1      6.227     11.834
REMARK  3 active torsions:
REMARK  status: ('A' for Active; 'I' for Inactive)
REMARK    1  A    between atoms: C19_24  and  O4_4 
REMARK    2  A    between atoms: C8_13  and  N1_5 
REMARK    3  A    between atoms: C11_16  and  C8_13 
ROOT
HETATM    1  O1  UNK     1      18.638  -1.213  36.588  1.00  0.00    -0.320 OA
HETATM    2  O2  UNK     1      18.233   1.086  32.471  1.00  0.00    -0.274 OA
HETATM    3  O3  UNK     1      17.997   2.269  30.548  1.00  0.00    -0.259 OA
HETATM    4  N1  UNK     1      19.492  -3.499  36.672  1.00  0.00     0.120 N 
HETATM    5  C1  UNK     1      20.254  -3.321  35.431  1.00  0.00     0.317 C 
HETATM    6  C2  UNK     1      19.713  -2.167  34.627  1.00  0.00     0.005 A 
HETATM    7  C3  UNK     1      18.954  -1.175  35.255  1.00  0.00     0.087 A 
HETATM    8  C4  UNK     1      19.369  -2.200  37.341  1.00  0.00     0.448 C 
HETATM    9  C5  UNK     1      18.460  -0.105  34.517  1.00  0.00     0.007 A 
HETATM   10  C6  UNK     1      19.514  -0.983  32.491  1.00  0.00     0.006 A 
HETATM   11  C7  UNK     1      20.000  -2.057  33.256  1.00  0.00     0.026 A 
HETATM   12  C9  UNK     1      18.751  -0.026  33.154  1.00  0.00     0.099 A 
HETATM   13  C10 UNK     1      19.774  -0.814  31.047  1.00  0.00    -0.037 A 
HETATM   14  C12 UNK     1      17.625   0.947  35.174  1.00  0.00     0.054 C 
HETATM   15  C13 UNK     1      19.298   0.278  30.410  1.00  0.00     0.020 A 
HETATM   16  C14 UNK     1      18.468   1.291  31.122  1.00  0.00     0.294 A 
HETATM   17  C15 UNK     1      20.559  -1.904  30.361  1.00  0.00     0.050 C 
HETATM   18  C18 UNK     1      19.544   0.604  28.959  1.00  0.00     0.055 C 
ENDROOT
BRANCH   4  19
HETATM   19  C8  UNK     1      20.135  -4.483  37.540  1.00  0.00     0.314 C 
BRANCH  19  20
HETATM   20  C11 UNK     1      19.890  -5.875  37.029  1.00  0.00    -0.027 A 
HETATM   21  C16 UNK     1      20.964  -6.733  36.833  1.00  0.00     0.045 A 
HETATM   22  C19 UNK     1      20.736  -8.024  36.359  1.00  0.00     0.068 A 
HETATM   23  C21 UNK     1      19.436  -8.447  36.084  1.00  0.00     0.037 A 
HETATM   24  C20 UNK     1      18.364  -7.579  36.284  1.00  0.00     0.003 A 
HETATM   25  C17 UNK     1      18.591  -6.286  36.758  1.00  0.00     0.009 A 
BRANCH  22  26
HETATM   26  O4  UNK     1      21.783  -8.872  36.163  1.00  0.00    -0.356 OA
HETATM   27  C22 UNK     1      21.685  -9.784  35.070  1.00  0.00     0.210 C 
ENDBRANCH  22  26
ENDBRANCH  19  20
ENDBRANCH   4  19
TORSDOF 3
ENDMDL
MODEL 3
REMARK VINA RESULT:      -8.6      2.130      8.654
REMARK  3 active torsions:
REMARK  status: ('A' for Active; 'I' for Inactive)
REMARK    1  A    between atoms: C19_24  and  O4_4 
REMARK    2  A    between atoms: C8_13  and  N1_5 
REMARK    3  A    between atoms: C11_16  and  C8_13 
ROOT
HETATM    1  O1  UNK     1      19.803   6.678  33.528  1.00  0.00    -0.320 OA
HETATM    2  O2  UNK     1      18.124  11.007  34.446  1.00  0.00    -0.274 OA
HETATM    3  O3  UNK     1      17.417  13.115  34.900  1.00  0.00    -0.259 OA
HETATM    4  N1  UNK     1      18.292   4.808  33.105  1.00  0.00     0.120 N 
HETATM    5  C1  UNK     1      17.229   5.700  32.629  1.00  0.00     0.317 C 
HETATM    6  C2  UNK     1      17.445   7.107  33.122  1.00  0.00     0.005 A 
HETATM    7  C3  UNK     1      18.720   7.517  33.525  1.00  0.00     0.087 A 
HETATM    8  C4  UNK     1      19.590   5.434  32.834  1.00  0.00     0.448 C 
HETATM    9  C5  UNK     1      18.924   8.817  33.974  1.00  0.00     0.007 A 
HETATM   10  C6  UNK     1      16.566   9.346  33.590  1.00  0.00     0.006 A 
HETATM   11  C7  UNK     1      16.383   8.026  33.143  1.00  0.00     0.026 A 
HETATM   12  C9  UNK     1      17.847   9.706  33.995  1.00  0.00     0.099 A 
HETATM   13  C10 UNK     1      15.489  10.357  33.642  1.00  0.00    -0.037 A 
HETATM   14  C12 UNK     1      20.278   9.257  34.432  1.00  0.00     0.054 C 
HETATM   15  C13 UNK     1      15.777  11.613  34.047  1.00  0.00     0.020 A 
HETATM   16  C14 UNK     1      17.149  11.988  34.494  1.00  0.00     0.294 A 
HETATM   17  C15 UNK     1      14.107   9.904  33.246  1.00  0.00     0.050 C 
HETATM   18  C18 UNK     1      14.791  12.752  34.086  1.00  0.00     0.055 C 
ENDROOT
BRANCH   4  19
HETATM   19  C8  UNK     1      18.194   3.497  32.468  1.00  0.00     0.314 C 
BRANCH  19  20
HETATM   20  C11 UNK     1      18.270   2.404  33.497  1.00  0.00    -0.027 A 
HETATM   21  C16 UNK     1      18.302   2.733  34.846  1.00  0.00     0.045 A 
HETATM   22  C19 UNK     1      18.373   1.719  35.800  1.00  0.00     0.068 A 
HETATM   23  C21 UNK     1      18.411   0.384  35.398  1.00  0.00     0.037 A 
HETATM   24  C20 UNK     1      18.378   0.064  34.041  1.00  0.00     0.003 A 
HETATM   25  C17 UNK     1      18.307   1.078  33.086  1.00  0.00     0.009 A 
BRANCH  22  26
HETATM   26  O4  UNK     1      18.406   2.031  37.125  1.00  0.00    -0.356 OA
HETATM   27  C22 UNK     1      17.673   1.186  38.010  1.00  0.00     0.210 C 
ENDBRANCH  22  26
ENDBRANCH  19  20
ENDBRANCH   4  19
TORSDOF 3
ENDMDL
MODEL 4
REMARK VINA RESULT:      -8.5     23.098     26.154
REMARK  3 active torsions:
REMARK  status: ('A' for Active; 'I' for Inactive)
REMARK    1  A    between atoms: C19_24  and  O4_4 
REMARK    2  A    between atoms: C8_13  and  N1_5 
REMARK    3  A    between atoms: C11_16  and  C8_13 
ROOT
HETATM    1  O1  UNK     1      14.209   6.659  10.613  1.00  0.00    -0.320 OA
HETATM    2  O2  UNK     1      16.583  10.718  11.149  1.00  0.00    -0.274 OA
HETATM    3  O3  UNK     1      17.761  12.627  11.494  1.00  0.00    -0.259 OA
HETATM    4  N1  UNK     1      12.691   6.330   8.730  1.00  0.00     0.120 N 
HETATM    5  C1  UNK     1      13.419   7.298   7.900  1.00  0.00     0.317 C 
HETATM    6  C2  UNK     1      14.246   8.224   8.753  1.00  0.00     0.005 A 
HETATM    7  C3  UNK     1      14.606   7.843  10.050  1.00  0.00     0.087 A 
HETATM    8  C4  UNK     1      13.628   5.725   9.682  1.00  0.00     0.448 C 
HETATM    9  C5  UNK     1      15.376   8.693  10.837  1.00  0.00     0.007 A 
HETATM   10  C6  UNK     1      15.476  10.326   9.018  1.00  0.00     0.006 A 
HETATM   11  C7  UNK     1      14.695   9.453   8.242  1.00  0.00     0.026 A 
HETATM   12  C9  UNK     1      15.799   9.913  10.307  1.00  0.00     0.099 A 
HETATM   13  C10 UNK     1      15.973  11.634   8.541  1.00  0.00    -0.037 A 
HETATM   14  C12 UNK     1      15.743   8.306  12.234  1.00  0.00     0.054 C 
HETATM   15  C13 UNK     1      16.755  12.382   9.350  1.00  0.00     0.020 A 
HETATM   16  C14 UNK     1      17.084  11.940  10.735  1.00  0.00     0.294 A 
HETATM   17  C15 UNK     1      15.551  12.062   7.158  1.00  0.00     0.050 C 
HETATM   18  C18 UNK     1      17.378  13.699   8.966  1.00  0.00     0.055 C 
ENDROOT
BRANCH   4  19
HETATM   19  C8  UNK     1      12.050   5.313   7.900  1.00  0.00     0.314 C 
BRANCH  19  20
HETATM   20  C11 UNK     1      10.712   5.796   7.414  1.00  0.00    -0.027 A 
HETATM   21  C16 UNK     1       9.667   5.947   8.317  1.00  0.00     0.045 A 
HETATM   22  C19 UNK     1       8.427   6.394   7.865  1.00  0.00     0.068 A 
HETATM   23  C21 UNK     1       8.240   6.687   6.514  1.00  0.00     0.037 A 
HETATM   24  C20 UNK     1       9.295   6.532   5.615  1.00  0.00     0.003 A 
HETATM   25  C17 UNK     1      10.537   6.084   6.066  1.00  0.00     0.009 A 
BRANCH  22  26
HETATM   26  O4  UNK     1       7.397   6.545   8.742  1.00  0.00    -0.356 OA
HETATM   27  C22 UNK     1       7.523   5.898  10.008  1.00  0.00     0.210 C 
ENDBRANCH  22  26
ENDBRANCH  19  20
ENDBRANCH   4  19
TORSDOF 3
ENDMDL
MODEL 5
REMARK VINA RESULT:      -8.5      2.811      9.893
REMARK  3 active torsions:
REMARK  status: ('A' for Active; 'I' for Inactive)
REMARK    1  A    between atoms: C19_24  and  O4_4 
REMARK    2  A    between atoms: C8_13  and  N1_5 
REMARK    3  A    between atoms: C11_16  and  C8_13 
ROOT
HETATM    1  O1  UNK     1      15.974   8.356  34.817  1.00  0.00    -0.320 OA
HETATM    2  O2  UNK     1      14.955  12.975  34.668  1.00  0.00    -0.274 OA
HETATM    3  O3  UNK     1      14.377  15.170  34.646  1.00  0.00    -0.259 OA
HETATM    4  N1  UNK     1      18.004   7.483  33.779  1.00  0.00     0.120 N 
HETATM    5  C1  UNK     1      18.697   8.769  33.920  1.00  0.00     0.317 C 
HETATM    6  C2  UNK     1      17.713   9.895  34.098  1.00  0.00     0.005 A 
HETATM    7  C3  UNK     1      16.418   9.625  34.552  1.00  0.00     0.087 A 
HETATM    8  C4  UNK     1      17.015   7.360  34.855  1.00  0.00     0.448 C 
HETATM    9  C5  UNK     1      15.510  10.664  34.725  1.00  0.00     0.007 A 
HETATM   10  C6  UNK     1      17.198  12.289  34.022  1.00  0.00     0.006 A 
HETATM   11  C7  UNK     1      18.098  11.224  33.852  1.00  0.00     0.026 A 
HETATM   12  C9  UNK     1      15.916  11.973  34.461  1.00  0.00     0.099 A 
HETATM   13  C10 UNK     1      17.538  13.706  33.772  1.00  0.00    -0.037 A 
HETATM   14  C12 UNK     1      14.115  10.382  35.184  1.00  0.00     0.054 C 
HETATM   15  C13 UNK     1      16.615  14.662  34.008  1.00  0.00     0.020 A 
HETATM   16  C14 UNK     1      15.238  14.315  34.464  1.00  0.00     0.294 A 
HETATM   17  C15 UNK     1      18.922  13.993  33.245  1.00  0.00     0.050 C 
HETATM   18  C18 UNK     1      16.851  16.143  33.858  1.00  0.00     0.055 C 
ENDROOT
BRANCH   4  19
HETATM   19  C8  UNK     1      18.955   6.375  33.806  1.00  0.00     0.314 C 
BRANCH  19  20
HETATM   20  C11 UNK     1      18.993   5.681  32.474  1.00  0.00    -0.027 A 
HETATM   21  C16 UNK     1      18.304   4.487  32.301  1.00  0.00     0.045 A 
HETATM   22  C19 UNK     1      18.340   3.844  31.064  1.00  0.00     0.068 A 
HETATM   23  C21 UNK     1      19.065   4.399  30.010  1.00  0.00     0.037 A 
HETATM   24  C20 UNK     1      19.754   5.598  30.193  1.00  0.00     0.003 A 
HETATM   25  C17 UNK     1      19.718   6.242  31.430  1.00  0.00     0.009 A 
BRANCH  22  26
HETATM   26  O4  UNK     1      17.668   2.673  30.886  1.00  0.00    -0.356 OA
HETATM   27  C22 UNK     1      17.944   1.942  29.692  1.00  0.00     0.210 C 
ENDBRANCH  22  26
ENDBRANCH  19  20
ENDBRANCH   4  19
TORSDOF 3
ENDMDL
MODEL 6
REMARK VINA RESULT:      -8.4      1.476      2.106
REMARK  3 active torsions:
REMARK  status: ('A' for Active; 'I' for Inactive)
REMARK    1  A    between atoms: C19_24  and  O4_4 
REMARK    2  A    between atoms: C8_13  and  N1_5 
REMARK    3  A    between atoms: C11_16  and  C8_13 
ROOT
HETATM    1  O1  UNK     1      18.641   2.942  31.265  1.00  0.00    -0.320 OA
HETATM    2  O2  UNK     1      18.808  -0.783  34.180  1.00  0.00    -0.274 OA
HETATM    3  O3  UNK     1      18.930  -2.625  35.501  1.00  0.00    -0.259 OA
HETATM    4  N1  UNK     1      17.668   5.061  31.988  1.00  0.00     0.120 N 
HETATM    5  C1  UNK     1      17.960   4.779  33.398  1.00  0.00     0.317 C 
HETATM    6  C2  UNK     1      18.166   3.303  33.621  1.00  0.00     0.005 A 
HETATM    7  C3  UNK     1      18.511   2.477  32.547  1.00  0.00     0.087 A 
HETATM    8  C4  UNK     1      18.663   4.378  31.155  1.00  0.00     0.448 C 
HETATM    9  C5  UNK     1      18.709   1.116  32.751  1.00  0.00     0.007 A 
HETATM   10  C6  UNK     1      18.254   1.383  35.141  1.00  0.00     0.006 A 
HETATM   11  C7  UNK     1      18.055   2.755  34.910  1.00  0.00     0.026 A 
HETATM   12  C9  UNK     1      18.581   0.596  34.041  1.00  0.00     0.099 A 
HETATM   13  C10 UNK     1      18.145   0.745  36.469  1.00  0.00    -0.037 A 
HETATM   14  C12 UNK     1      19.052   0.220  31.605  1.00  0.00     0.054 C 
HETATM   15  C13 UNK     1      18.399  -0.576  36.594  1.00  0.00     0.020 A 
HETATM   16  C14 UNK     1      18.734  -1.417  35.409  1.00  0.00     0.294 A 
HETATM   17  C15 UNK     1      17.735   1.628  37.620  1.00  0.00     0.050 C 
HETATM   18  C18 UNK     1      18.387  -1.336  37.895  1.00  0.00     0.055 C 
ENDROOT
BRANCH   4  19
HETATM   19  C8  UNK     1      17.665   6.500  31.736  1.00  0.00     0.314 C 
BRANCH  19  20
HETATM   20  C11 UNK     1      16.522   7.158  32.456  1.00  0.00    -0.027 A 
HETATM   21  C16 UNK     1      16.783   8.083  33.459  1.00  0.00     0.045 A 
HETATM   22  C19 UNK     1      15.721   8.692  34.126  1.00  0.00     0.068 A 
HETATM   23  C21 UNK     1      14.407   8.372  33.785  1.00  0.00     0.037 A 
HETATM   24  C20 UNK     1      14.155   7.443  32.777  1.00  0.00     0.003 A 
HETATM   25  C17 UNK     1      15.217   6.832  32.109  1.00  0.00     0.009 A 
BRANCH  22  26
HETATM   26  O4  UNK     1      15.968   9.600  35.111  1.00  0.00    -0.356 OA
HETATM   27  C22 UNK     1      16.056  10.970  34.724  1.00  0.00     0.210 C 
ENDBRANCH  22  26
ENDBRANCH  19  20
ENDBRANCH   4  19
TORSDOF 3
ENDMDL
MODEL 7
REMARK VINA RESULT:      -8.4     16.763     19.707
REMARK  3 active torsions:
REMARK  status: ('A' for Active; 'I' for Inactive)
REMARK    1  A    between atoms: C19_24  and  O4_4 
REMARK    2  A    between atoms: C8_13  and  N1_5 
REMARK    3  A    between atoms: C11_16  and  C8_13 
ROOT
HETATM    1  O1  UNK     1      31.461  -4.015  37.100  1.00  0.00    -0.320 OA
HETATM    2  O2  UNK     1      27.714  -6.691  38.197  1.00  0.00    -0.274 OA
HETATM    3  O3  UNK     1      25.884  -7.898  38.786  1.00  0.00    -0.259 OA
HETATM    4  N1  UNK     1      33.196  -4.840  35.595  1.00  0.00     0.120 N 
HETATM    5  C1  UNK     1      32.263  -5.754  34.926  1.00  0.00     0.317 C 
HETATM    6  C2  UNK     1      31.062  -6.026  35.794  1.00  0.00     0.005 A 
HETATM    7  C3  UNK     1      30.722  -5.134  36.816  1.00  0.00     0.087 A 
HETATM    8  C4  UNK     1      32.447  -3.686  36.102  1.00  0.00     0.448 C 
HETATM    9  C5  UNK     1      29.610  -5.378  37.613  1.00  0.00     0.007 A 
HETATM   10  C6  UNK     1      29.122  -7.416  36.350  1.00  0.00     0.006 A 
HETATM   11  C7  UNK     1      30.252  -7.150  35.559  1.00  0.00     0.026 A 
HETATM   12  C9  UNK     1      28.830  -6.510  37.364  1.00  0.00     0.099 A 
HETATM   13  C10 UNK     1      28.236  -8.583  36.158  1.00  0.00    -0.037 A 
HETATM   14  C12 UNK     1      29.254  -4.444  38.725  1.00  0.00     0.054 C 
HETATM   15  C13 UNK     1      27.147  -8.727  36.944  1.00  0.00     0.020 A 
HETATM   16  C14 UNK     1      26.849  -7.760  38.040  1.00  0.00     0.294 A 
HETATM   17  C15 UNK     1      28.624  -9.567  35.082  1.00  0.00     0.050 C 
HETATM   18  C18 UNK     1      26.130  -9.831  36.813  1.00  0.00     0.055 C 
ENDROOT
BRANCH   4  19
HETATM   19  C8  UNK     1      34.257  -4.421  34.681  1.00  0.00     0.314 C 
BRANCH  19  20
HETATM   20  C11 UNK     1      35.137  -5.586  34.327  1.00  0.00    -0.027 A 
HETATM   21  C16 UNK     1      35.216  -6.011  33.006  1.00  0.00     0.045 A 
HETATM   22  C19 UNK     1      36.034  -7.092  32.679  1.00  0.00     0.068 A 
HETATM   23  C21 UNK     1      36.764  -7.741  33.674  1.00  0.00     0.037 A 
HETATM   24  C20 UNK     1      36.678  -7.308  34.997  1.00  0.00     0.003 A 
HETATM   25  C17 UNK     1      35.861  -6.226  35.325  1.00  0.00     0.009 A 
BRANCH  22  26
HETATM   26  O4  UNK     1      36.117  -7.515  31.387  1.00  0.00    -0.356 OA
HETATM   27  C22 UNK     1      34.987  -7.272  30.550  1.00  0.00     0.210 C 
ENDBRANCH  22  26
ENDBRANCH  19  20
ENDBRANCH   4  19
TORSDOF 3
ENDMDL
MODEL 8
REMARK VINA RESULT:      -8.3     24.056     25.426
REMARK  3 active torsions:
REMARK  status: ('A' for Active; 'I' for Inactive)
REMARK    1  A    between atoms: C19_24  and  O4_4 
REMARK    2  A    between atoms: C8_13  and  N1_5 
REMARK    3  A    between atoms: C11_16  and  C8_13 
ROOT
HETATM    1  O1  UNK     1      11.876   5.175   9.217  1.00  0.00    -0.320 OA
HETATM    2  O2  UNK     1      16.165   7.023   9.984  1.00  0.00    -0.274 OA
HETATM    3  O3  UNK     1      18.261   7.814  10.351  1.00  0.00    -0.259 OA
HETATM    4  N1  UNK     1       9.897   6.599   9.097  1.00  0.00     0.120 N 
HETATM    5  C1  UNK     1      10.688   7.760   8.671  1.00  0.00     0.317 C 
HETATM    6  C2  UNK     1      12.140   7.585   9.033  1.00  0.00     0.005 A 
HETATM    7  C3  UNK     1      12.651   6.304   9.266  1.00  0.00     0.087 A 
HETATM    8  C4  UNK     1      10.570   5.378   8.643  1.00  0.00     0.448 C 
HETATM    9  C5  UNK     1      13.992   6.139   9.593  1.00  0.00     0.007 A 
HETATM   10  C6  UNK     1      14.357   8.552   9.423  1.00  0.00     0.006 A 
HETATM   11  C7  UNK     1      12.998   8.696   9.098  1.00  0.00     0.026 A 
HETATM   12  C9  UNK     1      14.819   7.262   9.662  1.00  0.00     0.099 A 
HETATM   13  C10 UNK     1      15.307   9.680   9.515  1.00  0.00    -0.037 A 
HETATM   14  C12 UNK     1      14.542   4.776   9.871  1.00  0.00     0.054 C 
HETATM   15  C13 UNK     1      16.606   9.433   9.792  1.00  0.00     0.020 A 
HETATM   16  C14 UNK     1      17.092   8.049  10.061  1.00  0.00     0.294 A 
HETATM   17  C15 UNK     1      14.748  11.064   9.302  1.00  0.00     0.050 C 
HETATM   18  C18 UNK     1      17.688  10.480   9.850  1.00  0.00     0.055 C 
ENDROOT
BRANCH   4  19
HETATM   19  C8  UNK     1       8.536   6.678   8.574  1.00  0.00     0.314 C 
BRANCH  19  20
HETATM   20  C11 UNK     1       7.561   6.083   9.550  1.00  0.00    -0.027 A 
HETATM   21  C16 UNK     1       7.109   4.783   9.364  1.00  0.00     0.045 A 
HETATM   22  C19 UNK     1       6.205   4.231  10.270  1.00  0.00     0.068 A 
HETATM   23  C21 UNK     1       5.757   4.985  11.355  1.00  0.00     0.037 A 
HETATM   24  C20 UNK     1       6.216   6.290  11.534  1.00  0.00     0.003 A 
HETATM   25  C17 UNK     1       7.121   6.842  10.628  1.00  0.00     0.009 A 
BRANCH  22  26
HETATM   26  O4  UNK     1       5.757   2.958  10.095  1.00  0.00    -0.356 OA
HETATM   27  C22 UNK     1       5.453   2.209  11.272  1.00  0.00     0.210 C 
ENDBRANCH  22  26
ENDBRANCH  19  20
ENDBRANCH   4  19
TORSDOF 3
ENDMDL
MODEL 9
REMARK VINA RESULT:      -8.2     16.849     19.242
REMARK  3 active torsions:
REMARK  status: ('A' for Active; 'I' for Inactive)
REMARK    1  A    between atoms: C19_24  and  O4_4 
REMARK    2  A    between atoms: C8_13  and  N1_5 
REMARK    3  A    between atoms: C11_16  and  C8_13 
ROOT
HETATM    1  O1  UNK     1      34.174  -7.092  33.799  1.00  0.00    -0.320 OA
HETATM    2  O2  UNK     1      32.432  -8.364  29.585  1.00  0.00    -0.274 OA
HETATM    3  O3  UNK     1      31.694  -8.972  27.527  1.00  0.00    -0.259 OA
HETATM    4  N1  UNK     1      32.695  -6.682  35.697  1.00  0.00     0.120 N 
HETATM    5  C1  UNK     1      31.660  -7.570  35.157  1.00  0.00     0.317 C 
HETATM    6  C2  UNK     1      31.843  -7.771  33.675  1.00  0.00     0.005 A 
HETATM    7  C3  UNK     1      33.090  -7.538  33.088  1.00  0.00     0.087 A 
HETATM    8  C4  UNK     1      34.006  -7.144  35.229  1.00  0.00     0.448 C 
HETATM    9  C5  UNK     1      33.264  -7.730  31.722  1.00  0.00     0.007 A 
HETATM   10  C6  UNK     1      30.932  -8.436  31.500  1.00  0.00     0.006 A 
HETATM   11  C7  UNK     1      30.779  -8.232  32.881  1.00  0.00     0.026 A 
HETATM   12  C9  UNK     1      32.186  -8.178  30.955  1.00  0.00     0.099 A 
HETATM   13  C10 UNK     1      29.851  -8.912  30.611  1.00  0.00    -0.037 A 
HETATM   14  C12 UNK     1      34.587  -7.458  31.080  1.00  0.00     0.054 C 
HETATM   15  C13 UNK     1      30.111  -9.118  29.302  1.00  0.00     0.020 A 
HETATM   16  C14 UNK     1      31.453  -8.825  28.722  1.00  0.00     0.294 A 
HETATM   17  C15 UNK     1      28.496  -9.125  31.236  1.00  0.00     0.050 C 
HETATM   18  C18 UNK     1      29.122  -9.661  28.303  1.00  0.00     0.055 C 
ENDROOT
BRANCH   4  19
HETATM   19  C8  UNK     1      32.638  -6.645  37.157  1.00  0.00     0.314 C 
BRANCH  19  20
HETATM   20  C11 UNK     1      31.492  -5.790  37.618  1.00  0.00    -0.027 A 
HETATM   21  C16 UNK     1      30.494  -6.346  38.407  1.00  0.00     0.045 A 
HETATM   22  C19 UNK     1      29.431  -5.551  38.834  1.00  0.00     0.068 A 
HETATM   23  C21 UNK     1      29.373  -4.207  38.468  1.00  0.00     0.037 A 
HETATM   24  C20 UNK     1      30.380  -3.657  37.675  1.00  0.00     0.003 A 
HETATM   25  C17 UNK     1      31.444  -4.452  37.247  1.00  0.00     0.009 A 
BRANCH  22  26
HETATM   26  O4  UNK     1      28.448  -6.089  39.609  1.00  0.00    -0.356 OA
HETATM   27  C22 UNK     1      28.010  -7.406  39.280  1.00  0.00     0.210 C 
ENDBRANCH  22  26
ENDBRANCH  19  20
ENDBRANCH   4  19
TORSDOF 3
ENDMDL
MODEL 10
REMARK VINA RESULT:      -8.2      1.703      2.258
REMARK  3 active torsions:
REMARK  status: ('A' for Active; 'I' for Inactive)
REMARK    1  A    between atoms: C19_24  and  O4_4 
REMARK    2  A    between atoms: C8_13  and  N1_5 
REMARK    3  A    between atoms: C11_16  and  C8_13 
ROOT
HETATM    1  O1  UNK     1      18.182   6.928  31.600  1.00  0.00    -0.320 OA
HETATM    2  O2  UNK     1      19.085   2.483  30.250  1.00  0.00    -0.274 OA
HETATM    3  O3  UNK     1      19.557   0.388  29.514  1.00  0.00    -0.259 OA
HETATM    4  N1  UNK     1      17.079   7.396  33.727  1.00  0.00     0.120 N 
HETATM    5  C1  UNK     1      17.561   6.142  34.318  1.00  0.00     0.317 C 
HETATM    6  C2  UNK     1      17.949   5.156  33.248  1.00  0.00     0.005 A 
HETATM    7  C3  UNK     1      18.253   5.608  31.960  1.00  0.00     0.087 A 
HETATM    8  C4  UNK     1      18.037   7.837  32.709  1.00  0.00     0.448 C 
HETATM    9  C5  UNK     1      18.618   4.700  30.971  1.00  0.00     0.007 A 
HETATM   10  C6  UNK     1      18.419   2.851  32.561  1.00  0.00     0.006 A 
HETATM   11  C7  UNK     1      18.049   3.786  33.543  1.00  0.00     0.026 A 
HETATM   12  C9  UNK     1      18.698   3.343  31.290  1.00  0.00     0.099 A 
HETATM   13  C10 UNK     1      18.534   1.399  32.806  1.00  0.00    -0.037 A 
HETATM   14  C12 UNK     1      18.919   5.171  29.584  1.00  0.00     0.054 C 
HETATM   15  C13 UNK     1      18.941   0.587  31.806  1.00  0.00     0.020 A 
HETATM   16  C14 UNK     1      19.223   1.119  30.442  1.00  0.00     0.294 A 
HETATM   17  C15 UNK     1      18.168   0.907  34.184  1.00  0.00     0.050 C 
HETATM   18  C18 UNK     1      19.162  -0.898  31.939  1.00  0.00     0.055 C 
ENDROOT
BRANCH   4  19
HETATM   19  C8  UNK     1      16.892   8.417  34.755  1.00  0.00     0.314 C 
BRANCH  19  20
HETATM   20  C11 UNK     1      15.946   9.481  34.274  1.00  0.00    -0.027 A 
HETATM   21  C16 UNK     1      16.332  10.815  34.321  1.00  0.00     0.045 A 
HETATM   22  C19 UNK     1      15.454  11.802  33.875  1.00  0.00     0.068 A 
HETATM   23  C21 UNK     1      14.196  11.447  33.387  1.00  0.00     0.037 A 
HETATM   24  C20 UNK     1      13.817  10.106  33.345  1.00  0.00     0.003 A 
HETATM   25  C17 UNK     1      14.695   9.118  33.791  1.00  0.00     0.009 A 
BRANCH  22  26
HETATM   26  O4  UNK     1      15.823  13.111  33.917  1.00  0.00    -0.356 OA
HETATM   27  C22 UNK     1      17.222  13.393  33.867  1.00  0.00     0.210 C 
ENDBRANCH  22  26
ENDBRANCH  19  20
ENDBRANCH   4  19
TORSDOF 3
ENDMDL
