MODEL 1
REMARK VINA RESULT:      -6.8      0.000      0.000
REMARK  2 active torsions:
REMARK  status: ('A' for Active; 'I' for Inactive)
REMARK    1  A    between atoms: C10_15  and  O3_4 
REMARK    2  A    between atoms: C10_15  and  C4_9 
ROOT
HETATM    1 Br1  UNK     1      17.941   6.617  31.519  1.00  0.00    -0.051 Br
HETATM    2  O1  UNK     1      18.854   0.675  32.332  1.00  0.00    -0.274 OA
HETATM    3  O2  UNK     1      19.429  -1.375  31.504  1.00  0.00    -0.259 OA
HETATM    4  C1  UNK     1      18.842   2.606  30.853  1.00  0.00     0.000 A 
HETATM    5  C2  UNK     1      18.649   2.052  32.115  1.00  0.00     0.089 A 
HETATM    6  C3  UNK     1      19.258   1.740  29.761  1.00  0.00     0.039 A 
HETATM    7  C4  UNK     1      19.452   0.433  29.973  1.00  0.00     0.114 A 
HETATM    8  C5  UNK     1      18.629   3.975  30.679  1.00  0.00     0.033 A 
HETATM    9  C6  UNK     1      18.252   2.826  33.204  1.00  0.00     0.039 A 
HETATM   10  C7  UNK     1      19.253  -0.178  31.306  1.00  0.00     0.305 A 
HETATM   11  C8  UNK     1      18.230   4.765  31.761  1.00  0.00     0.011 A 
HETATM   12  C9  UNK     1      18.041   4.191  33.021  1.00  0.00     0.022 A 
ENDROOT
BRANCH   7  13
HETATM   13  C10 UNK     1      19.870  -0.358  28.809  1.00  0.00     0.182 C 
HETATM   14  O4  UNK     1      19.207  -0.498  27.799  1.00  0.00    -0.646 OA
BRANCH  13  15
HETATM   15  O3  UNK     1      21.087  -0.891  29.042  1.00  0.00    -0.772 OA
HETATM   16  H5  UNK     1      21.030  -1.734  29.542  1.00  0.00     0.167 HD
ENDBRANCH  13  15
ENDBRANCH   7  13
TORSDOF 2
ENDMDL
MODEL 2
REMARK VINA RESULT:      -6.7     22.206     23.674
REMARK  2 active torsions:
REMARK  status: ('A' for Active; 'I' for Inactive)
REMARK    1  A    between atoms: C10_15  and  O3_4 
REMARK    2  A    between atoms: C10_15  and  C4_9 
ROOT
HETATM    1 Br1  UNK     1      16.652  10.354  10.079  1.00  0.00    -0.051 Br
HETATM    2  O1  UNK     1      13.776   5.061   9.359  1.00  0.00    -0.274 OA
HETATM    3  O2  UNK     1      12.196   3.789   8.308  1.00  0.00    -0.259 OA
HETATM    4  C1  UNK     1      14.066   7.388   8.714  1.00  0.00     0.000 A 
HETATM    5  C2  UNK     1      14.427   6.302   9.506  1.00  0.00     0.089 A 
HETATM    6  C3  UNK     1      13.005   7.222   7.733  1.00  0.00     0.039 A 
HETATM    7  C4  UNK     1      12.390   6.041   7.598  1.00  0.00     0.114 A 
HETATM    8  C5  UNK     1      14.736   8.601   8.889  1.00  0.00     0.033 A 
HETATM    9  C6  UNK     1      15.436   6.394  10.462  1.00  0.00     0.039 A 
HETATM   10  C7  UNK     1      12.757   4.872   8.428  1.00  0.00     0.305 A 
HETATM   11  C8  UNK     1      15.750   8.709   9.845  1.00  0.00     0.011 A 
HETATM   12  C9  UNK     1      16.098   7.608  10.631  1.00  0.00     0.022 A 
ENDROOT
BRANCH   7  13
HETATM   13  C10 UNK     1      11.333   5.973   6.582  1.00  0.00     0.182 C 
HETATM   14  O4  UNK     1      10.160   5.757   6.824  1.00  0.00    -0.646 OA
BRANCH  13  15
HETATM   15  O3  UNK     1      11.867   6.185   5.362  1.00  0.00    -0.772 OA
HETATM   16  H5  UNK     1      12.738   5.744   5.259  1.00  0.00     0.167 HD
ENDBRANCH  13  15
ENDBRANCH   7  13
TORSDOF 2
ENDMDL
MODEL 3
REMARK VINA RESULT:      -6.6      3.174      4.126
REMARK  2 active torsions:
REMARK  status: ('A' for Active; 'I' for Inactive)
REMARK    1  A    between atoms: C10_15  and  O3_4 
REMARK    2  A    between atoms: C10_15  and  C4_9 
ROOT
HETATM    1 Br1  UNK     1      18.509  -1.994  36.493  1.00  0.00    -0.051 Br
HETATM    2  O1  UNK     1      18.492   1.856  31.805  1.00  0.00    -0.274 OA
HETATM    3  O2  UNK     1      18.932   2.311  29.610  1.00  0.00    -0.259 OA
HETATM    4  C1  UNK     1      18.987  -0.352  32.695  1.00  0.00     0.000 A 
HETATM    5  C2  UNK     1      18.508   0.942  32.877  1.00  0.00     0.089 A 
HETATM    6  C3  UNK     1      19.472  -0.745  31.382  1.00  0.00     0.039 A 
HETATM    7  C4  UNK     1      19.455   0.128  30.367  1.00  0.00     0.114 A 
HETATM    8  C5  UNK     1      18.985  -1.229  33.782  1.00  0.00     0.033 A 
HETATM    9  C6  UNK     1      18.027   1.381  34.109  1.00  0.00     0.039 A 
HETATM   10  C7  UNK     1      18.949   1.508  30.536  1.00  0.00     0.305 A 
HETATM   11  C8  UNK     1      18.507  -0.804  35.025  1.00  0.00     0.011 A 
HETATM   12  C9  UNK     1      18.030   0.499  35.188  1.00  0.00     0.022 A 
ENDROOT
BRANCH   7  13
HETATM   13  C10 UNK     1      19.966  -0.362  29.081  1.00  0.00     0.182 C 
HETATM   14  O4  UNK     1      21.101  -0.757  28.898  1.00  0.00    -0.646 OA
BRANCH  13  15
HETATM   15  O3  UNK     1      18.986  -0.302  28.156  1.00  0.00    -0.772 OA
HETATM   16  H5  UNK     1      19.332  -0.412  27.245  1.00  0.00     0.167 HD
ENDBRANCH  13  15
ENDBRANCH   7  13
TORSDOF 2
ENDMDL
MODEL 4
REMARK VINA RESULT:      -6.6     22.049     23.488
REMARK  2 active torsions:
REMARK  status: ('A' for Active; 'I' for Inactive)
REMARK    1  A    between atoms: C10_15  and  O3_4 
REMARK    2  A    between atoms: C10_15  and  C4_9 
ROOT
HETATM    1 Br1  UNK     1       9.430   6.200   5.695  1.00  0.00    -0.051 Br
HETATM    2  O1  UNK     1      13.337   7.541  10.138  1.00  0.00    -0.274 OA
HETATM    3  O2  UNK     1      15.271   7.112  11.276  1.00  0.00    -0.259 OA
HETATM    4  C1  UNK     1      12.710   6.127   8.262  1.00  0.00     0.000 A 
HETATM    5  C2  UNK     1      12.447   7.208   9.099  1.00  0.00     0.089 A 
HETATM    6  C3  UNK     1      13.918   5.348   8.478  1.00  0.00     0.039 A 
HETATM    7  C4  UNK     1      14.761   5.670   9.467  1.00  0.00     0.114 A 
HETATM    8  C5  UNK     1      11.803   5.829   7.243  1.00  0.00     0.033 A 
HETATM    9  C6  UNK     1      11.308   7.996   8.944  1.00  0.00     0.039 A 
HETATM   10  C7  UNK     1      14.503   6.814  10.368  1.00  0.00     0.305 A 
HETATM   11  C8  UNK     1      10.656   6.609   7.075  1.00  0.00     0.011 A 
HETATM   12  C9  UNK     1      10.408   7.690   7.925  1.00  0.00     0.022 A 
ENDROOT
BRANCH   7  13
HETATM   13  C10 UNK     1      15.952   4.823   9.606  1.00  0.00     0.182 C 
HETATM   14  O4  UNK     1      15.925   3.637   9.873  1.00  0.00    -0.646 OA
BRANCH  13  15
HETATM   15  O3  UNK     1      17.058   5.565   9.391  1.00  0.00    -0.772 OA
HETATM   16  H5  UNK     1      16.895   6.521   9.540  1.00  0.00     0.167 HD
ENDBRANCH  13  15
ENDBRANCH   7  13
TORSDOF 2
ENDMDL
MODEL 5
REMARK VINA RESULT:      -6.5      5.171      6.784
REMARK  2 active torsions:
REMARK  status: ('A' for Active; 'I' for Inactive)
REMARK    1  A    between atoms: C10_15  and  O3_4 
REMARK    2  A    between atoms: C10_15  and  C4_9 
ROOT
HETATM    1 Br1  UNK     1      20.310  -1.711  30.123  1.00  0.00    -0.051 Br
HETATM    2  O1  UNK     1      19.183  -1.864  36.082  1.00  0.00    -0.274 OA
HETATM    3  O2  UNK     1      17.955  -1.190  37.887  1.00  0.00    -0.259 OA
HETATM    4  C1  UNK     1      18.629  -1.018  33.871  1.00  0.00     0.000 A 
HETATM    5  C2  UNK     1      19.423  -1.810  34.695  1.00  0.00     0.089 A 
HETATM    6  C3  UNK     1      17.549  -0.246  34.464  1.00  0.00     0.039 A 
HETATM    7  C4  UNK     1      17.326  -0.302  35.782  1.00  0.00     0.114 A 
HETATM    8  C5  UNK     1      18.899  -0.991  32.500  1.00  0.00     0.033 A 
HETATM    9  C6  UNK     1      20.472  -2.574  34.189  1.00  0.00     0.039 A 
HETATM   10  C7  UNK     1      18.156  -1.137  36.678  1.00  0.00     0.305 A 
HETATM   11  C8  UNK     1      19.948  -1.752  31.978  1.00  0.00     0.011 A 
HETATM   12  C9  UNK     1      20.734  -2.541  32.821  1.00  0.00     0.022 A 
ENDROOT
BRANCH   7  13
HETATM   13  C10 UNK     1      16.213   0.513  36.287  1.00  0.00     0.182 C 
HETATM   14  O4  UNK     1      15.079   0.474  35.848  1.00  0.00    -0.646 OA
BRANCH  13  15
HETATM   15  O3  UNK     1      16.649   1.293  37.296  1.00  0.00    -0.772 OA
HETATM   16  H5  UNK     1      17.601   1.150  37.489  1.00  0.00     0.167 HD
ENDBRANCH  13  15
ENDBRANCH   7  13
TORSDOF 2
ENDMDL
MODEL 6
REMARK VINA RESULT:      -6.5      3.878      4.774
REMARK  2 active torsions:
REMARK  status: ('A' for Active; 'I' for Inactive)
REMARK    1  A    between atoms: C10_15  and  O3_4 
REMARK    2  A    between atoms: C10_15  and  C4_9 
ROOT
HETATM    1 Br1  UNK     1      16.130   0.902  36.820  1.00  0.00    -0.051 Br
HETATM    2  O1  UNK     1      20.320  -2.687  34.297  1.00  0.00    -0.274 OA
HETATM    3  O2  UNK     1      21.507  -3.369  32.467  1.00  0.00    -0.259 OA
HETATM    4  C1  UNK     1      18.675  -0.912  34.066  1.00  0.00     0.000 A 
HETATM    5  C2  UNK     1      19.343  -1.842  34.857  1.00  0.00     0.089 A 
HETATM    6  C3  UNK     1      19.001  -0.828  32.651  1.00  0.00     0.039 A 
HETATM    7  C4  UNK     1      19.931  -1.634  32.124  1.00  0.00     0.114 A 
HETATM    8  C5  UNK     1      17.712  -0.092  34.658  1.00  0.00     0.033 A 
HETATM    9  C6  UNK     1      19.079  -1.971  36.219  1.00  0.00     0.039 A 
HETATM   10  C7  UNK     1      20.655  -2.629  32.946  1.00  0.00     0.305 A 
HETATM   11  C8  UNK     1      17.435  -0.210  36.023  1.00  0.00     0.011 A 
HETATM   12  C9  UNK     1      18.116  -1.149  36.801  1.00  0.00     0.022 A 
ENDROOT
BRANCH   7  13
HETATM   13  C10 UNK     1      20.190  -1.474  30.688  1.00  0.00     0.182 C 
HETATM   14  O4  UNK     1      20.675  -0.480  30.184  1.00  0.00    -0.646 OA
BRANCH  13  15
HETATM   15  O3  UNK     1      19.808  -2.591  30.036  1.00  0.00    -0.772 OA
HETATM   16  H5  UNK     1      18.863  -2.558  29.770  1.00  0.00     0.167 HD
ENDBRANCH  13  15
ENDBRANCH   7  13
TORSDOF 2
ENDMDL
MODEL 7
REMARK VINA RESULT:      -6.4     13.329     16.002
REMARK  2 active torsions:
REMARK  status: ('A' for Active; 'I' for Inactive)
REMARK    1  A    between atoms: C10_15  and  O3_4 
REMARK    2  A    between atoms: C10_15  and  C4_9 
ROOT
HETATM    1 Br1  UNK     1      17.818  -5.287  15.050  1.00  0.00    -0.051 Br
HETATM    2  O1  UNK     1      19.463   0.546  14.767  1.00  0.00    -0.274 OA
HETATM    3  O2  UNK     1      19.821   2.558  15.788  1.00  0.00    -0.259 OA
HETATM    4  C1  UNK     1      18.698  -1.349  16.085  1.00  0.00     0.000 A 
HETATM    5  C2  UNK     1      19.076  -0.805  14.861  1.00  0.00     0.089 A 
HETATM    6  C3  UNK     1      18.709  -0.500  17.265  1.00  0.00     0.039 A 
HETATM    7  C4  UNK     1      19.077   0.784  17.170  1.00  0.00     0.114 A 
HETATM    8  C5  UNK     1      18.322  -2.693  16.137  1.00  0.00     0.033 A 
HETATM    9  C6  UNK     1      19.090  -1.565  13.693  1.00  0.00     0.039 A 
HETATM   10  C7  UNK     1      19.484   1.383  15.880  1.00  0.00     0.305 A 
HETATM   11  C8  UNK     1      18.330  -3.468  14.974  1.00  0.00     0.011 A 
HETATM   12  C9  UNK     1      18.713  -2.905  13.754  1.00  0.00     0.022 A 
ENDROOT
BRANCH   7  13
HETATM   13  C10 UNK     1      19.054   1.559  18.415  1.00  0.00     0.182 C 
HETATM   14  O4  UNK     1      19.477   1.158  19.483  1.00  0.00    -0.646 OA
BRANCH  13  15
HETATM   15  O3  UNK     1      18.498   2.766  18.183  1.00  0.00    -0.772 OA
HETATM   16  H5  UNK     1      18.458   3.316  18.995  1.00  0.00     0.167 HD
ENDBRANCH  13  15
ENDBRANCH   7  13
TORSDOF 2
ENDMDL
MODEL 8
REMARK VINA RESULT:      -6.3      3.909      6.049
REMARK  2 active torsions:
REMARK  status: ('A' for Active; 'I' for Inactive)
REMARK    1  A    between atoms: C10_15  and  O3_4 
REMARK    2  A    between atoms: C10_15  and  C4_9 
ROOT
HETATM    1 Br1  UNK     1      19.050   0.996  29.302  1.00  0.00    -0.051 Br
HETATM    2  O1  UNK     1      20.593  -2.919  33.672  1.00  0.00    -0.274 OA
HETATM    3  O2  UNK     1      20.370  -3.696  35.809  1.00  0.00    -0.259 OA
HETATM    4  C1  UNK     1      19.264  -1.018  32.942  1.00  0.00     0.000 A 
HETATM    5  C2  UNK     1      20.217  -1.997  32.676  1.00  0.00     0.089 A 
HETATM    6  C3  UNK     1      18.664  -0.961  34.266  1.00  0.00     0.039 A 
HETATM    7  C4  UNK     1      19.026  -1.840  35.208  1.00  0.00     0.114 A 
HETATM    8  C5  UNK     1      18.918  -0.123  31.928  1.00  0.00     0.033 A 
HETATM    9  C6  UNK     1      20.828  -2.107  31.429  1.00  0.00     0.039 A 
HETATM   10  C7  UNK     1      20.035  -2.890  34.948  1.00  0.00     0.305 A 
HETATM   11  C8  UNK     1      19.522  -0.220  30.672  1.00  0.00     0.011 A 
HETATM   12  C9  UNK     1      20.476  -1.209  30.423  1.00  0.00     0.022 A 
ENDROOT
BRANCH   7  13
HETATM   13  C10 UNK     1      18.365  -1.702  36.512  1.00  0.00     0.182 C 
HETATM   14  O4  UNK     1      18.331  -0.673  37.159  1.00  0.00    -0.646 OA
BRANCH  13  15
HETATM   15  O3  UNK     1      17.814  -2.881  36.864  1.00  0.00    -0.772 OA
HETATM   16  H5  UNK     1      18.321  -3.645  36.513  1.00  0.00     0.167 HD
ENDBRANCH  13  15
ENDBRANCH   7  13
TORSDOF 2
ENDMDL
MODEL 9
REMARK VINA RESULT:      -6.3     13.997     15.473
REMARK  2 active torsions:
REMARK  status: ('A' for Active; 'I' for Inactive)
REMARK    1  A    between atoms: C10_15  and  O3_4 
REMARK    2  A    between atoms: C10_15  and  C4_9 
ROOT
HETATM    1 Br1  UNK     1      33.701  -6.862  37.839  1.00  0.00    -0.051 Br
HETATM    2  O1  UNK     1      28.053  -4.793  38.634  1.00  0.00    -0.274 OA
HETATM    3  O2  UNK     1      25.822  -5.182  38.931  1.00  0.00    -0.259 OA
HETATM    4  C1  UNK     1      29.578  -6.673  38.399  1.00  0.00     0.000 A 
HETATM    5  C2  UNK     1      29.355  -5.301  38.450  1.00  0.00     0.089 A 
HETATM    6  C3  UNK     1      28.446  -7.576  38.539  1.00  0.00     0.039 A 
HETATM    7  C4  UNK     1      27.212  -7.088  38.713  1.00  0.00     0.114 A 
HETATM    8  C5  UNK     1      30.882  -7.137  38.216  1.00  0.00     0.033 A 
HETATM    9  C6  UNK     1      30.395  -4.383  38.325  1.00  0.00     0.039 A 
HETATM   10  C7  UNK     1      26.950  -5.633  38.772  1.00  0.00     0.305 A 
HETATM   11  C8  UNK     1      31.937  -6.229  38.089  1.00  0.00     0.011 A 
HETATM   12  C9  UNK     1      31.694  -4.854  38.142  1.00  0.00     0.022 A 
ENDROOT
BRANCH   7  13
HETATM   13  C10 UNK     1      26.135  -8.077  38.843  1.00  0.00     0.182 C 
HETATM   14  O4  UNK     1      26.174  -9.043  39.582  1.00  0.00    -0.646 OA
BRANCH  13  15
HETATM   15  O3  UNK     1      25.118  -7.745  38.023  1.00  0.00    -0.772 OA
HETATM   16  H5  UNK     1      24.622  -8.533  37.712  1.00  0.00     0.167 HD
ENDBRANCH  13  15
ENDBRANCH   7  13
TORSDOF 2
ENDMDL
MODEL 10
REMARK VINA RESULT:      -6.3      4.591      6.135
REMARK  2 active torsions:
REMARK  status: ('A' for Active; 'I' for Inactive)
REMARK    1  A    between atoms: C10_15  and  O3_4 
REMARK    2  A    between atoms: C10_15  and  C4_9 
ROOT
HETATM    1 Br1  UNK     1      14.031  10.018  33.466  1.00  0.00    -0.051 Br
HETATM    2  O1  UNK     1      19.537   7.472  33.381  1.00  0.00    -0.274 OA
HETATM    3  O2  UNK     1      21.081   6.117  32.381  1.00  0.00    -0.259 OA
HETATM    4  C1  UNK     1      17.358   7.777  32.345  1.00  0.00     0.000 A 
HETATM    5  C2  UNK     1      18.252   8.049  33.376  1.00  0.00     0.089 A 
HETATM    6  C3  UNK     1      17.771   6.886  31.273  1.00  0.00     0.039 A 
HETATM    7  C4  UNK     1      18.993   6.340  31.283  1.00  0.00     0.114 A 
HETATM    8  C5  UNK     1      16.094   8.369  32.376  1.00  0.00     0.033 A 
HETATM    9  C6  UNK     1      17.919   8.896  34.432  1.00  0.00     0.039 A 
HETATM   10  C7  UNK     1      19.961   6.615  32.368  1.00  0.00     0.305 A 
HETATM   11  C8  UNK     1      15.745   9.220  33.429  1.00  0.00     0.011 A 
HETATM   12  C9  UNK     1      16.655   9.482  34.455  1.00  0.00     0.022 A 
ENDROOT
BRANCH   7  13
HETATM   13  C10 UNK     1      19.317   5.453  30.158  1.00  0.00     0.182 C 
HETATM   14  O4  UNK     1      18.938   4.302  30.059  1.00  0.00    -0.646 OA
BRANCH  13  15
HETATM   15  O3  UNK     1      20.088   6.116  29.272  1.00  0.00    -0.772 OA
HETATM   16  H5  UNK     1      20.137   5.653  28.407  1.00  0.00     0.167 HD
ENDBRANCH  13  15
ENDBRANCH   7  13
TORSDOF 2
ENDMDL
