MODEL 1
REMARK VINA RESULT:      -9.8      0.000      0.000
REMARK  4 active torsions:
REMARK  status: ('A' for Active; 'I' for Inactive)
REMARK    1  A    between atoms: C18_25  and  O4_5 
REMARK    2  A    between atoms: C1_8  and  N1_7 
REMARK       I    between atoms: C8_15  and  N1_7 
REMARK    3  A    between atoms: C4_11  and  C8_15 
REMARK    4  A    between atoms: C18_25  and  C9_16 
ROOT
HETATM    1  O2  UNK     1      17.581   3.282  32.748  1.00  0.00    -0.267 OA
HETATM    2  N1  UNK     1      18.757   4.745  31.318  1.00  0.00    -0.322 N 
HETATM    3  C8  UNK     1      18.286   3.520  31.769  1.00  0.00     0.262 C 
HETATM    4  H2  UNK     1      19.156   4.773  30.383  1.00  0.00     0.169 HD
ENDROOT
BRANCH   3   5
HETATM    5  C4  UNK     1      18.730   2.414  30.912  1.00  0.00     0.108 A 
HETATM    6  C12 UNK     1      18.700   2.504  29.435  1.00  0.00     0.304 A 
HETATM    7  O1  UNK     1      19.148   1.389  28.732  1.00  0.00    -0.274 OA
HETATM    8  O3  UNK     1      18.302   3.509  28.855  1.00  0.00    -0.259 OA
HETATM    9  C5  UNK     1      19.609   0.232  29.388  1.00  0.00     0.089 A 
HETATM   10  C15 UNK     1      20.038  -0.833  28.598  1.00  0.00     0.040 A 
HETATM   11  C3  UNK     1      19.629   0.168  30.777  1.00  0.00     0.001 A 
HETATM   12  C17 UNK     1      20.499  -1.991  29.219  1.00  0.00     0.026 A 
HETATM   13  C16 UNK     1      20.526  -2.074  30.613  1.00  0.00     0.035 A 
HETATM   14  C14 UNK     1      20.092  -0.998  31.392  1.00  0.00     0.038 A 
HETATM   15 Cl1  UNK     1      21.097  -3.509  31.376  1.00  0.00    -0.084 Cl
HETATM   16  C6  UNK     1      19.167   1.316  31.541  1.00  0.00     0.037 A 
ENDBRANCH   3   5
BRANCH   2  17
HETATM   17  C1  UNK     1      18.515   5.989  31.907  1.00  0.00     0.042 A 
HETATM   18  C2  UNK     1      19.499   6.626  32.661  1.00  0.00    -0.035 A 
HETATM   19  C10 UNK     1      19.237   7.866  33.243  1.00  0.00     0.010 A 
HETATM   20  C13 UNK     1      20.843   6.004  32.861  1.00  0.00     0.050 C 
HETATM   21  C11 UNK     1      17.991   8.469  33.071  1.00  0.00     0.018 A 
HETATM   22  C9  UNK     1      17.007   7.831  32.318  1.00  0.00     0.041 A 
HETATM   23  C7  UNK     1      17.268   6.590  31.736  1.00  0.00     0.047 A 
BRANCH  22  24
HETATM   24  C18 UNK     1      15.707   8.458  32.139  1.00  0.00     0.293 C 
HETATM   25  O5  UNK     1      15.425   9.618  32.448  1.00  0.00    -0.259 OA
BRANCH  24  26
HETATM   26  O4  UNK     1      14.811   7.590  31.570  1.00  0.00    -0.323 OA
HETATM   27  C19 UNK     1      13.646   7.283  32.344  1.00  0.00     0.213 C 
ENDBRANCH  24  26
ENDBRANCH  22  24
ENDBRANCH   2  17
TORSDOF 4
ENDMDL
MODEL 2
REMARK VINA RESULT:      -8.9      5.153      8.715
REMARK  4 active torsions:
REMARK  status: ('A' for Active; 'I' for Inactive)
REMARK    1  A    between atoms: C18_25  and  O4_5 
REMARK    2  A    between atoms: C1_8  and  N1_7 
REMARK       I    between atoms: C8_15  and  N1_7 
REMARK    3  A    between atoms: C4_11  and  C8_15 
REMARK    4  A    between atoms: C18_25  and  C9_16 
ROOT
HETATM    1  O2  UNK     1      17.924  -0.692  32.842  1.00  0.00    -0.267 OA
HETATM    2  N1  UNK     1      18.785   0.615  34.607  1.00  0.00    -0.322 N 
HETATM    3  C8  UNK     1      18.384   0.350  33.305  1.00  0.00     0.262 C 
HETATM    4  H2  UNK     1      18.949   1.589  34.853  1.00  0.00     0.169 HD
ENDROOT
BRANCH   3   5
HETATM    5  C4  UNK     1      18.562   1.515  32.430  1.00  0.00     0.108 A 
HETATM    6  C12 UNK     1      19.106   1.392  31.059  1.00  0.00     0.304 A 
HETATM    7  O1  UNK     1      19.226   2.569  30.326  1.00  0.00    -0.274 OA
HETATM    8  O3  UNK     1      19.435   0.308  30.588  1.00  0.00    -0.259 OA
HETATM    9  C5  UNK     1      18.849   3.818  30.857  1.00  0.00     0.089 A 
HETATM   10  C15 UNK     1      19.006   4.940  30.048  1.00  0.00     0.040 A 
HETATM   11  C3  UNK     1      18.340   3.911  32.148  1.00  0.00     0.001 A 
HETATM   12  C17 UNK     1      18.642   6.189  30.546  1.00  0.00     0.026 A 
HETATM   13  C16 UNK     1      18.129   6.302  31.840  1.00  0.00     0.035 A 
HETATM   14  C14 UNK     1      17.977   5.167  32.641  1.00  0.00     0.038 A 
HETATM   15 Cl1  UNK     1      17.680   7.849  32.451  1.00  0.00    -0.084 Cl
HETATM   16  C6  UNK     1      18.202   2.699  32.940  1.00  0.00     0.037 A 
ENDBRANCH   3   5
BRANCH   2  17
HETATM   17  C1  UNK     1      18.745  -0.279  35.681  1.00  0.00     0.042 A 
HETATM   18  C2  UNK     1      18.018   0.019  36.832  1.00  0.00    -0.035 A 
HETATM   19  C10 UNK     1      17.991  -0.886  37.893  1.00  0.00     0.010 A 
HETATM   20  C13 UNK     1      17.257   1.300  36.956  1.00  0.00     0.050 C 
HETATM   21  C11 UNK     1      18.692  -2.088  37.803  1.00  0.00     0.018 A 
HETATM   22  C9  UNK     1      19.420  -2.385  36.651  1.00  0.00     0.041 A 
HETATM   23  C7  UNK     1      19.447  -1.481  35.590  1.00  0.00     0.047 A 
BRANCH  22  24
HETATM   24  C18 UNK     1      20.151  -3.638  36.557  1.00  0.00     0.293 C 
HETATM   25  O5  UNK     1      20.234  -4.343  35.549  1.00  0.00    -0.259 OA
BRANCH  24  26
HETATM   26  O4  UNK     1      20.754  -3.951  37.748  1.00  0.00    -0.323 OA
HETATM   27  C19 UNK     1      21.386  -5.235  37.822  1.00  0.00     0.213 C 
ENDBRANCH  24  26
ENDBRANCH  22  24
ENDBRANCH   2  17
TORSDOF 4
ENDMDL
MODEL 3
REMARK VINA RESULT:      -8.7     22.377     24.288
REMARK  4 active torsions:
REMARK  status: ('A' for Active; 'I' for Inactive)
REMARK    1  A    between atoms: C18_25  and  O4_5 
REMARK    2  A    between atoms: C1_8  and  N1_7 
REMARK       I    between atoms: C8_15  and  N1_7 
REMARK    3  A    between atoms: C4_11  and  C8_15 
REMARK    4  A    between atoms: C18_25  and  C9_16 
ROOT
HETATM    1  O2  UNK     1       8.603   7.239   9.827  1.00  0.00    -0.267 OA
HETATM    2  N1  UNK     1       9.513   5.221   9.009  1.00  0.00    -0.322 N 
HETATM    3  C8  UNK     1       8.587   6.020   9.665  1.00  0.00     0.262 C 
HETATM    4  H2  UNK     1       9.236   4.265   8.799  1.00  0.00     0.169 HD
ENDROOT
BRANCH   3   5
HETATM    5  C4  UNK     1       7.473   5.232  10.207  1.00  0.00     0.108 A 
HETATM    6  C12 UNK     1       6.810   4.166   9.422  1.00  0.00     0.304 A 
HETATM    7  O1  UNK     1       5.765   3.489  10.045  1.00  0.00    -0.274 OA
HETATM    8  O3  UNK     1       7.161   3.889   8.280  1.00  0.00    -0.259 OA
HETATM    9  C5  UNK     1       5.356   3.798  11.357  1.00  0.00     0.089 A 
HETATM   10  C15 UNK     1       4.301   3.065  11.896  1.00  0.00     0.040 A 
HETATM   11  C3  UNK     1       5.992   4.804  12.077  1.00  0.00     0.001 A 
HETATM   12  C17 UNK     1       3.874   3.349  13.191  1.00  0.00     0.026 A 
HETATM   13  C16 UNK     1       4.501   4.356  13.929  1.00  0.00     0.035 A 
HETATM   14  C14 UNK     1       5.558   5.083  13.375  1.00  0.00     0.038 A 
HETATM   15 Cl1  UNK     1       3.968   4.702  15.530  1.00  0.00    -0.084 Cl
HETATM   16  C6  UNK     1       7.087   5.531  11.453  1.00  0.00     0.037 A 
ENDBRANCH   3   5
BRANCH   2  17
HETATM   17  C1  UNK     1      10.684   5.660   8.385  1.00  0.00     0.042 A 
HETATM   18  C2  UNK     1      10.655   6.168   7.087  1.00  0.00    -0.035 A 
HETATM   19  C10 UNK     1      11.834   6.599   6.481  1.00  0.00     0.010 A 
HETATM   20  C13 UNK     1       9.374   6.262   6.323  1.00  0.00     0.050 C 
HETATM   21  C11 UNK     1      13.043   6.522   7.172  1.00  0.00     0.018 A 
HETATM   22  C9  UNK     1      13.072   6.014   8.470  1.00  0.00     0.041 A 
HETATM   23  C7  UNK     1      11.893   5.582   9.076  1.00  0.00     0.047 A 
BRANCH  22  24
HETATM   24  C18 UNK     1      14.332   5.933   9.191  1.00  0.00     0.293 C 
HETATM   25  O5  UNK     1      15.370   5.425   8.761  1.00  0.00    -0.259 OA
BRANCH  24  26
HETATM   26  O4  UNK     1      14.230   6.502  10.434  1.00  0.00    -0.323 OA
HETATM   27  C19 UNK     1      14.474   7.912  10.509  1.00  0.00     0.213 C 
ENDBRANCH  24  26
ENDBRANCH  22  24
ENDBRANCH   2  17
TORSDOF 4
ENDMDL
MODEL 4
REMARK VINA RESULT:      -8.7     22.735     24.466
REMARK  4 active torsions:
REMARK  status: ('A' for Active; 'I' for Inactive)
REMARK    1  A    between atoms: C18_25  and  O4_5 
REMARK    2  A    between atoms: C1_8  and  N1_7 
REMARK       I    between atoms: C8_15  and  N1_7 
REMARK    3  A    between atoms: C4_11  and  C8_15 
REMARK    4  A    between atoms: C18_25  and  C9_16 
ROOT
HETATM    1  O2  UNK     1      12.589   6.280  10.208  1.00  0.00    -0.267 OA
HETATM    2  N1  UNK     1      11.918   7.705   8.451  1.00  0.00    -0.322 N 
HETATM    3  C8  UNK     1      12.768   7.220   9.435  1.00  0.00     0.262 C 
HETATM    4  H2  UNK     1      12.313   8.356   7.777  1.00  0.00     0.169 HD
ENDROOT
BRANCH   3   5
HETATM    5  C4  UNK     1      14.022   7.980   9.498  1.00  0.00     0.108 A 
HETATM    6  C12 UNK     1      15.146   7.571  10.371  1.00  0.00     0.304 A 
HETATM    7  O1  UNK     1      16.283   8.373  10.342  1.00  0.00    -0.274 OA
HETATM    8  O3  UNK     1      15.083   6.576  11.085  1.00  0.00    -0.259 OA
HETATM    9  C5  UNK     1      16.367   9.517   9.525  1.00  0.00     0.089 A 
HETATM   10  C15 UNK     1      17.547  10.256   9.563  1.00  0.00     0.040 A 
HETATM   11  C3  UNK     1      15.299   9.883   8.712  1.00  0.00     0.001 A 
HETATM   12  C17 UNK     1      17.658  11.392   8.766  1.00  0.00     0.026 A 
HETATM   13  C16 UNK     1      16.596  11.776   7.944  1.00  0.00     0.035 A 
HETATM   14  C14 UNK     1      15.419  11.024   7.915  1.00  0.00     0.038 A 
HETATM   15 Cl1  UNK     1      16.740  13.182   6.959  1.00  0.00    -0.084 Cl
HETATM   16  C6  UNK     1      14.096   9.066   8.719  1.00  0.00     0.037 A 
ENDBRANCH   3   5
BRANCH   2  17
HETATM   17  C1  UNK     1      10.652   7.204   8.135  1.00  0.00     0.042 A 
HETATM   18  C2  UNK     1      10.430   6.525   6.939  1.00  0.00    -0.035 A 
HETATM   19  C10 UNK     1       9.159   6.034   6.641  1.00  0.00     0.010 A 
HETATM   20  C13 UNK     1      11.536   6.307   5.957  1.00  0.00     0.050 C 
HETATM   21  C11 UNK     1       8.110   6.224   7.540  1.00  0.00     0.018 A 
HETATM   22  C9  UNK     1       8.332   6.904   8.737  1.00  0.00     0.041 A 
HETATM   23  C7  UNK     1       9.603   7.395   9.034  1.00  0.00     0.047 A 
BRANCH  22  24
HETATM   24  C18 UNK     1       7.238   7.102   9.674  1.00  0.00     0.293 C 
HETATM   25  O5  UNK     1       6.155   7.629   9.408  1.00  0.00    -0.259 OA
BRANCH  24  26
HETATM   26  O4  UNK     1       7.559   6.623  10.918  1.00  0.00    -0.323 OA
HETATM   27  C19 UNK     1       7.059   5.321  11.245  1.00  0.00     0.213 C 
ENDBRANCH  24  26
ENDBRANCH  22  24
ENDBRANCH   2  17
TORSDOF 4
ENDMDL
MODEL 5
REMARK VINA RESULT:      -8.6      8.070     12.823
REMARK  4 active torsions:
REMARK  status: ('A' for Active; 'I' for Inactive)
REMARK    1  A    between atoms: C18_25  and  O4_5 
REMARK    2  A    between atoms: C1_8  and  N1_7 
REMARK       I    between atoms: C8_15  and  N1_7 
REMARK    3  A    between atoms: C4_11  and  C8_15 
REMARK    4  A    between atoms: C18_25  and  C9_16 
ROOT
HETATM    1  O2  UNK     1      21.017  -4.299  37.284  1.00  0.00    -0.267 OA
HETATM    2  N1  UNK     1      19.453  -5.285  35.816  1.00  0.00    -0.322 N 
HETATM    3  C8  UNK     1      20.143  -4.242  36.420  1.00  0.00     0.262 C 
HETATM    4  H2  UNK     1      18.914  -5.063  34.983  1.00  0.00     0.169 HD
ENDROOT
BRANCH   3   5
HETATM    5  C4  UNK     1      19.719  -2.935  35.905  1.00  0.00     0.108 A 
HETATM    6  C12 UNK     1      20.114  -2.453  34.562  1.00  0.00     0.304 A 
HETATM    7  O1  UNK     1      19.648  -1.197  34.187  1.00  0.00    -0.274 OA
HETATM    8  O3  UNK     1      20.816  -3.125  33.814  1.00  0.00    -0.259 OA
HETATM    9  C5  UNK     1      18.839  -0.419  35.037  1.00  0.00     0.089 A 
HETATM   10  C15 UNK     1      18.420   0.826  34.573  1.00  0.00     0.040 A 
HETATM   11  C3  UNK     1      18.479  -0.890  36.296  1.00  0.00     0.001 A 
HETATM   12  C17 UNK     1      17.620   1.618  35.393  1.00  0.00     0.026 A 
HETATM   13  C16 UNK     1      17.249   1.162  36.660  1.00  0.00     0.035 A 
HETATM   14  C14 UNK     1      17.676  -0.089  37.112  1.00  0.00     0.038 A 
HETATM   15 Cl1  UNK     1      16.259   2.146  37.668  1.00  0.00    -0.084 Cl
HETATM   16  C6  UNK     1      18.951  -2.199  36.718  1.00  0.00     0.037 A 
ENDBRANCH   3   5
BRANCH   2  17
HETATM   17  C1  UNK     1      19.621  -6.647  36.082  1.00  0.00     0.042 A 
HETATM   18  C2  UNK     1      18.525  -7.459  36.368  1.00  0.00    -0.035 A 
HETATM   19  C10 UNK     1      18.713  -8.815  36.632  1.00  0.00     0.010 A 
HETATM   20  C13 UNK     1      17.138  -6.903  36.399  1.00  0.00     0.050 C 
HETATM   21  C11 UNK     1      19.997  -9.359  36.610  1.00  0.00     0.018 A 
HETATM   22  C9  UNK     1      21.093  -8.547  36.323  1.00  0.00     0.041 A 
HETATM   23  C7  UNK     1      20.905  -7.190  36.060  1.00  0.00     0.047 A 
BRANCH  22  24
HETATM   24  C18 UNK     1      22.432  -9.113  36.300  1.00  0.00     0.293 C 
HETATM   25  O5  UNK     1      23.383  -8.727  36.982  1.00  0.00    -0.259 OA
BRANCH  24  26
HETATM   26  O4  UNK     1      22.514 -10.155  35.411  1.00  0.00    -0.323 OA
HETATM   27  C19 UNK     1      23.228 -11.314  35.855  1.00  0.00     0.213 C 
ENDBRANCH  24  26
ENDBRANCH  22  24
ENDBRANCH   2  17
TORSDOF 4
ENDMDL
MODEL 6
REMARK VINA RESULT:      -8.6      8.128     12.659
REMARK  4 active torsions:
REMARK  status: ('A' for Active; 'I' for Inactive)
REMARK    1  A    between atoms: C18_25  and  O4_5 
REMARK    2  A    between atoms: C1_8  and  N1_7 
REMARK       I    between atoms: C8_15  and  N1_7 
REMARK    3  A    between atoms: C4_11  and  C8_15 
REMARK    4  A    between atoms: C18_25  and  C9_16 
ROOT
HETATM    1  O2  UNK     1      21.281  -4.206  37.166  1.00  0.00    -0.267 OA
HETATM    2  N1  UNK     1      19.881  -5.390  35.681  1.00  0.00    -0.322 N 
HETATM    3  C8  UNK     1      20.427  -4.265  36.284  1.00  0.00     0.262 C 
HETATM    4  H2  UNK     1      19.337  -5.245  34.834  1.00  0.00     0.169 HD
ENDROOT
BRANCH   3   5
HETATM    5  C4  UNK     1      19.859  -3.025  35.741  1.00  0.00     0.108 A 
HETATM    6  C12 UNK     1      20.120  -2.583  34.353  1.00  0.00     0.304 A 
HETATM    7  O1  UNK     1      19.525  -1.389  33.955  1.00  0.00    -0.274 OA
HETATM    8  O3  UNK     1      20.824  -3.233  33.588  1.00  0.00    -0.259 OA
HETATM    9  C5  UNK     1      18.713  -0.636  34.825  1.00  0.00     0.089 A 
HETATM   10  C15 UNK     1      18.160   0.545  34.336  1.00  0.00     0.040 A 
HETATM   11  C3  UNK     1      18.480  -1.070  36.126  1.00  0.00     0.001 A 
HETATM   12  C17 UNK     1      17.353   1.311  35.174  1.00  0.00     0.026 A 
HETATM   13  C16 UNK     1      17.109   0.892  36.483  1.00  0.00     0.035 A 
HETATM   14  C14 UNK     1      17.670  -0.296  36.960  1.00  0.00     0.038 A 
HETATM   15 Cl1  UNK     1      16.109   1.843  37.515  1.00  0.00    -0.084 Cl
HETATM   16  C6  UNK     1      19.089  -2.313  36.573  1.00  0.00     0.037 A 
ENDBRANCH   3   5
BRANCH   2  17
HETATM   17  C1  UNK     1      20.205  -6.719  35.969  1.00  0.00     0.042 A 
HETATM   18  C2  UNK     1      20.630  -7.585  34.963  1.00  0.00    -0.035 A 
HETATM   19  C10 UNK     1      20.948  -8.908  35.270  1.00  0.00     0.010 A 
HETATM   20  C13 UNK     1      20.755  -7.123  33.548  1.00  0.00     0.050 C 
HETATM   21  C11 UNK     1      20.840  -9.364  36.584  1.00  0.00     0.018 A 
HETATM   22  C9  UNK     1      20.415  -8.498  37.590  1.00  0.00     0.041 A 
HETATM   23  C7  UNK     1      20.097  -7.175  37.283  1.00  0.00     0.047 A 
BRANCH  22  24
HETATM   24  C18 UNK     1      20.302  -8.974  38.959  1.00  0.00     0.293 C 
HETATM   25  O5  UNK     1      19.700  -9.989  39.315  1.00  0.00    -0.259 OA
BRANCH  24  26
HETATM   26  O4  UNK     1      20.959  -8.142  39.829  1.00  0.00    -0.323 OA
HETATM   27  C19 UNK     1      22.384  -8.282  39.888  1.00  0.00     0.213 C 
ENDBRANCH  24  26
ENDBRANCH  22  24
ENDBRANCH   2  17
TORSDOF 4
ENDMDL
MODEL 7
REMARK VINA RESULT:      -8.6     14.747     19.143
REMARK  4 active torsions:
REMARK  status: ('A' for Active; 'I' for Inactive)
REMARK    1  A    between atoms: C18_25  and  O4_5 
REMARK    2  A    between atoms: C1_8  and  N1_7 
REMARK       I    between atoms: C8_15  and  N1_7 
REMARK    3  A    between atoms: C4_11  and  C8_15 
REMARK    4  A    between atoms: C18_25  and  C9_16 
ROOT
HETATM    1  O2  UNK     1      17.627  -3.409  15.764  1.00  0.00    -0.267 OA
HETATM    2  N1  UNK     1      19.693  -3.282  14.630  1.00  0.00    -0.322 N 
HETATM    3  C8  UNK     1      18.638  -2.811  15.400  1.00  0.00     0.262 C 
HETATM    4  H2  UNK     1      20.534  -2.713  14.597  1.00  0.00     0.169 HD
ENDROOT
BRANCH   3   5
HETATM    5  C4  UNK     1      18.831  -1.410  15.791  1.00  0.00     0.108 A 
HETATM    6  C12 UNK     1      19.094  -0.345  14.796  1.00  0.00     0.304 A 
HETATM    7  O1  UNK     1      19.258   0.946  15.291  1.00  0.00    -0.274 OA
HETATM    8  O3  UNK     1      19.164  -0.584  13.595  1.00  0.00    -0.259 OA
HETATM    9  C5  UNK     1      19.177   1.231  16.667  1.00  0.00     0.089 A 
HETATM   10  C15 UNK     1      19.354   2.553  17.066  1.00  0.00     0.040 A 
HETATM   11  C3  UNK     1      18.929   0.216  17.585  1.00  0.00     0.001 A 
HETATM   12  C17 UNK     1      19.280   2.866  18.422  1.00  0.00     0.026 A 
HETATM   13  C16 UNK     1      19.032   1.860  19.358  1.00  0.00     0.035 A 
HETATM   14  C14 UNK     1      18.856   0.537  18.943  1.00  0.00     0.038 A 
HETATM   15 Cl1  UNK     1      18.941   2.252  21.033  1.00  0.00    -0.084 Cl
HETATM   16  C6  UNK     1      18.753  -1.145  17.101  1.00  0.00     0.037 A 
ENDBRANCH   3   5
BRANCH   2  17
HETATM   17  C1  UNK     1      19.815  -4.570  14.100  1.00  0.00     0.042 A 
HETATM   18  C2  UNK     1      20.723  -5.480  14.638  1.00  0.00    -0.035 A 
HETATM   19  C10 UNK     1      20.832  -6.760  14.094  1.00  0.00     0.010 A 
HETATM   20  C13 UNK     1      21.591  -5.113  15.797  1.00  0.00     0.050 C 
HETATM   21  C11 UNK     1      20.033  -7.129  13.012  1.00  0.00     0.018 A 
HETATM   22  C9  UNK     1      19.125  -6.218  12.474  1.00  0.00     0.041 A 
HETATM   23  C7  UNK     1      19.017  -4.938  13.017  1.00  0.00     0.047 A 
BRANCH  22  24
HETATM   24  C18 UNK     1      18.293  -6.602  11.345  1.00  0.00     0.293 C 
HETATM   25  O5  UNK     1      17.876  -5.838  10.472  1.00  0.00    -0.259 OA
BRANCH  24  26
HETATM   26  O4  UNK     1      18.019  -7.945  11.365  1.00  0.00    -0.323 OA
HETATM   27  C19 UNK     1      16.741  -8.326  11.887  1.00  0.00     0.213 C 
ENDBRANCH  24  26
ENDBRANCH  22  24
ENDBRANCH   2  17
TORSDOF 4
ENDMDL
MODEL 8
REMARK VINA RESULT:      -8.5      8.641     12.901
REMARK  4 active torsions:
REMARK  status: ('A' for Active; 'I' for Inactive)
REMARK    1  A    between atoms: C18_25  and  O4_5 
REMARK    2  A    between atoms: C1_8  and  N1_7 
REMARK       I    between atoms: C8_15  and  N1_7 
REMARK    3  A    between atoms: C4_11  and  C8_15 
REMARK    4  A    between atoms: C18_25  and  C9_16 
ROOT
HETATM    1  O2  UNK     1      20.254  -4.831  35.236  1.00  0.00    -0.267 OA
HETATM    2  N1  UNK     1      19.732  -4.715  37.535  1.00  0.00    -0.322 N 
HETATM    3  C8  UNK     1      19.907  -4.224  36.248  1.00  0.00     0.262 C 
HETATM    4  H2  UNK     1      19.249  -4.115  38.199  1.00  0.00     0.169 HD
ENDROOT
BRANCH   3   5
HETATM    5  C4  UNK     1      19.619  -2.787  36.167  1.00  0.00     0.108 A 
HETATM    6  C12 UNK     1      20.658  -1.797  35.802  1.00  0.00     0.304 A 
HETATM    7  O1  UNK     1      20.262  -0.464  35.758  1.00  0.00    -0.274 OA
HETATM    8  O3  UNK     1      21.810  -2.131  35.548  1.00  0.00    -0.259 OA
HETATM    9  C5  UNK     1      18.941  -0.070  36.045  1.00  0.00     0.089 A 
HETATM   10  C15 UNK     1      18.640   1.288  35.974  1.00  0.00     0.040 A 
HETATM   11  C3  UNK     1      17.980  -1.016  36.387  1.00  0.00     0.001 A 
HETATM   12  C17 UNK     1      17.341   1.708  36.254  1.00  0.00     0.026 A 
HETATM   13  C16 UNK     1      16.364   0.772  36.599  1.00  0.00     0.035 A 
HETATM   14  C14 UNK     1      16.680  -0.587  36.666  1.00  0.00     0.038 A 
HETATM   15 Cl1  UNK     1      14.759   1.297  36.943  1.00  0.00    -0.084 Cl
HETATM   16  C6  UNK     1      18.362  -2.418  36.442  1.00  0.00     0.037 A 
ENDBRANCH   3   5
BRANCH   2  17
HETATM   17  C1  UNK     1      19.923  -6.037  37.946  1.00  0.00     0.042 A 
HETATM   18  C2  UNK     1      18.969  -7.015  37.672  1.00  0.00    -0.035 A 
HETATM   19  C10 UNK     1      19.177  -8.329  38.092  1.00  0.00     0.010 A 
HETATM   20  C13 UNK     1      17.714  -6.685  36.930  1.00  0.00     0.050 C 
HETATM   21  C11 UNK     1      20.339  -8.664  38.786  1.00  0.00     0.018 A 
HETATM   22  C9  UNK     1      21.293  -7.685  39.060  1.00  0.00     0.041 A 
HETATM   23  C7  UNK     1      21.085  -6.371  38.640  1.00  0.00     0.047 A 
BRANCH  22  24
HETATM   24  C18 UNK     1      22.505  -8.033  39.784  1.00  0.00     0.293 C 
HETATM   25  O5  UNK     1      22.593  -8.902  40.655  1.00  0.00    -0.259 OA
BRANCH  24  26
HETATM   26  O4  UNK     1      23.566  -7.266  39.375  1.00  0.00    -0.323 OA
HETATM   27  C19 UNK     1      24.682  -7.970  38.818  1.00  0.00     0.213 C 
ENDBRANCH  24  26
ENDBRANCH  22  24
ENDBRANCH   2  17
TORSDOF 4
ENDMDL
MODEL 9
REMARK VINA RESULT:      -8.4     14.971     16.740
REMARK  4 active torsions:
REMARK  status: ('A' for Active; 'I' for Inactive)
REMARK    1  A    between atoms: C18_25  and  O4_5 
REMARK    2  A    between atoms: C1_8  and  N1_7 
REMARK       I    between atoms: C8_15  and  N1_7 
REMARK    3  A    between atoms: C4_11  and  C8_15 
REMARK    4  A    between atoms: C18_25  and  C9_16 
ROOT
HETATM    1  O2  UNK     1      26.148  -9.021  39.452  1.00  0.00    -0.267 OA
HETATM    2  N1  UNK     1      24.943  -7.607  37.997  1.00  0.00    -0.322 N 
HETATM    3  C8  UNK     1      26.029  -8.009  38.763  1.00  0.00     0.262 C 
HETATM    4  H2  UNK     1      25.097  -6.849  37.337  1.00  0.00     0.169 HD
ENDROOT
BRANCH   3   5
HETATM    5  C4  UNK     1      27.137  -7.050  38.686  1.00  0.00     0.108 A 
HETATM    6  C12 UNK     1      26.920  -5.589  38.780  1.00  0.00     0.304 A 
HETATM    7  O1  UNK     1      28.052  -4.783  38.695  1.00  0.00    -0.274 OA
HETATM    8  O3  UNK     1      25.802  -5.108  38.928  1.00  0.00    -0.259 OA
HETATM    9  C5  UNK     1      29.341  -5.324  38.528  1.00  0.00     0.089 A 
HETATM   10  C15 UNK     1      30.412  -4.437  38.453  1.00  0.00     0.040 A 
HETATM   11  C3  UNK     1      29.523  -6.701  38.441  1.00  0.00     0.001 A 
HETATM   12  C17 UNK     1      31.699  -4.944  38.288  1.00  0.00     0.026 A 
HETATM   13  C16 UNK     1      31.900  -6.323  38.198  1.00  0.00     0.035 A 
HETATM   14  C14 UNK     1      30.816  -7.201  38.275  1.00  0.00     0.038 A 
HETATM   15 Cl1  UNK     1      33.494  -6.944  37.994  1.00  0.00    -0.084 Cl
HETATM   16  C6  UNK     1      28.360  -7.571  38.526  1.00  0.00     0.037 A 
ENDBRANCH   3   5
BRANCH   2  17
HETATM   17  C1  UNK     1      23.734  -8.294  37.856  1.00  0.00     0.042 A 
HETATM   18  C2  UNK     1      22.662  -8.036  38.708  1.00  0.00    -0.035 A 
HETATM   19  C10 UNK     1      21.464  -8.734  38.553  1.00  0.00     0.010 A 
HETATM   20  C13 UNK     1      22.768  -7.018  39.797  1.00  0.00     0.050 C 
HETATM   21  C11 UNK     1      21.339  -9.689  37.545  1.00  0.00     0.018 A 
HETATM   22  C9  UNK     1      22.412  -9.947  36.692  1.00  0.00     0.041 A 
HETATM   23  C7  UNK     1      23.610  -9.250  36.848  1.00  0.00     0.047 A 
BRANCH  22  24
HETATM   24  C18 UNK     1      22.282 -10.944  35.641  1.00  0.00     0.293 C 
HETATM   25  O5  UNK     1      21.218 -11.386  35.204  1.00  0.00    -0.259 OA
BRANCH  24  26
HETATM   26  O4  UNK     1      23.511 -11.342  35.181  1.00  0.00    -0.323 OA
HETATM   27  C19 UNK     1      24.048 -12.539  35.756  1.00  0.00     0.213 C 
ENDBRANCH  24  26
ENDBRANCH  22  24
ENDBRANCH   2  17
TORSDOF 4
ENDMDL
MODEL 10
REMARK VINA RESULT:      -8.4      3.181      3.894
REMARK  4 active torsions:
REMARK  status: ('A' for Active; 'I' for Inactive)
REMARK    1  A    between atoms: C18_25  and  O4_5 
REMARK    2  A    between atoms: C1_8  and  N1_7 
REMARK       I    between atoms: C8_15  and  N1_7 
REMARK    3  A    between atoms: C4_11  and  C8_15 
REMARK    4  A    between atoms: C18_25  and  C9_16 
ROOT
HETATM    1  O2  UNK     1      17.539   4.372  31.774  1.00  0.00    -0.267 OA
HETATM    2  N1  UNK     1      18.251   4.932  33.954  1.00  0.00    -0.322 N 
HETATM    3  C8  UNK     1      17.953   4.084  32.896  1.00  0.00     0.262 C 
HETATM    4  H2  UNK     1      18.771   4.537  34.733  1.00  0.00     0.169 HD
ENDROOT
BRANCH   3   5
HETATM    5  C4  UNK     1      18.191   2.677  33.240  1.00  0.00     0.108 A 
HETATM    6  C12 UNK     1      18.533   1.664  32.215  1.00  0.00     0.304 A 
HETATM    7  O1  UNK     1      18.736   0.363  32.666  1.00  0.00    -0.274 OA
HETATM    8  O3  UNK     1      18.634   1.954  31.028  1.00  0.00    -0.259 OA
HETATM    9  C5  UNK     1      18.624   0.021  34.027  1.00  0.00     0.089 A 
HETATM   10  C15 UNK     1      18.847  -1.307  34.382  1.00  0.00     0.040 A 
HETATM   11  C3  UNK     1      18.302   0.988  34.974  1.00  0.00     0.001 A 
HETATM   12  C17 UNK     1      18.743  -1.675  35.721  1.00  0.00     0.026 A 
HETATM   13  C16 UNK     1      18.419  -0.718  36.686  1.00  0.00     0.035 A 
HETATM   14  C14 UNK     1      18.200   0.611  36.315  1.00  0.00     0.038 A 
HETATM   15 Cl1  UNK     1      18.293  -1.179  38.341  1.00  0.00    -0.084 Cl
HETATM   16  C6  UNK     1      18.083   2.358  34.535  1.00  0.00     0.037 A 
ENDBRANCH   3   5
BRANCH   2  17
HETATM   17  C1  UNK     1      18.133   6.325  33.951  1.00  0.00     0.042 A 
HETATM   18  C2  UNK     1      19.227   7.133  33.648  1.00  0.00    -0.035 A 
HETATM   19  C10 UNK     1      19.091   8.521  33.652  1.00  0.00     0.010 A 
HETATM   20  C13 UNK     1      20.557   6.540  33.313  1.00  0.00     0.050 C 
HETATM   21  C11 UNK     1      17.860   9.100  33.961  1.00  0.00     0.018 A 
HETATM   22  C9  UNK     1      16.766   8.291  34.265  1.00  0.00     0.041 A 
HETATM   23  C7  UNK     1      16.903   6.903  34.261  1.00  0.00     0.047 A 
BRANCH  22  24
HETATM   24  C18 UNK     1      15.483   8.895  34.588  1.00  0.00     0.293 C 
HETATM   25  O5  UNK     1      14.385   8.485  34.206  1.00  0.00    -0.259 OA
BRANCH  24  26
HETATM   26  O4  UNK     1      15.641   9.998  35.387  1.00  0.00    -0.323 OA
HETATM   27  C19 UNK     1      14.458  10.756  35.664  1.00  0.00     0.213 C 
ENDBRANCH  24  26
ENDBRANCH  22  24
ENDBRANCH   2  17
TORSDOF 4
ENDMDL
