MODEL 1
REMARK VINA RESULT:      -9.3      0.000      0.000
REMARK  5 active torsions:
REMARK  status: ('A' for Active; 'I' for Inactive)
REMARK    1  A    between atoms: C13_16  and  O1_1 
REMARK    2  A    between atoms: C7_10  and  O1_1 
REMARK    3  A    between atoms: C1_4  and  C2_5 
REMARK    4  A    between atoms: C1_4  and  C7_10 
REMARK    5  A    between atoms: C3_6  and  C4_7 
ROOT
HETATM    1  C1  UNK     1      18.678   0.279  32.794  1.00  0.00     0.051 C 
HETATM    2  C3  UNK     1      18.190  -0.527  33.772  1.00  0.00     0.030 C 
ENDROOT
BRANCH   1   3
HETATM    3  C2  UNK     1      19.344  -0.263  31.595  1.00  0.00    -0.020 A 
HETATM    4  C5  UNK     1      19.669  -1.609  31.552  1.00  0.00     0.012 A 
HETATM    5  C10 UNK     1      20.300  -2.120  30.418  1.00  0.00     0.001 A 
HETATM    6  C12 UNK     1      20.595  -1.281  29.345  1.00  0.00     0.000 A 
HETATM    7  C11 UNK     1      20.261   0.072  29.404  1.00  0.00     0.001 A 
HETATM    8  C6  UNK     1      19.630   0.585  30.538  1.00  0.00     0.012 A 
ENDBRANCH   1   3
BRANCH   1   9
HETATM    9  C7  UNK     1      18.509   1.754  32.994  1.00  0.00     0.300 C 
HETATM   10  O2  UNK     1      19.003   2.393  33.912  1.00  0.00    -0.259 OA
BRANCH   9  11
HETATM   11  O1  UNK     1      17.720   2.258  31.970  1.00  0.00    -0.256 OA
BRANCH  11  12
HETATM   12  C13 UNK     1      18.045   3.572  31.622  1.00  0.00     0.173 A 
HETATM   13  N1  UNK     1      17.470   4.531  32.358  1.00  0.00    -0.230 NA
HETATM   14  C17 UNK     1      17.796   5.798  32.014  1.00  0.00     0.033 A 
HETATM   15  C19 UNK     1      18.660   6.123  30.981  1.00  0.00     0.027 A 
HETATM   16  C21 UNK     1      17.172   6.891  32.817  1.00  0.00     0.070 C 
HETATM   17  C20 UNK     1      19.225   5.082  30.253  1.00  0.00     0.006 A 
HETATM   18  C18 UNK     1      18.913   3.766  30.576  1.00  0.00     0.058 A 
ENDBRANCH  11  12
ENDBRANCH   9  11
ENDBRANCH   1   9
BRANCH   2  19
HETATM   19  C4  UNK     1      17.520  -0.091  34.988  1.00  0.00    -0.035 A 
HETATM   20  C8  UNK     1      16.151   0.170  34.974  1.00  0.00     0.011 A 
HETATM   21  C14 UNK     1      15.509   0.588  36.140  1.00  0.00     0.001 A 
HETATM   22  C16 UNK     1      16.238   0.745  37.319  1.00  0.00     0.000 A 
HETATM   23  C15 UNK     1      17.607   0.483  37.333  1.00  0.00     0.001 A 
HETATM   24  C9  UNK     1      18.249   0.065  36.167  1.00  0.00     0.011 A 
ENDBRANCH   2  19
TORSDOF 5
ENDMDL
MODEL 2
REMARK VINA RESULT:      -8.9      1.700      5.503
REMARK  5 active torsions:
REMARK  status: ('A' for Active; 'I' for Inactive)
REMARK    1  A    between atoms: C13_16  and  O1_1 
REMARK    2  A    between atoms: C7_10  and  O1_1 
REMARK    3  A    between atoms: C1_4  and  C2_5 
REMARK    4  A    between atoms: C1_4  and  C7_10 
REMARK    5  A    between atoms: C3_6  and  C4_7 
ROOT
HETATM    1  C1  UNK     1      18.428   3.375  31.763  1.00  0.00     0.051 C 
HETATM    2  C3  UNK     1      18.404   4.701  31.471  1.00  0.00     0.030 C 
ENDROOT
BRANCH   1   3
HETATM    3  C2  UNK     1      18.619   2.350  30.720  1.00  0.00    -0.020 A 
HETATM    4  C5  UNK     1      17.902   2.443  29.539  1.00  0.00     0.012 A 
HETATM    5  C10 UNK     1      18.083   1.473  28.554  1.00  0.00     0.001 A 
HETATM    6  C12 UNK     1      18.979   0.425  28.762  1.00  0.00     0.000 A 
HETATM    7  C11 UNK     1      19.694   0.346  29.957  1.00  0.00     0.001 A 
HETATM    8  C6  UNK     1      19.513   1.315  30.943  1.00  0.00     0.012 A 
ENDBRANCH   1   3
BRANCH   1   9
HETATM    9  C7  UNK     1      18.246   3.000  33.202  1.00  0.00     0.300 C 
HETATM   10  O2  UNK     1      18.765   3.583  34.144  1.00  0.00    -0.259 OA
BRANCH   9  11
HETATM   11  O1  UNK     1      17.396   1.906  33.277  1.00  0.00    -0.256 OA
BRANCH  11  12
HETATM   12  C13 UNK     1      17.752   1.002  34.280  1.00  0.00     0.173 A 
HETATM   13  N1  UNK     1      17.479   1.382  35.535  1.00  0.00    -0.230 NA
HETATM   14  C17 UNK     1      17.824   0.497  36.497  1.00  0.00     0.033 A 
HETATM   15  C19 UNK     1      18.420  -0.728  36.245  1.00  0.00     0.027 A 
HETATM   16  C21 UNK     1      17.530   0.891  37.906  1.00  0.00     0.070 C 
HETATM   17  C20 UNK     1      18.679  -1.066  34.921  1.00  0.00     0.006 A 
HETATM   18  C18 UNK     1      18.339  -0.181  33.904  1.00  0.00     0.058 A 
ENDBRANCH  11  12
ENDBRANCH   9  11
ENDBRANCH   1   9
BRANCH   2  19
HETATM   19  C4  UNK     1      18.221   5.785  32.424  1.00  0.00    -0.035 A 
HETATM   20  C8  UNK     1      16.939   6.142  32.837  1.00  0.00     0.011 A 
HETATM   21  C14 UNK     1      16.764   7.181  33.751  1.00  0.00     0.001 A 
HETATM   22  C16 UNK     1      17.873   7.863  34.252  1.00  0.00     0.000 A 
HETATM   23  C15 UNK     1      19.156   7.506  33.839  1.00  0.00     0.001 A 
HETATM   24  C9  UNK     1      19.331   6.467  32.925  1.00  0.00     0.011 A 
ENDBRANCH   2  19
TORSDOF 5
ENDMDL
MODEL 3
REMARK VINA RESULT:      -8.7      1.856      6.030
REMARK  5 active torsions:
REMARK  status: ('A' for Active; 'I' for Inactive)
REMARK    1  A    between atoms: C13_16  and  O1_1 
REMARK    2  A    between atoms: C7_10  and  O1_1 
REMARK    3  A    between atoms: C1_4  and  C2_5 
REMARK    4  A    between atoms: C1_4  and  C7_10 
REMARK    5  A    between atoms: C3_6  and  C4_7 
ROOT
HETATM    1  C1  UNK     1      18.216   2.633  33.010  1.00  0.00     0.051 C 
HETATM    2  C3  UNK     1      18.156   3.938  33.381  1.00  0.00     0.030 C 
ENDROOT
BRANCH   1   3
HETATM    3  C2  UNK     1      18.298   1.543  34.001  1.00  0.00    -0.020 A 
HETATM    4  C5  UNK     1      18.000   0.249  33.608  1.00  0.00     0.012 A 
HETATM    5  C10 UNK     1      18.077  -0.781  34.545  1.00  0.00     0.001 A 
HETATM    6  C12 UNK     1      18.452  -0.503  35.859  1.00  0.00     0.000 A 
HETATM    7  C11 UNK     1      18.750   0.805  36.238  1.00  0.00     0.001 A 
HETATM    8  C6  UNK     1      18.673   1.837  35.301  1.00  0.00     0.012 A 
ENDBRANCH   1   3
BRANCH   1   9
HETATM    9  C7  UNK     1      18.199   2.352  31.539  1.00  0.00     0.300 C 
HETATM   10  O2  UNK     1      17.187   2.304  30.852  1.00  0.00    -0.259 OA
BRANCH   9  11
HETATM   11  O1  UNK     1      19.502   2.169  31.101  1.00  0.00    -0.256 OA
BRANCH  11  12
HETATM   12  C13 UNK     1      19.717   0.915  30.525  1.00  0.00     0.173 A 
HETATM   13  N1  UNK     1      20.112  -0.053  31.362  1.00  0.00    -0.230 NA
HETATM   14  C17 UNK     1      20.313  -1.263  30.794  1.00  0.00     0.033 A 
HETATM   15  C19 UNK     1      20.134  -1.526  29.446  1.00  0.00     0.027 A 
HETATM   16  C21 UNK     1      20.752  -2.364  31.701  1.00  0.00     0.070 C 
HETATM   17  C20 UNK     1      19.723  -0.480  28.627  1.00  0.00     0.006 A 
HETATM   18  C18 UNK     1      19.507   0.780  29.175  1.00  0.00     0.058 A 
ENDBRANCH  11  12
ENDBRANCH   9  11
ENDBRANCH   1   9
BRANCH   2  19
HETATM   19  C4  UNK     1      18.075   5.081  32.485  1.00  0.00    -0.035 A 
HETATM   20  C8  UNK     1      16.964   5.922  32.527  1.00  0.00     0.011 A 
HETATM   21  C14 UNK     1      16.886   7.018  31.667  1.00  0.00     0.001 A 
HETATM   22  C16 UNK     1      17.919   7.272  30.766  1.00  0.00     0.000 A 
HETATM   23  C15 UNK     1      19.031   6.431  30.724  1.00  0.00     0.001 A 
HETATM   24  C9  UNK     1      19.109   5.335  31.584  1.00  0.00     0.011 A 
ENDBRANCH   2  19
TORSDOF 5
ENDMDL
MODEL 4
REMARK VINA RESULT:      -8.7      1.810      5.649
REMARK  5 active torsions:
REMARK  status: ('A' for Active; 'I' for Inactive)
REMARK    1  A    between atoms: C13_16  and  O1_1 
REMARK    2  A    between atoms: C7_10  and  O1_1 
REMARK    3  A    between atoms: C1_4  and  C2_5 
REMARK    4  A    between atoms: C1_4  and  C7_10 
REMARK    5  A    between atoms: C3_6  and  C4_7 
ROOT
HETATM    1  C1  UNK     1      18.669   3.386  31.110  1.00  0.00     0.051 C 
HETATM    2  C3  UNK     1      19.069   4.646  30.800  1.00  0.00     0.030 C 
ENDROOT
BRANCH   1   3
HETATM    3  C2  UNK     1      18.751   2.279  30.139  1.00  0.00    -0.020 A 
HETATM    4  C5  UNK     1      19.743   1.323  30.284  1.00  0.00     0.012 A 
HETATM    5  C10 UNK     1      19.820   0.277  29.365  1.00  0.00     0.001 A 
HETATM    6  C12 UNK     1      18.905   0.201  28.316  1.00  0.00     0.000 A 
HETATM    7  C11 UNK     1      17.912   1.171  28.184  1.00  0.00     0.001 A 
HETATM    8  C6  UNK     1      17.834   2.218  29.102  1.00  0.00     0.012 A 
ENDBRANCH   1   3
BRANCH   1   9
HETATM    9  C7  UNK     1      18.134   3.172  32.493  1.00  0.00     0.300 C 
HETATM   10  O2  UNK     1      17.459   3.984  33.111  1.00  0.00    -0.259 OA
BRANCH   9  11
HETATM   11  O1  UNK     1      18.522   1.916  32.936  1.00  0.00    -0.256 OA
BRANCH  11  12
HETATM   12  C13 UNK     1      18.086   1.631  34.232  1.00  0.00     0.173 A 
HETATM   13  N1  UNK     1      16.967   0.900  34.326  1.00  0.00    -0.230 NA
HETATM   14  C17 UNK     1      16.558   0.628  35.586  1.00  0.00     0.033 A 
HETATM   15  C19 UNK     1      17.220   1.055  36.725  1.00  0.00     0.027 A 
HETATM   16  C21 UNK     1      15.315  -0.187  35.724  1.00  0.00     0.070 C 
HETATM   17  C20 UNK     1      18.375   1.812  36.562  1.00  0.00     0.006 A 
HETATM   18  C18 UNK     1      18.827   2.113  35.282  1.00  0.00     0.058 A 
ENDBRANCH  11  12
ENDBRANCH   9  11
ENDBRANCH   1   9
BRANCH   2  19
HETATM   19  C4  UNK     1      19.028   5.800  31.684  1.00  0.00    -0.035 A 
HETATM   20  C8  UNK     1      20.083   6.046  32.560  1.00  0.00     0.011 A 
HETATM   21  C14 UNK     1      20.043   7.153  33.407  1.00  0.00     0.001 A 
HETATM   22  C16 UNK     1      18.947   8.014  33.378  1.00  0.00     0.000 A 
HETATM   23  C15 UNK     1      17.890   7.769  32.501  1.00  0.00     0.001 A 
HETATM   24  C9  UNK     1      17.930   6.662  31.654  1.00  0.00     0.011 A 
ENDBRANCH   2  19
TORSDOF 5
ENDMDL
MODEL 5
REMARK VINA RESULT:      -8.6      7.772     10.662
REMARK  5 active torsions:
REMARK  status: ('A' for Active; 'I' for Inactive)
REMARK    1  A    between atoms: C13_16  and  O1_1 
REMARK    2  A    between atoms: C7_10  and  O1_1 
REMARK    3  A    between atoms: C1_4  and  C2_5 
REMARK    4  A    between atoms: C1_4  and  C7_10 
REMARK    5  A    between atoms: C3_6  and  C4_7 
ROOT
HETATM    1  C1  UNK     1      19.599  -4.796  36.884  1.00  0.00     0.051 C 
HETATM    2  C3  UNK     1      20.627  -4.997  37.747  1.00  0.00     0.030 C 
ENDROOT
BRANCH   1   3
HETATM    3  C2  UNK     1      19.339  -3.479  36.273  1.00  0.00    -0.020 A 
HETATM    4  C5  UNK     1      18.391  -2.644  36.840  1.00  0.00     0.012 A 
HETATM    5  C10 UNK     1      18.145  -1.400  36.261  1.00  0.00     0.001 A 
HETATM    6  C12 UNK     1      18.851  -1.007  35.125  1.00  0.00     0.000 A 
HETATM    7  C11 UNK     1      19.803  -1.859  34.566  1.00  0.00     0.001 A 
HETATM    8  C6  UNK     1      20.049  -3.104  35.144  1.00  0.00     0.012 A 
ENDBRANCH   1   3
BRANCH   1   9
HETATM    9  C7  UNK     1      18.733  -5.980  36.583  1.00  0.00     0.300 C 
HETATM   10  O2  UNK     1      17.796  -6.352  37.276  1.00  0.00    -0.259 OA
BRANCH   9  11
HETATM   11  O1  UNK     1      19.165  -6.563  35.400  1.00  0.00    -0.256 OA
BRANCH  11  12
HETATM   12  C13 UNK     1      19.830  -7.776  35.596  1.00  0.00     0.173 A 
HETATM   13  N1  UNK     1      19.268  -8.616  36.475  1.00  0.00    -0.230 NA
HETATM   14  C17 UNK     1      19.918  -9.788  36.653  1.00  0.00     0.033 A 
HETATM   15  C19 UNK     1      21.085 -10.135  35.992  1.00  0.00     0.027 A 
HETATM   16  C21 UNK     1      19.316 -10.746  37.625  1.00  0.00     0.070 C 
HETATM   17  C20 UNK     1      21.620  -9.220  35.091  1.00  0.00     0.006 A 
HETATM   18  C18 UNK     1      20.980  -8.004  34.882  1.00  0.00     0.058 A 
ENDBRANCH  11  12
ENDBRANCH   9  11
ENDBRANCH   1   9
BRANCH   2  19
HETATM   19  C4  UNK     1      20.965  -6.252  38.401  1.00  0.00    -0.035 A 
HETATM   20  C8  UNK     1      20.068  -6.836  39.294  1.00  0.00     0.011 A 
HETATM   21  C14 UNK     1      20.392  -8.040  39.920  1.00  0.00     0.001 A 
HETATM   22  C16 UNK     1      21.612  -8.659  39.653  1.00  0.00     0.000 A 
HETATM   23  C15 UNK     1      22.510  -8.074  38.760  1.00  0.00     0.001 A 
HETATM   24  C9  UNK     1      22.186  -6.871  38.133  1.00  0.00     0.011 A 
ENDBRANCH   2  19
TORSDOF 5
ENDMDL
MODEL 6
REMARK VINA RESULT:      -8.4     24.716     27.043
REMARK  5 active torsions:
REMARK  status: ('A' for Active; 'I' for Inactive)
REMARK    1  A    between atoms: C13_16  and  O1_1 
REMARK    2  A    between atoms: C7_10  and  O1_1 
REMARK    3  A    between atoms: C1_4  and  C2_5 
REMARK    4  A    between atoms: C1_4  and  C7_10 
REMARK    5  A    between atoms: C3_6  and  C4_7 
ROOT
HETATM    1  C1  UNK     1       7.728   6.458   9.753  1.00  0.00     0.051 C 
HETATM    2  C3  UNK     1       8.350   7.290   8.879  1.00  0.00     0.030 C 
ENDROOT
BRANCH   1   3
HETATM    3  C2  UNK     1       6.687   6.939  10.682  1.00  0.00    -0.020 A 
HETATM    4  C5  UNK     1       5.925   8.041  10.333  1.00  0.00     0.012 A 
HETATM    5  C10 UNK     1       4.942   8.495  11.211  1.00  0.00     0.001 A 
HETATM    6  C12 UNK     1       4.733   7.839  12.424  1.00  0.00     0.000 A 
HETATM    7  C11 UNK     1       5.508   6.730  12.760  1.00  0.00     0.001 A 
HETATM    8  C6  UNK     1       6.493   6.275  11.882  1.00  0.00     0.012 A 
ENDBRANCH   1   3
BRANCH   1   9
HETATM    9  C7  UNK     1       8.153   5.022   9.733  1.00  0.00     0.300 C 
HETATM   10  O2  UNK     1       8.927   4.514  10.533  1.00  0.00    -0.259 OA
BRANCH   9  11
HETATM   11  O1  UNK     1       7.521   4.382   8.677  1.00  0.00    -0.256 OA
BRANCH  11  12
HETATM   12  C13 UNK     1       6.712   3.318   9.084  1.00  0.00     0.173 A 
HETATM   13  N1  UNK     1       6.452   2.391   8.154  1.00  0.00    -0.230 NA
HETATM   14  C17 UNK     1       5.672   1.365   8.561  1.00  0.00     0.033 A 
HETATM   15  C19 UNK     1       5.158   1.242   9.842  1.00  0.00     0.027 A 
HETATM   16  C21 UNK     1       5.365   0.313   7.547  1.00  0.00     0.070 C 
HETATM   17  C20 UNK     1       5.463   2.238  10.764  1.00  0.00     0.006 A 
HETATM   18  C18 UNK     1       6.262   3.310  10.381  1.00  0.00     0.058 A 
ENDBRANCH  11  12
ENDBRANCH   9  11
ENDBRANCH   1   9
BRANCH   2  19
HETATM   19  C4  UNK     1       9.385   6.915   7.927  1.00  0.00    -0.035 A 
HETATM   20  C8  UNK     1      10.726   6.956   8.304  1.00  0.00     0.011 A 
HETATM   21  C14 UNK     1      11.718   6.596   7.392  1.00  0.00     0.001 A 
HETATM   22  C16 UNK     1      11.368   6.196   6.103  1.00  0.00     0.000 A 
HETATM   23  C15 UNK     1      10.026   6.155   5.725  1.00  0.00     0.001 A 
HETATM   24  C9  UNK     1       9.034   6.514   6.638  1.00  0.00     0.011 A 
ENDBRANCH   2  19
TORSDOF 5
ENDMDL
MODEL 7
REMARK VINA RESULT:      -8.4      7.628     10.808
REMARK  5 active torsions:
REMARK  status: ('A' for Active; 'I' for Inactive)
REMARK    1  A    between atoms: C13_16  and  O1_1 
REMARK    2  A    between atoms: C7_10  and  O1_1 
REMARK    3  A    between atoms: C1_4  and  C2_5 
REMARK    4  A    between atoms: C1_4  and  C7_10 
REMARK    5  A    between atoms: C3_6  and  C4_7 
ROOT
HETATM    1  C1  UNK     1      20.238  -5.123  37.436  1.00  0.00     0.051 C 
HETATM    2  C3  UNK     1      20.492  -3.791  37.364  1.00  0.00     0.030 C 
ENDROOT
BRANCH   1   3
HETATM    3  C2  UNK     1      21.010  -6.019  38.317  1.00  0.00    -0.020 A 
HETATM    4  C5  UNK     1      22.390  -5.904  38.357  1.00  0.00     0.012 A 
HETATM    5  C10 UNK     1      23.119  -6.752  39.190  1.00  0.00     0.001 A 
HETATM    6  C12 UNK     1      22.460  -7.701  39.970  1.00  0.00     0.000 A 
HETATM    7  C11 UNK     1      21.070  -7.804  39.918  1.00  0.00     0.001 A 
HETATM    8  C6  UNK     1      20.339  -6.956  39.085  1.00  0.00     0.012 A 
ENDBRANCH   1   3
BRANCH   1   9
HETATM    9  C7  UNK     1      19.131  -5.643  36.570  1.00  0.00     0.300 C 
HETATM   10  O2  UNK     1      17.944  -5.394  36.734  1.00  0.00    -0.259 OA
BRANCH   9  11
HETATM   11  O1  UNK     1      19.678  -6.429  35.566  1.00  0.00    -0.256 OA
BRANCH  11  12
HETATM   12  C13 UNK     1      19.881  -7.755  35.957  1.00  0.00     0.173 A 
HETATM   13  N1  UNK     1      21.120  -8.232  35.782  1.00  0.00    -0.230 NA
HETATM   14  C17 UNK     1      21.306  -9.515  36.167  1.00  0.00     0.033 A 
HETATM   15  C19 UNK     1      20.313 -10.313  36.711  1.00  0.00     0.027 A 
HETATM   16  C21 UNK     1      22.678 -10.076  35.987  1.00  0.00     0.070 C 
HETATM   17  C20 UNK     1      19.046  -9.760  36.866  1.00  0.00     0.006 A 
HETATM   18  C18 UNK     1      18.816  -8.444  36.481  1.00  0.00     0.058 A 
ENDBRANCH  11  12
ENDBRANCH   9  11
ENDBRANCH   1   9
BRANCH   2  19
HETATM   19  C4  UNK     1      19.790  -2.828  36.530  1.00  0.00    -0.035 A 
HETATM   20  C8  UNK     1      20.162  -2.658  35.197  1.00  0.00     0.011 A 
HETATM   21  C14 UNK     1      19.489  -1.734  34.397  1.00  0.00     0.001 A 
HETATM   22  C16 UNK     1      18.444  -0.981  34.931  1.00  0.00     0.000 A 
HETATM   23  C15 UNK     1      18.071  -1.151  36.264  1.00  0.00     0.001 A 
HETATM   24  C9  UNK     1      18.744  -2.075  37.064  1.00  0.00     0.011 A 
ENDBRANCH   2  19
TORSDOF 5
ENDMDL
MODEL 8
REMARK VINA RESULT:      -8.3      3.944      5.839
REMARK  5 active torsions:
REMARK  status: ('A' for Active; 'I' for Inactive)
REMARK    1  A    between atoms: C13_16  and  O1_1 
REMARK    2  A    between atoms: C7_10  and  O1_1 
REMARK    3  A    between atoms: C1_4  and  C2_5 
REMARK    4  A    between atoms: C1_4  and  C7_10 
REMARK    5  A    between atoms: C3_6  and  C4_7 
ROOT
HETATM    1  C1  UNK     1      19.562  -3.214  36.340  1.00  0.00     0.051 C 
HETATM    2  C3  UNK     1      18.429  -2.781  36.950  1.00  0.00     0.030 C 
ENDROOT
BRANCH   1   3
HETATM    3  C2  UNK     1      20.170  -4.520  36.658  1.00  0.00    -0.020 A 
HETATM    4  C5  UNK     1      19.834  -5.626  35.895  1.00  0.00     0.012 A 
HETATM    5  C10 UNK     1      20.408  -6.860  36.196  1.00  0.00     0.001 A 
HETATM    6  C12 UNK     1      21.311  -6.971  37.254  1.00  0.00     0.000 A 
HETATM    7  C11 UNK     1      21.639  -5.847  38.011  1.00  0.00     0.001 A 
HETATM    8  C6  UNK     1      21.064  -4.612  37.711  1.00  0.00     0.012 A 
ENDBRANCH   1   3
BRANCH   1   9
HETATM    9  C7  UNK     1      20.171  -2.296  35.325  1.00  0.00     0.300 C 
HETATM   10  O2  UNK     1      20.786  -1.272  35.592  1.00  0.00    -0.259 OA
BRANCH   9  11
HETATM   11  O1  UNK     1      19.930  -2.805  34.057  1.00  0.00    -0.256 OA
BRANCH  11  12
HETATM   12  C13 UNK     1      19.863  -1.816  33.072  1.00  0.00     0.173 A 
HETATM   13  N1  UNK     1      19.138  -0.733  33.378  1.00  0.00    -0.230 NA
HETATM   14  C17 UNK     1      19.084   0.218  32.419  1.00  0.00     0.033 A 
HETATM   15  C19 UNK     1      19.721   0.119  31.193  1.00  0.00     0.027 A 
HETATM   16  C21 UNK     1      18.284   1.439  32.731  1.00  0.00     0.070 C 
HETATM   17  C20 UNK     1      20.459  -1.031  30.933  1.00  0.00     0.006 A 
HETATM   18  C18 UNK     1      20.537  -2.032  31.895  1.00  0.00     0.058 A 
ENDBRANCH  11  12
ENDBRANCH   9  11
ENDBRANCH   1   9
BRANCH   2  19
HETATM   19  C4  UNK     1      17.755  -1.515  36.708  1.00  0.00    -0.035 A 
HETATM   20  C8  UNK     1      18.005  -0.422  37.536  1.00  0.00     0.011 A 
HETATM   21  C14 UNK     1      17.359   0.792  37.304  1.00  0.00     0.001 A 
HETATM   22  C16 UNK     1      16.463   0.913  36.242  1.00  0.00     0.000 A 
HETATM   23  C15 UNK     1      16.213  -0.180  35.413  1.00  0.00     0.001 A 
HETATM   24  C9  UNK     1      16.859  -1.394  35.645  1.00  0.00     0.011 A 
ENDBRANCH   2  19
TORSDOF 5
ENDMDL
MODEL 9
REMARK VINA RESULT:      -8.2      2.006      7.042
REMARK  5 active torsions:
REMARK  status: ('A' for Active; 'I' for Inactive)
REMARK    1  A    between atoms: C13_16  and  O1_1 
REMARK    2  A    between atoms: C7_10  and  O1_1 
REMARK    3  A    between atoms: C1_4  and  C2_5 
REMARK    4  A    between atoms: C1_4  and  C7_10 
REMARK    5  A    between atoms: C3_6  and  C4_7 
ROOT
HETATM    1  C1  UNK     1      18.388   3.984  32.585  1.00  0.00     0.051 C 
HETATM    2  C3  UNK     1      18.661   3.908  31.257  1.00  0.00     0.030 C 
ENDROOT
BRANCH   1   3
HETATM    3  C2  UNK     1      18.334   5.273  33.299  1.00  0.00    -0.020 A 
HETATM    4  C5  UNK     1      17.110   5.889  33.492  1.00  0.00     0.012 A 
HETATM    5  C10 UNK     1      17.060   7.109  34.166  1.00  0.00     0.001 A 
HETATM    6  C12 UNK     1      18.235   7.694  34.638  1.00  0.00     0.000 A 
HETATM    7  C11 UNK     1      19.460   7.060  34.436  1.00  0.00     0.001 A 
HETATM    8  C6  UNK     1      19.511   5.840  33.761  1.00  0.00     0.012 A 
ENDBRANCH   1   3
BRANCH   1   9
HETATM    9  C7  UNK     1      18.144   2.688  33.296  1.00  0.00     0.300 C 
HETATM   10  O2  UNK     1      17.292   1.869  32.979  1.00  0.00    -0.259 OA
BRANCH   9  11
HETATM   11  O1  UNK     1      19.043   2.576  34.347  1.00  0.00    -0.256 OA
BRANCH  11  12
HETATM   12  C13 UNK     1      18.640   1.657  35.319  1.00  0.00     0.173 A 
HETATM   13  N1  UNK     1      19.102   0.408  35.170  1.00  0.00    -0.230 NA
HETATM   14  C17 UNK     1      18.709  -0.471  36.119  1.00  0.00     0.033 A 
HETATM   15  C19 UNK     1      17.889  -0.144  37.187  1.00  0.00     0.027 A 
HETATM   16  C21 UNK     1      19.209  -1.871  35.982  1.00  0.00     0.070 C 
HETATM   17  C20 UNK     1      17.442   1.168  37.286  1.00  0.00     0.006 A 
HETATM   18  C18 UNK     1      17.824   2.101  36.329  1.00  0.00     0.058 A 
ENDBRANCH  11  12
ENDBRANCH   9  11
ENDBRANCH   1   9
BRANCH   2  19
HETATM   19  C4  UNK     1      18.737   2.689  30.466  1.00  0.00    -0.035 A 
HETATM   20  C8  UNK     1      19.621   1.675  30.830  1.00  0.00     0.011 A 
HETATM   21  C14 UNK     1      19.694   0.507  30.072  1.00  0.00     0.001 A 
HETATM   22  C16 UNK     1      18.881   0.353  28.949  1.00  0.00     0.000 A 
HETATM   23  C15 UNK     1      17.996   1.367  28.584  1.00  0.00     0.001 A 
HETATM   24  C9  UNK     1      17.923   2.536  29.343  1.00  0.00     0.011 A 
ENDBRANCH   2  19
TORSDOF 5
ENDMDL
MODEL 10
REMARK VINA RESULT:      -8.1      4.220      7.013
REMARK  5 active torsions:
REMARK  status: ('A' for Active; 'I' for Inactive)
REMARK    1  A    between atoms: C13_16  and  O1_1 
REMARK    2  A    between atoms: C7_10  and  O1_1 
REMARK    3  A    between atoms: C1_4  and  C2_5 
REMARK    4  A    between atoms: C1_4  and  C7_10 
REMARK    5  A    between atoms: C3_6  and  C4_7 
ROOT
HETATM    1  C1  UNK     1      19.620  -1.479  34.015  1.00  0.00     0.051 C 
HETATM    2  C3  UNK     1      18.638  -0.543  34.069  1.00  0.00     0.030 C 
ENDROOT
BRANCH   1   3
HETATM    3  C2  UNK     1      20.087  -2.047  32.736  1.00  0.00    -0.020 A 
HETATM    4  C5  UNK     1      20.882  -3.181  32.750  1.00  0.00     0.012 A 
HETATM    5  C10 UNK     1      21.323  -3.718  31.541  1.00  0.00     0.001 A 
HETATM    6  C12 UNK     1      20.963  -3.114  30.336  1.00  0.00     0.000 A 
HETATM    7  C11 UNK     1      20.161  -1.973  30.340  1.00  0.00     0.001 A 
HETATM    8  C6  UNK     1      19.719  -1.436  31.549  1.00  0.00     0.012 A 
ENDBRANCH   1   3
BRANCH   1   9
HETATM    9  C7  UNK     1      20.208  -1.912  35.322  1.00  0.00     0.300 C 
HETATM   10  O2  UNK     1      21.295  -1.548  35.751  1.00  0.00    -0.259 OA
BRANCH   9  11
HETATM   11  O1  UNK     1      19.319  -2.771  35.952  1.00  0.00    -0.256 OA
BRANCH  11  12
HETATM   12  C13 UNK     1      19.905  -3.977  36.344  1.00  0.00     0.173 A 
HETATM   13  N1  UNK     1      19.835  -4.977  35.456  1.00  0.00    -0.230 NA
HETATM   14  C17 UNK     1      20.409  -6.138  35.845  1.00  0.00     0.033 A 
HETATM   15  C19 UNK     1      21.037  -6.322  37.066  1.00  0.00     0.027 A 
HETATM   16  C21 UNK     1      20.349  -7.272  34.876  1.00  0.00     0.070 C 
HETATM   17  C20 UNK     1      21.076  -5.246  37.946  1.00  0.00     0.006 A 
HETATM   18  C18 UNK     1      20.496  -4.036  37.582  1.00  0.00     0.058 A 
ENDBRANCH  11  12
ENDBRANCH   9  11
ENDBRANCH   1   9
BRANCH   2  19
HETATM   19  C4  UNK     1      18.109   0.076  35.275  1.00  0.00    -0.035 A 
HETATM   20  C8  UNK     1      16.925  -0.395  35.839  1.00  0.00     0.011 A 
HETATM   21  C14 UNK     1      16.418   0.198  36.995  1.00  0.00     0.001 A 
HETATM   22  C16 UNK     1      17.097   1.263  37.587  1.00  0.00     0.000 A 
HETATM   23  C15 UNK     1      18.283   1.734  37.023  1.00  0.00     0.001 A 
HETATM   24  C9  UNK     1      18.789   1.141  35.867  1.00  0.00     0.011 A 
ENDBRANCH   2  19
TORSDOF 5
ENDMDL
