MODEL 1
REMARK VINA RESULT:     -10.2      0.000      0.000
REMARK  5 active torsions:
REMARK  status: ('A' for Active; 'I' for Inactive)
REMARK       I    between atoms: C9_17  and  N2_6 
REMARK    1  A    between atoms: N2_6  and  N4_8 
REMARK    2  A    between atoms: C14_22  and  N3_7 
REMARK    3  A    between atoms: C21_29  and  N3_7 
REMARK    4  A    between atoms: C21_29  and  N4_8 
REMARK    5  A    between atoms: C3_11  and  C9_17 
ROOT
HETATM    1  N4  UNK     1      19.985  -2.373  36.890  1.00  0.00    -0.273 N 
HETATM    2  H18 UNK     1      20.876  -1.894  36.812  1.00  0.00     0.189 HD
ENDROOT
BRANCH   1   3
HETATM    3  C21 UNK     1      18.803  -1.790  36.445  1.00  0.00     0.191 C 
HETATM    4  S1  UNK     1      17.824  -1.078  37.603  1.00  0.00    -0.039 SA
BRANCH   3   5
HETATM    5  N3  UNK     1      18.588  -1.908  35.060  1.00  0.00    -0.332 N 
HETATM    6  H17 UNK     1      18.368  -2.858  34.770  1.00  0.00     0.168 HD
BRANCH   5   7
HETATM    7  C14 UNK     1      18.682  -1.023  33.985  1.00  0.00     0.037 A 
HETATM    8  C15 UNK     1      19.200  -1.455  32.769  1.00  0.00     0.067 A 
HETATM    9  C12 UNK     1      19.284  -0.553  31.706  1.00  0.00     0.092 A 
HETATM   10  O1  UNK     1      19.817  -1.048  30.499  1.00  0.00    -0.275 OA
HETATM   11  C8  UNK     1      18.865   0.773  31.819  1.00  0.00     0.004 A 
HETATM   12  C20 UNK     1      19.947  -0.241  29.379  1.00  0.00     0.288 A 
HETATM   13  C18 UNK     1      19.500   1.155  29.514  1.00  0.00     0.090 A 
HETATM   14  O3  UNK     1      20.408  -0.662  28.324  1.00  0.00    -0.260 OA
HETATM   15  C13 UNK     1      18.990   1.653  30.649  1.00  0.00    -0.043 A 
HETATM   16  C19 UNK     1      18.548   3.085  30.739  1.00  0.00     0.049 C 
HETATM   17  C16 UNK     1      18.346   1.189  33.053  1.00  0.00     0.017 A 
HETATM   18  C17 UNK     1      18.255   0.296  34.127  1.00  0.00     0.030 A 
ENDBRANCH   5   7
ENDBRANCH   3   5
ENDBRANCH   1   3
BRANCH   1  19
HETATM   19  N2  UNK     1      20.008  -3.636  37.440  1.00  0.00    -0.264 N 
HETATM   20  C9  UNK     1      20.148  -4.728  36.600  1.00  0.00     0.272 C 
HETATM   21  O2  UNK     1      20.255  -4.632  35.377  1.00  0.00    -0.266 OA
HETATM   22  H12 UNK     1      19.817  -3.691  38.433  1.00  0.00     0.190 HD
BRANCH  20  23
HETATM   23  C3  UNK     1      20.139  -6.037  37.266  1.00  0.00     0.061 A 
HETATM   24  C2  UNK     1      21.103  -6.541  38.151  1.00  0.00     0.008 A 
HETATM   25  C1  UNK     1      20.661  -7.814  38.517  1.00  0.00     0.045 A 
HETATM   26  C6  UNK     1      22.313  -6.062  38.692  1.00  0.00     0.015 A 
HETATM   27  N1  UNK     1      19.473  -8.035  37.857  1.00  0.00    -0.359 N 
HETATM   28  C5  UNK     1      21.371  -8.636  39.400  1.00  0.00     0.030 A 
HETATM   29  C4  UNK     1      19.149  -6.948  37.090  1.00  0.00     0.108 A 
HETATM   30  C7  UNK     1      18.670  -9.236  37.951  1.00  0.00     0.156 C 
HETATM   31  C10 UNK     1      22.568  -8.139  39.923  1.00  0.00     0.002 A 
HETATM   32  C11 UNK     1      23.034  -6.872  39.576  1.00  0.00     0.001 A 
ENDBRANCH  20  23
ENDBRANCH   1  19
TORSDOF 5
ENDMDL
MODEL 2
REMARK VINA RESULT:     -10.2      1.744      2.373
REMARK  5 active torsions:
REMARK  status: ('A' for Active; 'I' for Inactive)
REMARK       I    between atoms: C9_17  and  N2_6 
REMARK    1  A    between atoms: N2_6  and  N4_8 
REMARK    2  A    between atoms: C14_22  and  N3_7 
REMARK    3  A    between atoms: C21_29  and  N3_7 
REMARK    4  A    between atoms: C21_29  and  N4_8 
REMARK    5  A    between atoms: C3_11  and  C9_17 
ROOT
HETATM    1  N4  UNK     1      18.103  -3.825  36.486  1.00  0.00    -0.273 N 
HETATM    2  H18 UNK     1      17.093  -3.910  36.432  1.00  0.00     0.189 HD
ENDROOT
BRANCH   1   3
HETATM    3  C21 UNK     1      18.743  -2.607  36.285  1.00  0.00     0.191 C 
HETATM    4  S1  UNK     1      18.283  -1.334  37.272  1.00  0.00    -0.039 SA
BRANCH   3   5
HETATM    5  N3  UNK     1      19.688  -2.617  35.242  1.00  0.00    -0.332 N 
HETATM    6  H17 UNK     1      20.531  -3.138  35.474  1.00  0.00     0.168 HD
BRANCH   5   7
HETATM    7  C14 UNK     1      19.754  -2.011  33.988  1.00  0.00     0.037 A 
HETATM    8  C15 UNK     1      19.026  -0.854  33.732  1.00  0.00     0.067 A 
HETATM    9  C12 UNK     1      19.107  -0.263  32.470  1.00  0.00     0.092 A 
HETATM   10  O1  UNK     1      18.347   0.907  32.271  1.00  0.00    -0.275 OA
HETATM   11  C8  UNK     1      19.898  -0.792  31.449  1.00  0.00     0.004 A 
HETATM   12  C20 UNK     1      18.352   1.577  31.057  1.00  0.00     0.288 A 
HETATM   13  C18 UNK     1      19.191   1.007  29.990  1.00  0.00     0.090 A 
HETATM   14  O3  UNK     1      17.695   2.595  30.874  1.00  0.00    -0.260 OA
HETATM   15  C13 UNK     1      19.924  -0.104  30.151  1.00  0.00    -0.043 A 
HETATM   16  C19 UNK     1      20.764  -0.649  29.032  1.00  0.00     0.049 C 
HETATM   17  C16 UNK     1      20.625  -1.958  31.726  1.00  0.00     0.017 A 
HETATM   18  C17 UNK     1      20.553  -2.561  32.987  1.00  0.00     0.030 A 
ENDBRANCH   5   7
ENDBRANCH   3   5
ENDBRANCH   1   3
BRANCH   1  19
HETATM   19  N2  UNK     1      18.805  -4.971  36.789  1.00  0.00    -0.264 N 
HETATM   20  C9  UNK     1      18.115  -6.166  36.913  1.00  0.00     0.272 C 
HETATM   21  O2  UNK     1      16.897  -6.261  36.765  1.00  0.00    -0.266 OA
HETATM   22  H12 UNK     1      19.788  -4.846  37.003  1.00  0.00     0.190 HD
BRANCH  20  23
HETATM   23  C3  UNK     1      18.938  -7.332  37.258  1.00  0.00     0.061 A 
HETATM   24  C2  UNK     1      20.027  -7.367  38.141  1.00  0.00     0.008 A 
HETATM   25  C1  UNK     1      20.480  -8.688  38.140  1.00  0.00     0.045 A 
HETATM   26  C6  UNK     1      20.689  -6.423  38.950  1.00  0.00     0.015 A 
HETATM   27  N1  UNK     1      19.672  -9.393  37.277  1.00  0.00    -0.359 N 
HETATM   28  C5  UNK     1      21.568  -9.114  38.911  1.00  0.00     0.030 A 
HETATM   29  C4  UNK     1      18.725  -8.566  36.735  1.00  0.00     0.108 A 
HETATM   30  C7  UNK     1      19.792 -10.804  36.976  1.00  0.00     0.156 C 
HETATM   31  C10 UNK     1      22.209  -8.160  39.705  1.00  0.00     0.002 A 
HETATM   32  C11 UNK     1      21.778  -6.835  39.727  1.00  0.00     0.001 A 
ENDBRANCH  20  23
ENDBRANCH   1  19
TORSDOF 5
ENDMDL
MODEL 3
REMARK VINA RESULT:     -10.2      2.186      2.920
REMARK  5 active torsions:
REMARK  status: ('A' for Active; 'I' for Inactive)
REMARK       I    between atoms: C9_17  and  N2_6 
REMARK    1  A    between atoms: N2_6  and  N4_8 
REMARK    2  A    between atoms: C14_22  and  N3_7 
REMARK    3  A    between atoms: C21_29  and  N3_7 
REMARK    4  A    between atoms: C21_29  and  N4_8 
REMARK    5  A    between atoms: C3_11  and  C9_17 
ROOT
HETATM    1  N4  UNK     1      18.087  -3.786  36.523  1.00  0.00    -0.273 N 
HETATM    2  H18 UNK     1      17.077  -3.859  36.466  1.00  0.00     0.189 HD
ENDROOT
BRANCH   1   3
HETATM    3  C21 UNK     1      18.742  -2.573  36.337  1.00  0.00     0.191 C 
HETATM    4  S1  UNK     1      18.286  -1.304  37.332  1.00  0.00    -0.039 SA
BRANCH   3   5
HETATM    5  N3  UNK     1      19.695  -2.584  35.303  1.00  0.00    -0.332 N 
HETATM    6  H17 UNK     1      20.546  -3.085  35.551  1.00  0.00     0.168 HD
BRANCH   5   7
HETATM    7  C14 UNK     1      19.761  -1.999  34.038  1.00  0.00     0.037 A 
HETATM    8  C15 UNK     1      19.032  -0.847  33.764  1.00  0.00     0.067 A 
HETATM    9  C12 UNK     1      19.112  -0.278  32.491  1.00  0.00     0.092 A 
HETATM   10  O1  UNK     1      18.351   0.888  32.273  1.00  0.00    -0.275 OA
HETATM   11  C8  UNK     1      19.903  -0.823  31.479  1.00  0.00     0.004 A 
HETATM   12  C20 UNK     1      18.356   1.538  31.048  1.00  0.00     0.288 A 
HETATM   13  C18 UNK     1      19.195   0.950  29.990  1.00  0.00     0.090 A 
HETATM   14  O3  UNK     1      17.698   2.553  30.847  1.00  0.00    -0.260 OA
HETATM   15  C13 UNK     1      19.928  -0.157  30.170  1.00  0.00    -0.043 A 
HETATM   16  C19 UNK     1      20.769  -0.720  29.060  1.00  0.00     0.049 C 
HETATM   17  C16 UNK     1      20.631  -1.983  31.776  1.00  0.00     0.017 A 
HETATM   18  C17 UNK     1      20.560  -2.566  33.047  1.00  0.00     0.030 A 
ENDBRANCH   5   7
ENDBRANCH   3   5
ENDBRANCH   1   3
BRANCH   1  19
HETATM   19  N2  UNK     1      18.776  -4.943  36.814  1.00  0.00    -0.264 N 
HETATM   20  C9  UNK     1      18.083  -6.141  36.857  1.00  0.00     0.272 C 
HETATM   21  O2  UNK     1      16.873  -6.231  36.648  1.00  0.00    -0.266 OA
HETATM   22  H12 UNK     1      19.747  -4.827  37.080  1.00  0.00     0.190 HD
BRANCH  20  23
HETATM   23  C3  UNK     1      18.890  -7.321  37.196  1.00  0.00     0.061 A 
HETATM   24  C2  UNK     1      19.841  -7.956  36.384  1.00  0.00     0.008 A 
HETATM   25  C1  UNK     1      20.338  -9.022  37.137  1.00  0.00     0.045 A 
HETATM   26  C6  UNK     1      20.345  -7.750  35.085  1.00  0.00     0.015 A 
HETATM   27  N1  UNK     1      19.687  -8.999  38.350  1.00  0.00    -0.359 N 
HETATM   28  C5  UNK     1      21.318  -9.897  36.653  1.00  0.00     0.030 A 
HETATM   29  C4  UNK     1      18.800  -7.959  38.391  1.00  0.00     0.108 A 
HETATM   30  C7  UNK     1      19.900  -9.934  39.435  1.00  0.00     0.156 C 
HETATM   31  C10 UNK     1      21.802  -9.672  35.362  1.00  0.00     0.002 A 
HETATM   32  C11 UNK     1      21.325  -8.616  34.588  1.00  0.00     0.001 A 
ENDBRANCH  20  23
ENDBRANCH   1  19
TORSDOF 5
ENDMDL
MODEL 4
REMARK VINA RESULT:     -10.1      2.033      2.924
REMARK  5 active torsions:
REMARK  status: ('A' for Active; 'I' for Inactive)
REMARK       I    between atoms: C9_17  and  N2_6 
REMARK    1  A    between atoms: N2_6  and  N4_8 
REMARK    2  A    between atoms: C14_22  and  N3_7 
REMARK    3  A    between atoms: C21_29  and  N3_7 
REMARK    4  A    between atoms: C21_29  and  N4_8 
REMARK    5  A    between atoms: C3_11  and  C9_17 
ROOT
HETATM    1  N4  UNK     1      18.375  -3.903  36.544  1.00  0.00    -0.273 N 
HETATM    2  H18 UNK     1      17.429  -4.202  36.331  1.00  0.00     0.189 HD
ENDROOT
BRANCH   1   3
HETATM    3  C21 UNK     1      18.788  -2.591  36.339  1.00  0.00     0.191 C 
HETATM    4  S1  UNK     1      18.041  -1.406  37.259  1.00  0.00    -0.039 SA
BRANCH   3   5
HETATM    5  N3  UNK     1      19.778  -2.445  35.351  1.00  0.00    -0.332 N 
HETATM    6  H17 UNK     1      20.695  -2.767  35.656  1.00  0.00     0.168 HD
BRANCH   5   7
HETATM    7  C14 UNK     1      19.797  -1.891  34.071  1.00  0.00     0.037 A 
HETATM    8  C15 UNK     1      19.068  -0.738  33.799  1.00  0.00     0.067 A 
HETATM    9  C12 UNK     1      19.101  -0.200  32.511  1.00  0.00     0.092 A 
HETATM   10  O1  UNK     1      18.342   0.968  32.297  1.00  0.00    -0.275 OA
HETATM   11  C8  UNK     1      19.844  -0.776  31.481  1.00  0.00     0.004 A 
HETATM   12  C20 UNK     1      18.302   1.589  31.057  1.00  0.00     0.288 A 
HETATM   13  C18 UNK     1      19.092   0.968  29.980  1.00  0.00     0.090 A 
HETATM   14  O3  UNK     1      17.646   2.605  30.860  1.00  0.00    -0.260 OA
HETATM   15  C13 UNK     1      19.822  -0.141  30.156  1.00  0.00    -0.043 A 
HETATM   16  C19 UNK     1      20.611  -0.739  29.027  1.00  0.00     0.049 C 
HETATM   17  C16 UNK     1      20.573  -1.937  31.776  1.00  0.00     0.017 A 
HETATM   18  C17 UNK     1      20.550  -2.489  33.062  1.00  0.00     0.030 A 
ENDBRANCH   5   7
ENDBRANCH   3   5
ENDBRANCH   1   3
BRANCH   1  19
HETATM   19  N2  UNK     1      19.223  -4.856  37.066  1.00  0.00    -0.264 N 
HETATM   20  C9  UNK     1      20.054  -5.554  36.206  1.00  0.00     0.272 C 
HETATM   21  O2  UNK     1      20.077  -5.369  34.989  1.00  0.00    -0.266 OA
HETATM   22  H12 UNK     1      19.111  -5.057  38.053  1.00  0.00     0.190 HD
BRANCH  20  23
HETATM   23  C3  UNK     1      20.908  -6.565  36.843  1.00  0.00     0.061 A 
HETATM   24  C2  UNK     1      21.290  -7.805  36.311  1.00  0.00     0.008 A 
HETATM   25  C1  UNK     1      22.097  -8.406  37.280  1.00  0.00     0.045 A 
HETATM   26  C6  UNK     1      21.045  -8.497  35.109  1.00  0.00     0.015 A 
HETATM   27  N1  UNK     1      22.175  -7.532  38.341  1.00  0.00    -0.359 N 
HETATM   28  C5  UNK     1      22.673  -9.670  37.106  1.00  0.00     0.030 A 
HETATM   29  C4  UNK     1      21.448  -6.403  38.077  1.00  0.00     0.108 A 
HETATM   30  C7  UNK     1      22.914  -7.760  39.565  1.00  0.00     0.156 C 
HETATM   31  C10 UNK     1      22.415 -10.337  35.905  1.00  0.00     0.002 A 
HETATM   32  C11 UNK     1      21.614  -9.761  34.921  1.00  0.00     0.001 A 
ENDBRANCH  20  23
ENDBRANCH   1  19
TORSDOF 5
ENDMDL
MODEL 5
REMARK VINA RESULT:     -10.1      1.463      2.106
REMARK  5 active torsions:
REMARK  status: ('A' for Active; 'I' for Inactive)
REMARK       I    between atoms: C9_17  and  N2_6 
REMARK    1  A    between atoms: N2_6  and  N4_8 
REMARK    2  A    between atoms: C14_22  and  N3_7 
REMARK    3  A    between atoms: C21_29  and  N3_7 
REMARK    4  A    between atoms: C21_29  and  N4_8 
REMARK    5  A    between atoms: C3_11  and  C9_17 
ROOT
HETATM    1  N4  UNK     1      19.973  -2.313  36.829  1.00  0.00    -0.273 N 
HETATM    2  H18 UNK     1      20.863  -1.845  36.692  1.00  0.00     0.189 HD
ENDROOT
BRANCH   1   3
HETATM    3  C21 UNK     1      18.773  -1.722  36.446  1.00  0.00     0.191 C 
HETATM    4  S1  UNK     1      17.885  -0.960  37.645  1.00  0.00    -0.039 SA
BRANCH   3   5
HETATM    5  N3  UNK     1      18.464  -1.875  35.083  1.00  0.00    -0.332 N 
HETATM    6  H17 UNK     1      18.122  -2.806  34.854  1.00  0.00     0.168 HD
BRANCH   5   7
HETATM    7  C14 UNK     1      18.591  -1.055  33.961  1.00  0.00     0.037 A 
HETATM    8  C15 UNK     1      18.208   0.280  34.026  1.00  0.00     0.067 A 
HETATM    9  C12 UNK     1      18.344   1.084  32.892  1.00  0.00     0.092 A 
HETATM   10  O1  UNK     1      17.939   2.427  33.019  1.00  0.00    -0.275 OA
HETATM   11  C8  UNK     1      18.855   0.595  31.689  1.00  0.00     0.004 A 
HETATM   12  C20 UNK     1      18.030   3.315  31.957  1.00  0.00     0.288 A 
HETATM   13  C18 UNK     1      18.571   2.784  30.695  1.00  0.00     0.090 A 
HETATM   14  O3  UNK     1      17.681   4.486  32.057  1.00  0.00    -0.260 OA
HETATM   15  C13 UNK     1      18.964   1.512  30.546  1.00  0.00    -0.043 A 
HETATM   16  C19 UNK     1      19.510   1.015  29.238  1.00  0.00     0.049 C 
HETATM   17  C16 UNK     1      19.237  -0.753  31.645  1.00  0.00     0.017 A 
HETATM   18  C17 UNK     1      19.106  -1.571  32.773  1.00  0.00     0.030 A 
ENDBRANCH   5   7
ENDBRANCH   3   5
ENDBRANCH   1   3
BRANCH   1  19
HETATM   19  N2  UNK     1      20.014  -3.569  37.392  1.00  0.00    -0.264 N 
HETATM   20  C9  UNK     1      20.154  -4.670  36.563  1.00  0.00     0.272 C 
HETATM   21  O2  UNK     1      20.245  -4.587  35.338  1.00  0.00    -0.266 OA
HETATM   22  H12 UNK     1      19.837  -3.614  38.389  1.00  0.00     0.190 HD
BRANCH  20  23
HETATM   23  C3  UNK     1      20.166  -5.971  37.245  1.00  0.00     0.061 A 
HETATM   24  C2  UNK     1      21.160  -6.467  38.100  1.00  0.00     0.008 A 
HETATM   25  C1  UNK     1      20.728  -7.735  38.496  1.00  0.00     0.045 A 
HETATM   26  C6  UNK     1      22.390  -5.986  38.591  1.00  0.00     0.015 A 
HETATM   27  N1  UNK     1      19.516  -7.959  37.883  1.00  0.00    -0.359 N 
HETATM   28  C5  UNK     1      21.467  -8.549  39.362  1.00  0.00     0.030 A 
HETATM   29  C4  UNK     1      19.168  -6.881  37.115  1.00  0.00     0.108 A 
HETATM   30  C7  UNK     1      18.714  -9.157  38.019  1.00  0.00     0.156 C 
HETATM   31  C10 UNK     1      22.684  -8.050  39.835  1.00  0.00     0.002 A 
HETATM   32  C11 UNK     1      23.140  -6.789  39.458  1.00  0.00     0.001 A 
ENDBRANCH  20  23
ENDBRANCH   1  19
TORSDOF 5
ENDMDL
MODEL 6
REMARK VINA RESULT:     -10.1      2.756      9.738
REMARK  5 active torsions:
REMARK  status: ('A' for Active; 'I' for Inactive)
REMARK       I    between atoms: C9_17  and  N2_6 
REMARK    1  A    between atoms: N2_6  and  N4_8 
REMARK    2  A    between atoms: C14_22  and  N3_7 
REMARK    3  A    between atoms: C21_29  and  N3_7 
REMARK    4  A    between atoms: C21_29  and  N4_8 
REMARK    5  A    between atoms: C3_11  and  C9_17 
ROOT
HETATM    1  N4  UNK     1      18.896  -2.526  35.705  1.00  0.00    -0.273 N 
HETATM    2  H18 UNK     1      18.037  -2.278  36.186  1.00  0.00     0.189 HD
ENDROOT
BRANCH   1   3
HETATM    3  C21 UNK     1      19.707  -3.564  36.152  1.00  0.00     0.191 C 
HETATM    4  S1  UNK     1      20.923  -3.167  37.233  1.00  0.00    -0.039 SA
BRANCH   3   5
HETATM    5  N3  UNK     1      19.394  -4.819  35.598  1.00  0.00    -0.332 N 
HETATM    6  H17 UNK     1      18.884  -4.751  34.720  1.00  0.00     0.168 HD
BRANCH   5   7
HETATM    7  C14 UNK     1      19.563  -6.136  36.024  1.00  0.00     0.037 A 
HETATM    8  C15 UNK     1      20.457  -6.973  35.364  1.00  0.00     0.067 A 
HETATM    9  C12 UNK     1      20.612  -8.289  35.808  1.00  0.00     0.092 A 
HETATM   10  O1  UNK     1      21.531  -9.088  35.099  1.00  0.00    -0.275 OA
HETATM   11  C8  UNK     1      19.902  -8.797  36.896  1.00  0.00     0.004 A 
HETATM   12  C20 UNK     1      21.765 -10.409  35.452  1.00  0.00     0.288 A 
HETATM   13  C18 UNK     1      21.008 -10.931  36.602  1.00  0.00     0.090 A 
HETATM   14  O3  UNK     1      22.562 -11.113  34.844  1.00  0.00    -0.260 OA
HETATM   15  C13 UNK     1      20.129 -10.193  37.294  1.00  0.00    -0.043 A 
HETATM   16  C19 UNK     1      19.378 -10.770  38.460  1.00  0.00     0.049 C 
HETATM   17  C16 UNK     1      19.007  -7.937  37.548  1.00  0.00     0.017 A 
HETATM   18  C17 UNK     1      18.841  -6.616  37.115  1.00  0.00     0.030 A 
ENDBRANCH   5   7
ENDBRANCH   3   5
ENDBRANCH   1   3
BRANCH   1  19
HETATM   19  N2  UNK     1      19.207  -1.797  34.578  1.00  0.00    -0.264 N 
HETATM   20  C9  UNK     1      18.251  -0.949  34.045  1.00  0.00     0.272 C 
HETATM   21  O2  UNK     1      17.127  -0.807  34.528  1.00  0.00    -0.266 OA
HETATM   22  H12 UNK     1      20.099  -2.007  34.147  1.00  0.00     0.190 HD
BRANCH  20  23
HETATM   23  C3  UNK     1      18.659  -0.227  32.832  1.00  0.00     0.061 A 
HETATM   24  C2  UNK     1      19.346  -0.752  31.728  1.00  0.00     0.008 A 
HETATM   25  C1  UNK     1      19.505   0.310  30.835  1.00  0.00     0.045 A 
HETATM   26  C6  UNK     1      19.857  -2.016  31.376  1.00  0.00     0.015 A 
HETATM   27  N1  UNK     1      18.924   1.416  31.414  1.00  0.00    -0.359 N 
HETATM   28  C5  UNK     1      20.153   0.170  29.602  1.00  0.00     0.030 A 
HETATM   29  C4  UNK     1      18.404   1.091  32.637  1.00  0.00     0.108 A 
HETATM   30  C7  UNK     1      18.864   2.738  30.826  1.00  0.00     0.156 C 
HETATM   31  C10 UNK     1      20.652  -1.094  29.276  1.00  0.00     0.002 A 
HETATM   32  C11 UNK     1      20.508  -2.172  30.147  1.00  0.00     0.001 A 
ENDBRANCH  20  23
ENDBRANCH   1  19
TORSDOF 5
ENDMDL
MODEL 7
REMARK VINA RESULT:     -10.0      1.253      2.194
REMARK  5 active torsions:
REMARK  status: ('A' for Active; 'I' for Inactive)
REMARK       I    between atoms: C9_17  and  N2_6 
REMARK    1  A    between atoms: N2_6  and  N4_8 
REMARK    2  A    between atoms: C14_22  and  N3_7 
REMARK    3  A    between atoms: C21_29  and  N3_7 
REMARK    4  A    between atoms: C21_29  and  N4_8 
REMARK    5  A    between atoms: C3_11  and  C9_17 
ROOT
HETATM    1  N4  UNK     1      17.923  -3.125  36.499  1.00  0.00    -0.273 N 
HETATM    2  H18 UNK     1      17.102  -3.539  36.070  1.00  0.00     0.189 HD
ENDROOT
BRANCH   1   3
HETATM    3  C21 UNK     1      18.214  -1.772  36.360  1.00  0.00     0.191 C 
HETATM    4  S1  UNK     1      17.813  -0.773  37.644  1.00  0.00    -0.039 SA
BRANCH   3   5
HETATM    5  N3  UNK     1      18.794  -1.431  35.125  1.00  0.00    -0.332 N 
HETATM    6  H17 UNK     1      19.501  -2.096  34.820  1.00  0.00     0.168 HD
BRANCH   5   7
HETATM    7  C14 UNK     1      18.665  -0.344  34.261  1.00  0.00     0.037 A 
HETATM    8  C15 UNK     1      18.839  -0.516  32.891  1.00  0.00     0.067 A 
HETATM    9  C12 UNK     1      18.705   0.585  32.044  1.00  0.00     0.092 A 
HETATM   10  O1  UNK     1      18.892   0.349  30.667  1.00  0.00    -0.275 OA
HETATM   11  C8  UNK     1      18.400   1.860  32.521  1.00  0.00     0.004 A 
HETATM   12  C20 UNK     1      18.783   1.369  29.735  1.00  0.00     0.288 A 
HETATM   13  C18 UNK     1      18.460   2.709  30.254  1.00  0.00     0.090 A 
HETATM   14  O3  UNK     1      18.943   1.174  28.535  1.00  0.00    -0.260 OA
HETATM   15  C13 UNK     1      18.277   2.962  31.557  1.00  0.00    -0.043 A 
HETATM   16  C19 UNK     1      17.951   4.346  32.040  1.00  0.00     0.049 C 
HETATM   17  C16 UNK     1      18.228   2.014  33.904  1.00  0.00     0.017 A 
HETATM   18  C17 UNK     1      18.359   0.918  34.766  1.00  0.00     0.030 A 
ENDBRANCH   5   7
ENDBRANCH   3   5
ENDBRANCH   1   3
BRANCH   1  19
HETATM   19  N2  UNK     1      18.722  -3.965  37.244  1.00  0.00    -0.264 N 
HETATM   20  C9  UNK     1      19.777  -4.611  36.620  1.00  0.00     0.272 C 
HETATM   21  O2  UNK     1      20.043  -4.474  35.426  1.00  0.00    -0.266 OA
HETATM   22  H12 UNK     1      18.421  -4.135  38.196  1.00  0.00     0.190 HD
BRANCH  20  23
HETATM   23  C3  UNK     1      20.563  -5.503  37.482  1.00  0.00     0.061 A 
HETATM   24  C2  UNK     1      20.185  -6.765  37.960  1.00  0.00     0.008 A 
HETATM   25  C1  UNK     1      21.256  -7.220  38.733  1.00  0.00     0.045 A 
HETATM   26  C6  UNK     1      19.049  -7.587  37.827  1.00  0.00     0.015 A 
HETATM   27  N1  UNK     1      22.224  -6.241  38.699  1.00  0.00    -0.359 N 
HETATM   28  C5  UNK     1      21.247  -8.460  39.382  1.00  0.00     0.030 A 
HETATM   29  C4  UNK     1      21.804  -5.187  37.933  1.00  0.00     0.108 A 
HETATM   30  C7  UNK     1      23.505  -6.303  39.370  1.00  0.00     0.156 C 
HETATM   31  C10 UNK     1      20.108  -9.256  39.236  1.00  0.00     0.002 A 
HETATM   32  C11 UNK     1      19.025  -8.829  38.470  1.00  0.00     0.001 A 
ENDBRANCH  20  23
ENDBRANCH   1  19
TORSDOF 5
ENDMDL
MODEL 8
REMARK VINA RESULT:      -9.9      2.234      9.523
REMARK  5 active torsions:
REMARK  status: ('A' for Active; 'I' for Inactive)
REMARK       I    between atoms: C9_17  and  N2_6 
REMARK    1  A    between atoms: N2_6  and  N4_8 
REMARK    2  A    between atoms: C14_22  and  N3_7 
REMARK    3  A    between atoms: C21_29  and  N3_7 
REMARK    4  A    between atoms: C21_29  and  N4_8 
REMARK    5  A    between atoms: C3_11  and  C9_17 
ROOT
HETATM    1  N4  UNK     1      17.294  -1.640  35.512  1.00  0.00    -0.273 N 
HETATM    2  H18 UNK     1      16.297  -1.617  35.700  1.00  0.00     0.189 HD
ENDROOT
BRANCH   1   3
HETATM    3  C21 UNK     1      18.206  -2.079  36.467  1.00  0.00     0.191 C 
HETATM    4  S1  UNK     1      18.268  -1.224  37.907  1.00  0.00    -0.039 SA
BRANCH   3   5
HETATM    5  N3  UNK     1      18.974  -3.186  36.065  1.00  0.00    -0.332 N 
HETATM    6  H17 UNK     1      19.054  -3.269  35.054  1.00  0.00     0.168 HD
BRANCH   5   7
HETATM    7  C14 UNK     1      19.590  -4.237  36.745  1.00  0.00     0.037 A 
HETATM    8  C15 UNK     1      18.955  -5.470  36.846  1.00  0.00     0.067 A 
HETATM    9  C12 UNK     1      19.590  -6.508  37.531  1.00  0.00     0.092 A 
HETATM   10  O1  UNK     1      18.898  -7.734  37.600  1.00  0.00    -0.275 OA
HETATM   11  C8  UNK     1      20.846  -6.355  38.119  1.00  0.00     0.004 A 
HETATM   12  C20 UNK     1      19.434  -8.833  38.255  1.00  0.00     0.288 A 
HETATM   13  C18 UNK     1      20.760  -8.655  38.870  1.00  0.00     0.090 A 
HETATM   14  O3  UNK     1      18.841  -9.904  38.320  1.00  0.00    -0.260 OA
HETATM   15  C13 UNK     1      21.440  -7.502  38.819  1.00  0.00    -0.043 A 
HETATM   16  C19 UNK     1      22.790  -7.368  39.464  1.00  0.00     0.049 C 
HETATM   17  C16 UNK     1      21.470  -5.105  38.005  1.00  0.00     0.017 A 
HETATM   18  C17 UNK     1      20.846  -4.055  37.322  1.00  0.00     0.030 A 
ENDBRANCH   5   7
ENDBRANCH   3   5
ENDBRANCH   1   3
BRANCH   1  19
HETATM   19  N2  UNK     1      17.697  -1.237  34.258  1.00  0.00    -0.264 N 
HETATM   20  C9  UNK     1      18.301   0.002  34.116  1.00  0.00     0.272 C 
HETATM   21  O2  UNK     1      18.500   0.770  35.058  1.00  0.00    -0.266 OA
HETATM   22  H12 UNK     1      17.432  -1.842  33.490  1.00  0.00     0.190 HD
BRANCH  20  23
HETATM   23  C3  UNK     1      18.680   0.361  32.743  1.00  0.00     0.061 A 
HETATM   24  C2  UNK     1      19.337  -0.450  31.808  1.00  0.00     0.008 A 
HETATM   25  C1  UNK     1      19.476   0.327  30.656  1.00  0.00     0.045 A 
HETATM   26  C6  UNK     1      19.837  -1.767  31.802  1.00  0.00     0.015 A 
HETATM   27  N1  UNK     1      18.912   1.553  30.924  1.00  0.00    -0.359 N 
HETATM   28  C5  UNK     1      20.093  -0.150  29.493  1.00  0.00     0.030 A 
HETATM   29  C4  UNK     1      18.422   1.579  32.202  1.00  0.00     0.108 A 
HETATM   30  C7  UNK     1      18.839   2.665  30.000  1.00  0.00     0.156 C 
HETATM   31  C10 UNK     1      20.581  -1.459  29.512  1.00  0.00     0.002 A 
HETATM   32  C11 UNK     1      20.456  -2.257  30.647  1.00  0.00     0.001 A 
ENDBRANCH  20  23
ENDBRANCH   1  19
TORSDOF 5
ENDMDL
MODEL 9
REMARK VINA RESULT:      -9.9      4.636      7.634
REMARK  5 active torsions:
REMARK  status: ('A' for Active; 'I' for Inactive)
REMARK       I    between atoms: C9_17  and  N2_6 
REMARK    1  A    between atoms: N2_6  and  N4_8 
REMARK    2  A    between atoms: C14_22  and  N3_7 
REMARK    3  A    between atoms: C21_29  and  N3_7 
REMARK    4  A    between atoms: C21_29  and  N4_8 
REMARK    5  A    between atoms: C3_11  and  C9_17 
ROOT
HETATM    1  N4  UNK     1      19.451   1.535  30.853  1.00  0.00    -0.273 N 
HETATM    2  H18 UNK     1      20.293   1.010  30.642  1.00  0.00     0.189 HD
ENDROOT
BRANCH   1   3
HETATM    3  C21 UNK     1      18.900   2.428  29.940  1.00  0.00     0.191 C 
HETATM    4  S1  UNK     1      17.800   1.808  28.839  1.00  0.00    -0.039 SA
BRANCH   3   5
HETATM    5  N3  UNK     1      19.377   3.746  30.063  1.00  0.00    -0.332 N 
HETATM    6  H17 UNK     1      20.022   4.007  29.320  1.00  0.00     0.168 HD
BRANCH   5   7
HETATM    7  C14 UNK     1      19.217   4.749  31.018  1.00  0.00     0.037 A 
HETATM    8  C15 UNK     1      17.959   5.015  31.548  1.00  0.00     0.067 A 
HETATM    9  C12 UNK     1      17.821   6.023  32.503  1.00  0.00     0.092 A 
HETATM   10  O1  UNK     1      16.522   6.246  33.003  1.00  0.00    -0.275 OA
HETATM   11  C8  UNK     1      18.905   6.779  32.951  1.00  0.00     0.004 A 
HETATM   12  C20 UNK     1      16.269   7.221  33.955  1.00  0.00     0.288 A 
HETATM   13  C18 UNK     1      17.423   8.010  34.418  1.00  0.00     0.090 A 
HETATM   14  O3  UNK     1      15.144   7.423  34.397  1.00  0.00    -0.260 OA
HETATM   15  C13 UNK     1      18.669   7.820  33.961  1.00  0.00    -0.043 A 
HETATM   16  C19 UNK     1      19.815   8.651  34.462  1.00  0.00     0.049 C 
HETATM   17  C16 UNK     1      20.165   6.495  32.406  1.00  0.00     0.017 A 
HETATM   18  C17 UNK     1      20.319   5.487  31.447  1.00  0.00     0.030 A 
ENDBRANCH   5   7
ENDBRANCH   3   5
ENDBRANCH   1   3
BRANCH   1  19
HETATM   19  N2  UNK     1      18.868   1.303  32.080  1.00  0.00    -0.264 N 
HETATM   20  C9  UNK     1      18.989   0.047  32.651  1.00  0.00     0.272 C 
HETATM   21  O2  UNK     1      19.594  -0.883  32.118  1.00  0.00    -0.266 OA
HETATM   22  H12 UNK     1      18.294   2.053  32.447  1.00  0.00     0.190 HD
BRANCH  20  23
HETATM   23  C3  UNK     1      18.319  -0.119  33.948  1.00  0.00     0.061 A 
HETATM   24  C2  UNK     1      18.711  -0.961  34.999  1.00  0.00     0.008 A 
HETATM   25  C1  UNK     1      17.768  -0.773  36.012  1.00  0.00     0.045 A 
HETATM   26  C6  UNK     1      19.765  -1.869  35.214  1.00  0.00     0.015 A 
HETATM   27  N1  UNK     1      16.859   0.153  35.553  1.00  0.00    -0.359 N 
HETATM   28  C5  UNK     1      17.827  -1.452  37.235  1.00  0.00     0.030 A 
HETATM   29  C4  UNK     1      17.192   0.557  34.288  1.00  0.00     0.108 A 
HETATM   30  C7  UNK     1      15.710   0.639  36.288  1.00  0.00     0.156 C 
HETATM   31  C10 UNK     1      18.882  -2.349  37.424  1.00  0.00     0.002 A 
HETATM   32  C11 UNK     1      19.838  -2.556  36.431  1.00  0.00     0.001 A 
ENDBRANCH  20  23
ENDBRANCH   1  19
TORSDOF 5
ENDMDL
MODEL 10
REMARK VINA RESULT:      -9.9      5.160      7.997
REMARK  5 active torsions:
REMARK  status: ('A' for Active; 'I' for Inactive)
REMARK       I    between atoms: C9_17  and  N2_6 
REMARK    1  A    between atoms: N2_6  and  N4_8 
REMARK    2  A    between atoms: C14_22  and  N3_7 
REMARK    3  A    between atoms: C21_29  and  N3_7 
REMARK    4  A    between atoms: C21_29  and  N4_8 
REMARK    5  A    between atoms: C3_11  and  C9_17 
ROOT
HETATM    1  N4  UNK     1      18.549   1.462  31.479  1.00  0.00    -0.273 N 
HETATM    2  H18 UNK     1      18.649   0.753  30.759  1.00  0.00     0.189 HD
ENDROOT
BRANCH   1   3
HETATM    3  C21 UNK     1      18.305   2.794  31.161  1.00  0.00     0.191 C 
HETATM    4  S1  UNK     1      18.594   3.263  29.578  1.00  0.00    -0.039 SA
BRANCH   3   5
HETATM    5  N3  UNK     1      17.864   3.574  32.245  1.00  0.00    -0.332 N 
HETATM    6  H17 UNK     1      17.150   3.113  32.804  1.00  0.00     0.168 HD
BRANCH   5   7
HETATM    7  C14 UNK     1      18.139   4.870  32.682  1.00  0.00     0.037 A 
HETATM    8  C15 UNK     1      17.143   5.842  32.653  1.00  0.00     0.067 A 
HETATM    9  C12 UNK     1      17.439   7.133  33.094  1.00  0.00     0.092 A 
HETATM   10  O1  UNK     1      16.390   8.073  33.041  1.00  0.00    -0.275 OA
HETATM   11  C8  UNK     1      18.702   7.487  33.569  1.00  0.00     0.004 A 
HETATM   12  C20 UNK     1      16.571   9.384  33.455  1.00  0.00     0.288 A 
HETATM   13  C18 UNK     1      17.909   9.743  33.953  1.00  0.00     0.090 A 
HETATM   14  O3  UNK     1      15.666  10.210  33.414  1.00  0.00    -0.260 OA
HETATM   15  C13 UNK     1      18.924   8.870  34.015  1.00  0.00    -0.043 A 
HETATM   16  C19 UNK     1      20.273   9.282  34.529  1.00  0.00     0.049 C 
HETATM   17  C16 UNK     1      19.691   6.494  33.591  1.00  0.00     0.017 A 
HETATM   18  C17 UNK     1      19.410   5.195  33.151  1.00  0.00     0.030 A 
ENDBRANCH   5   7
ENDBRANCH   3   5
ENDBRANCH   1   3
BRANCH   1  19
HETATM   19  N2  UNK     1      18.646   1.036  32.785  1.00  0.00    -0.264 N 
HETATM   20  C9  UNK     1      18.562  -0.321  33.054  1.00  0.00     0.272 C 
HETATM   21  O2  UNK     1      18.404  -1.175  32.182  1.00  0.00    -0.266 OA
HETATM   22  H12 UNK     1      18.675   1.764  33.489  1.00  0.00     0.190 HD
BRANCH  20  23
HETATM   23  C3  UNK     1      18.653  -0.685  34.474  1.00  0.00     0.061 A 
HETATM   24  C2  UNK     1      18.140   0.031  35.565  1.00  0.00     0.008 A 
HETATM   25  C1  UNK     1      18.476  -0.708  36.702  1.00  0.00     0.045 A 
HETATM   26  C6  UNK     1      17.421   1.232  35.725  1.00  0.00     0.015 A 
HETATM   27  N1  UNK     1      19.165  -1.820  36.273  1.00  0.00    -0.359 N 
HETATM   28  C5  UNK     1      18.127  -0.304  37.996  1.00  0.00     0.030 A 
HETATM   29  C4  UNK     1      19.276  -1.810  34.909  1.00  0.00     0.108 A 
HETATM   30  C7  UNK     1      19.701  -2.858  37.128  1.00  0.00     0.156 C 
HETATM   31  C10 UNK     1      17.415   0.891  38.129  1.00  0.00     0.002 A 
HETATM   32  C11 UNK     1      17.066   1.649  37.013  1.00  0.00     0.001 A 
ENDBRANCH  20  23
ENDBRANCH   1  19
TORSDOF 5
ENDMDL
