REMARK  7 active torsions:
REMARK  status: ('A' for Active; 'I' for Inactive)
REMARK    1  A    between atoms: C3_9  and  N1_5 
REMARK    2  A    between atoms: C5_11  and  N1_5 
REMARK    3  A    between atoms: C8_14  and  N2_6 
REMARK    4  A    between atoms: C1_7  and  C2_8 
REMARK    5  A    between atoms: C1_7  and  C3_9 
REMARK    6  A    between atoms: C2_8  and  C4_10 
REMARK    7  A    between atoms: C4_10  and  C6_12 
ROOT
HETATM    1  O1  UNK     1       2.947   0.632  -2.947  1.00  0.00    -0.273 OA
HETATM    2  O2  UNK     1       1.281   0.326  -4.475  1.00  0.00    -0.257 OA
HETATM    3  C5  UNK     1       0.950   1.395  -1.036  1.00  0.00     0.081 A 
HETATM    4  C7  UNK     1       2.392   1.379  -0.678  1.00  0.00     0.027 A 
HETATM    5  C8  UNK     1       0.660   1.037  -2.298  1.00  0.00     0.205 A 
HETATM    6  C9  UNK     1       3.332   0.999  -1.642  1.00  0.00     0.092 A 
HETATM    7  C10 UNK     1       2.893   1.729   0.588  1.00  0.00     0.017 A 
HETATM    8  C13 UNK     1       1.619   0.637  -3.339  1.00  0.00     0.324 A 
HETATM    9  C14 UNK     1       4.706   0.958  -1.383  1.00  0.00     0.038 A 
HETATM   10  C15 UNK     1       4.267   1.694   0.862  1.00  0.00     0.001 A 
HETATM   11  C16 UNK     1       5.172   1.309  -0.122  1.00  0.00     0.003 A 
ENDROOT
BRANCH   3  12
HETATM   12  N1  UNK     1       0.049   1.764  -0.071  1.00  0.00    -0.387 N 
HETATM   13  H9  UNK     1      -0.903   1.971  -0.345  1.00  0.00     0.159 HD
BRANCH  12  14
HETATM   14  C3  UNK     1       0.345   1.733   1.334  1.00  0.00     0.120 C 
BRANCH  14  15
HETATM   15  C1  UNK     1      -0.918   1.459   2.147  1.00  0.00     0.020 C 
BRANCH  15  16
HETATM   16  C2  UNK     1      -1.565   0.114   1.794  1.00  0.00     0.006 C 
BRANCH  16  17
HETATM   17  C4  UNK     1      -2.803  -0.196   2.645  1.00  0.00     0.038 C 
BRANCH  17  18
HETATM   18  C6  UNK     1      -3.407  -1.550   2.371  1.00  0.00    -0.058 A 
HETATM   19  C11 UNK     1      -4.386  -1.675   1.397  1.00  0.00     0.007 A 
HETATM   20  C17 UNK     1      -4.946  -2.927   1.144  1.00  0.00     0.001 A 
HETATM   21  C19 UNK     1      -4.519  -4.040   1.867  1.00  0.00     0.000 A 
HETATM   22  C18 UNK     1      -3.533  -3.901   2.844  1.00  0.00     0.001 A 
HETATM   23  C12 UNK     1      -2.973  -2.649   3.097  1.00  0.00     0.007 A 
ENDBRANCH  17  18
ENDBRANCH  16  17
ENDBRANCH  15  16
ENDBRANCH  14  15
ENDBRANCH  12  14
ENDBRANCH   3  12
BRANCH   5  24
HETATM   24  N2  UNK     1      -0.716   1.039  -2.681  1.00  0.00    -0.107 N 
HETATM   25  O3  UNK     1      -1.538   1.372  -1.820  1.00  0.00    -0.531 OA
HETATM   26  O4  UNK     1      -0.976   0.709  -3.843  1.00  0.00    -0.531 OA
ENDBRANCH   5  24
TORSDOF 7
