REMARK  7 active torsions:
REMARK  status: ('A' for Active; 'I' for Inactive)
REMARK    1  A    between atoms: C15_23  and  O3_4 
REMARK    2  A    between atoms: C23_31  and  O3_4 
REMARK    3  A    between atoms: C5_13  and  N1_6 
REMARK    4  A    between atoms: C6_14  and  N2_7 
REMARK    5  A    between atoms: C16_24  and  N3_8 
REMARK       I    between atoms: C9_17  and  N3_8 
REMARK    6  A    between atoms: C5_13  and  C7_15 
REMARK    7  A    between atoms: C6_14  and  C9_17 
ROOT
HETATM    1  N1  UNK     1       1.549  -0.232  -0.819  1.00  0.00     0.096 N 
HETATM    2  N2  UNK     1      -0.282  -1.193   1.201  1.00  0.00     0.100 N 
HETATM    3  C1  UNK     1       2.023  -1.007   0.333  1.00  0.00     0.303 C 
HETATM    4  C2  UNK     1       0.170  -0.606  -1.156  1.00  0.00     0.303 C 
HETATM    5  C3  UNK     1       1.096  -0.817   1.538  1.00  0.00     0.303 C 
HETATM    6  C4  UNK     1      -0.758  -0.416   0.049  1.00  0.00     0.303 C 
ENDROOT
BRANCH   1   7
HETATM    7  C5  UNK     1       2.433  -0.417  -1.969  1.00  0.00     0.312 C 
BRANCH   7   8
HETATM    8  C7  UNK     1       2.338   0.711  -2.938  1.00  0.00    -0.011 A 
HETATM    9  C10 UNK     1       1.455   0.685  -3.946  1.00  0.00     0.092 A 
HETATM   10  C13 UNK     1       1.325   1.775  -4.928  1.00  0.00     0.288 A 
HETATM   11  O1  UNK     1       2.172   2.861  -4.769  1.00  0.00    -0.275 OA
HETATM   12  O4  UNK     1       0.505   1.716  -5.838  1.00  0.00    -0.260 OA
HETATM   13  C11 UNK     1       3.110   2.916  -3.719  1.00  0.00     0.090 A 
HETATM   14  C8  UNK     1       3.223   1.875  -2.796  1.00  0.00     0.009 A 
HETATM   15  C14 UNK     1       3.912   4.057  -3.658  1.00  0.00     0.041 A 
HETATM   16  C12 UNK     1       4.181   2.006  -1.783  1.00  0.00     0.051 A 
HETATM   17  C15 UNK     1       4.992   3.144  -1.708  1.00  0.00     0.069 A 
HETATM   18  C17 UNK     1       4.858   4.168  -2.644  1.00  0.00     0.039 A 
BRANCH  17  19
HETATM   19  O3  UNK     1       5.918   3.252  -0.715  1.00  0.00    -0.351 OA
BRANCH  19  20
HETATM   20  C23 UNK     1       5.622   2.604   0.521  1.00  0.00     0.171 C 
HETATM   21  C25 UNK     1       6.288   3.364   1.648  1.00  0.00     0.034 C 
ENDBRANCH  19  20
ENDBRANCH  17  19
ENDBRANCH   7   8
ENDBRANCH   1   7
BRANCH   2  22
HETATM   22  C6  UNK     1      -1.166  -1.010   2.350  1.00  0.00     0.375 C 
BRANCH  22  23
HETATM   23  C9  UNK     1      -2.391  -1.895   2.192  1.00  0.00     0.250 C 
HETATM   24  O2  UNK     1      -2.360  -2.967   1.596  1.00  0.00    -0.271 OA
HETATM   25  N3  UNK     1      -3.492  -1.309   2.813  1.00  0.00    -0.325 N 
HETATM   26  H15 UNK     1      -3.339  -0.416   3.273  1.00  0.00     0.169 HD
BRANCH  25  27
HETATM   27  C16 UNK     1      -4.811  -1.816   2.889  1.00  0.00     0.042 A 
HETATM   28  C18 UNK     1      -5.813  -1.106   3.552  1.00  0.00    -0.035 A 
HETATM   29  C20 UNK     1      -7.107  -1.622   3.617  1.00  0.00     0.011 A 
HETATM   30  C21 UNK     1      -5.527   0.208   4.204  1.00  0.00     0.050 C 
HETATM   31  C24 UNK     1      -7.400  -2.847   3.018  1.00  0.00     0.024 A 
HETATM   32  C22 UNK     1      -6.399  -3.557   2.355  1.00  0.00     0.036 A 
HETATM   33  C19 UNK     1      -5.105  -3.041   2.290  1.00  0.00     0.053 A 
HETATM   34 Cl1  UNK     1      -6.762  -5.068   1.616  1.00  0.00    -0.084 Cl
ENDBRANCH  25  27
ENDBRANCH  22  23
ENDBRANCH   2  22
TORSDOF 7
