REMARK  3 active torsions:
REMARK  status: ('A' for Active; 'I' for Inactive)
REMARK    1  A    between atoms: C12_16  and  O3_3 
REMARK    2  A    between atoms: C7_11  and  O3_3 
REMARK    3  A    between atoms: C12_16  and  C13_17 
ROOT
HETATM    1  O1  UNK     1       1.010   0.711   2.101  1.00  0.00    -0.275 OA
HETATM    2  O2  UNK     1      -3.381  -1.244   1.603  1.00  0.00    -0.322 OA
HETATM    3  O4  UNK     1       3.102   1.626   2.260  1.00  0.00    -0.260 OA
HETATM    4  C1  UNK     1       0.193  -0.059  -0.068  1.00  0.00     0.032 A 
HETATM    5  C2  UNK     1      -2.032  -1.027  -0.196  1.00  0.00     0.001 A 
HETATM    6  C3  UNK     1      -0.002   0.127   1.303  1.00  0.00     0.095 A 
HETATM    7  C4  UNK     1      -2.162  -0.813   1.172  1.00  0.00     0.087 A 
HETATM    8  C5  UNK     1      -0.833  -0.644  -0.831  1.00  0.00     0.031 A 
HETATM    9  C6  UNK     1      -1.177  -0.240   1.970  1.00  0.00     0.076 A 
HETATM   10  C7  UNK     1       1.467   0.367  -0.646  1.00  0.00     0.088 A 
HETATM   11  C8  UNK     1      -3.252  -1.625  -0.610  1.00  0.00     0.039 A 
HETATM   12  C9  UNK     1       2.414   0.917   0.122  1.00  0.00     0.120 A 
HETATM   13  C10 UNK     1      -4.033  -1.734   0.517  1.00  0.00     0.143 A 
HETATM   14  C11 UNK     1       2.226   1.120   1.568  1.00  0.00     0.290 A 
ENDROOT
BRANCH  10  15
HETATM   15  O3  UNK     1       1.628   0.173  -2.000  1.00  0.00    -0.346 OA
BRANCH  15  16
HETATM   16  C12 UNK     1       1.854   1.403  -2.662  1.00  0.00     0.202 C 
BRANCH  16  17
HETATM   17  C13 UNK     1       1.365   1.288  -4.068  1.00  0.00    -0.011 C 
HETATM   18  C14 UNK     1       0.410   2.064  -4.593  1.00  0.00     0.009 C 
ENDBRANCH  16  17
ENDBRANCH  15  16
ENDBRANCH  10  15
TORSDOF 3
