REMARK  4 active torsions:
REMARK  status: ('A' for Active; 'I' for Inactive)
REMARK    1  A    between atoms: C17_21  and  O2_2 
REMARK    2  A    between atoms: C8_12  and  O2_2 
REMARK    3  A    between atoms: C3_7  and  C6_10 
REMARK    4  A    between atoms: C15_19  and  C17_21 
ROOT
HETATM    1  O1  UNK     1       2.166   1.627  -0.608  1.00  0.00    -0.309 OA
HETATM    2  O3  UNK     1      -0.284  -0.219  -3.289  1.00  0.00    -0.287 OA
HETATM    3  C1  UNK     1       0.082   0.462  -1.056  1.00  0.00     0.051 A 
HETATM    4  C2  UNK     1       0.966   1.107  -0.192  1.00  0.00     0.090 A 
HETATM    5  C3  UNK     1       2.515   1.498  -1.943  1.00  0.00     0.090 A 
HETATM    6  C4  UNK     1       0.445   0.332  -2.475  1.00  0.00     0.187 A 
HETATM    7  C5  UNK     1      -1.127  -0.049  -0.577  1.00  0.00     0.055 A 
HETATM    8  C7  UNK     1       1.746   0.906  -2.871  1.00  0.00     0.093 A 
HETATM    9  C8  UNK     1      -1.445   0.091   0.774  1.00  0.00     0.080 A 
HETATM   10  C9  UNK     1       0.645   1.245   1.158  1.00  0.00     0.041 A 
HETATM   11  C10 UNK     1      -0.561   0.737   1.640  1.00  0.00     0.040 A 
ENDROOT
BRANCH   9  12
HETATM   12  O2  UNK     1      -2.622  -0.402   1.250  1.00  0.00    -0.275 OA
BRANCH  12  13
HETATM   13  C17 UNK     1      -2.552  -1.722   1.701  1.00  0.00     0.298 C 
HETATM   14  O4  UNK     1      -1.550  -2.421   1.702  1.00  0.00    -0.259 OA
BRANCH  13  15
HETATM   15  C15 UNK     1      -3.870  -2.188   2.203  1.00  0.00     0.039 A 
HETATM   16  C18 UNK     1      -3.904  -3.127   3.213  1.00  0.00     0.017 A 
HETATM   17  C20 UNK     1      -5.141  -3.565   3.685  1.00  0.00     0.001 A 
HETATM   18  C22 UNK     1      -6.317  -3.054   3.136  1.00  0.00     0.000 A 
HETATM   19  C21 UNK     1      -6.256  -2.105   2.115  1.00  0.00     0.001 A 
HETATM   20  C19 UNK     1      -5.018  -1.668   1.643  1.00  0.00     0.017 A 
ENDBRANCH  13  15
ENDBRANCH  12  13
ENDBRANCH   9  12
BRANCH   5  21
HETATM   21  C6  UNK     1       3.821   2.098  -2.283  1.00  0.00    -0.002 A 
HETATM   22  C11 UNK     1       4.038   2.631  -3.556  1.00  0.00     0.014 A 
HETATM   23  C13 UNK     1       5.272   3.197  -3.877  1.00  0.00     0.001 A 
HETATM   24  C16 UNK     1       6.292   3.233  -2.926  1.00  0.00     0.000 A 
HETATM   25  C14 UNK     1       6.078   2.702  -1.654  1.00  0.00     0.001 A 
HETATM   26  C12 UNK     1       4.844   2.135  -1.333  1.00  0.00     0.014 A 
ENDBRANCH   5  21
TORSDOF 4
