REMARK  7 active torsions:
REMARK  status: ('A' for Active; 'I' for Inactive)
REMARK    1  A    between atoms: C18_26  and  O3_4 
REMARK    2  A    between atoms: C23_31  and  O3_4 
REMARK    3  A    between atoms: C5_13  and  N1_6 
REMARK    4  A    between atoms: C6_14  and  N2_7 
REMARK    5  A    between atoms: C5_13  and  C7_15 
REMARK    6  A    between atoms: C6_14  and  C8_16 
REMARK    7  A    between atoms: C14_22  and  C20_28 
ROOT
HETATM    1  N1  UNK     1      -1.353  -1.384  -0.016  1.00  0.00     0.096 N 
HETATM    2  N2  UNK     1      -0.125   0.078  -2.187  1.00  0.00     0.097 N 
HETATM    3  C1  UNK     1      -0.026  -0.775   0.131  1.00  0.00     0.303 C 
HETATM    4  C2  UNK     1      -1.596  -1.752  -1.416  1.00  0.00     0.303 C 
HETATM    5  C3  UNK     1       0.119   0.445  -0.786  1.00  0.00     0.303 C 
HETATM    6  C4  UNK     1      -1.452  -0.532  -2.333  1.00  0.00     0.303 C 
ENDROOT
BRANCH   1   7
HETATM    7  C5  UNK     1      -1.489  -2.548   0.857  1.00  0.00     0.312 C 
BRANCH   7   8
HETATM    8  C7  UNK     1      -1.795  -2.163   2.263  1.00  0.00    -0.011 A 
HETATM    9  C11 UNK     1      -0.814  -1.943   3.150  1.00  0.00     0.092 A 
HETATM   10  C15 UNK     1      -1.067  -1.561   4.550  1.00  0.00     0.288 A 
HETATM   11  O2  UNK     1      -2.393  -1.433   4.930  1.00  0.00    -0.275 OA
HETATM   12  O4  UNK     1      -0.143  -1.367   5.333  1.00  0.00    -0.260 OA
HETATM   13  C12 UNK     1      -3.446  -1.659   4.021  1.00  0.00     0.090 A 
HETATM   14  C9  UNK     1      -3.191  -2.021   2.698  1.00  0.00     0.009 A 
HETATM   15  C17 UNK     1      -4.743  -1.503   4.515  1.00  0.00     0.041 A 
HETATM   16  C13 UNK     1      -4.293  -2.229   1.857  1.00  0.00     0.051 A 
HETATM   17  C18 UNK     1      -5.599  -2.077   2.338  1.00  0.00     0.069 A 
HETATM   18  C19 UNK     1      -5.823  -1.714   3.665  1.00  0.00     0.039 A 
BRANCH  17  19
HETATM   19  O3  UNK     1      -6.656  -2.284   1.505  1.00  0.00    -0.351 OA
BRANCH  19  20
HETATM   20  C23 UNK     1      -6.455  -2.003   0.121  1.00  0.00     0.171 C 
HETATM   21  C27 UNK     1      -7.773  -1.582  -0.494  1.00  0.00     0.034 C 
ENDBRANCH  19  20
ENDBRANCH  17  19
ENDBRANCH   7   8
ENDBRANCH   1   7
BRANCH   2  22
HETATM   22  C6  UNK     1       0.010   1.243  -3.059  1.00  0.00     0.334 C 
BRANCH  22  23
HETATM   23  C8  UNK     1       1.459   1.497  -3.322  1.00  0.00     0.095 A 
HETATM   24  C10 UNK     1       2.253   1.008  -4.329  1.00  0.00     0.078 A 
HETATM   25  O1  UNK     1       3.506   1.516  -4.159  1.00  0.00    -0.294 OA
HETATM   26  C16 UNK     1       2.045   0.112  -5.471  1.00  0.00     0.079 C 
HETATM   27  C14 UNK     1       3.387   2.290  -3.045  1.00  0.00     0.180 A 
HETATM   28  N3  UNK     1       2.191   2.318  -2.503  1.00  0.00    -0.224 NA
BRANCH  27  29
HETATM   29  C20 UNK     1       4.591   2.959  -2.635  1.00  0.00     0.017 A 
HETATM   30  C21 UNK     1       4.582   3.779  -1.506  1.00  0.00     0.017 A 
HETATM   31  C24 UNK     1       5.750   4.428  -1.107  1.00  0.00     0.025 A 
HETATM   32  C26 UNK     1       6.927   4.258  -1.837  1.00  0.00     0.034 A 
HETATM   33  C25 UNK     1       6.935   3.438  -2.966  1.00  0.00     0.025 A 
HETATM   34 Cl1  UNK     1       8.368   5.060  -1.346  1.00  0.00    -0.084 Cl
HETATM   35  C22 UNK     1       5.767   2.789  -3.364  1.00  0.00     0.017 A 
ENDBRANCH  27  29
ENDBRANCH  22  23
ENDBRANCH   2  22
TORSDOF 7
