REMARK  7 active torsions:
REMARK  status: ('A' for Active; 'I' for Inactive)
REMARK    1  A    between atoms: C12_19  and  O3_3 
REMARK    2  A    between atoms: C20_27  and  O3_3 
REMARK    3  A    between atoms: C23_30  and  O6_6 
REMARK    4  A    between atoms: C24_31  and  O6_6 
REMARK    5  A    between atoms: C1_8  and  C10_17 
REMARK    6  A    between atoms: C12_19  and  C6_13 
REMARK    7  A    between atoms: C20_27  and  C23_30 
ROOT
HETATM    1  O1  UNK     1       1.780  -0.567  -3.661  1.00  0.00    -0.293 OA
HETATM    2  N1  UNK     1       3.658   2.905  -1.041  1.00  0.00    -0.362 N 
HETATM    3  C1  UNK     1       2.088   0.541  -1.015  1.00  0.00     0.104 C 
HETATM    4  C2  UNK     1       2.613   1.186  -2.294  1.00  0.00     0.024 C 
HETATM    5  C3  UNK     1       3.337   2.325  -2.254  1.00  0.00     0.020 C 
HETATM    6  C4  UNK     1       3.837   3.031  -3.487  1.00  0.00     0.058 C 
HETATM    7  C5  UNK     1       3.051   2.640  -4.732  1.00  0.00     0.014 C 
HETATM    8  C6  UNK     1       2.640   1.202   0.250  1.00  0.00     0.052 C 
HETATM    9  C7  UNK     1       2.954   1.131  -4.858  1.00  0.00     0.084 C 
HETATM   10  C8  UNK     1       2.376   0.508  -3.607  1.00  0.00     0.158 C 
HETATM   11  C9  UNK     1       3.364   2.344   0.192  1.00  0.00     0.018 C 
HETATM   12  C13 UNK     1       3.907   3.097   1.376  1.00  0.00     0.069 C 
HETATM   13  H8  UNK     1       4.206   3.758  -1.054  1.00  0.00     0.165 HD
ENDROOT
BRANCH   3  14
HETATM   14  C10 UNK     1       0.583   0.565  -1.000  1.00  0.00     0.029 A 
HETATM   15  C11 UNK     1      -0.146  -0.728  -0.980  1.00  0.00     0.194 A 
HETATM   16  O4  UNK     1       0.437  -1.804  -0.976  1.00  0.00    -0.287 OA
HETATM   17  C15 UNK     1      -1.618  -0.648  -0.965  1.00  0.00     0.049 A 
HETATM   18  C16 UNK     1      -2.229   0.607  -0.970  1.00  0.00     0.089 A 
HETATM   19  C17 UNK     1      -2.395  -1.809  -0.945  1.00  0.00     0.025 A 
HETATM   20  O2  UNK     1      -1.516   1.779  -0.988  1.00  0.00    -0.321 OA
HETATM   21  C18 UNK     1      -3.621   0.706  -0.956  1.00  0.00     0.039 A 
HETATM   22  C14 UNK     1      -0.146   1.688  -1.003  1.00  0.00     0.154 A 
HETATM   23  C21 UNK     1      -4.399  -0.452  -0.936  1.00  0.00     0.009 A 
HETATM   24  C19 UNK     1      -3.787  -1.706  -0.931  1.00  0.00    -0.061 A 
HETATM   25  C22 UNK     1      -4.624  -2.941  -0.910  1.00  0.00     0.048 C 
ENDBRANCH   3  14
BRANCH   8  26
HETATM   26  C12 UNK     1       2.385   0.503   1.520  1.00  0.00     0.292 C 
HETATM   27  O5  UNK     1       3.118  -0.359   1.968  1.00  0.00    -0.259 OA
BRANCH  26  28
HETATM   28  O3  UNK     1       1.238   0.989   2.052  1.00  0.00    -0.316 OA
BRANCH  28  29
HETATM   29  C20 UNK     1       0.853   0.404   3.300  1.00  0.00     0.205 C 
BRANCH  29  30
HETATM   30  C23 UNK     1      -0.030  -0.800   3.031  1.00  0.00     0.202 C 
BRANCH  30  31
HETATM   31  O6  UNK     1      -1.195  -0.375   2.335  1.00  0.00    -0.349 OA
BRANCH  31  32
HETATM   32  C24 UNK     1      -2.334  -1.111   2.531  1.00  0.00     0.068 A 
HETATM   33  C25 UNK     1      -2.235  -2.469   2.812  1.00  0.00     0.037 A 
HETATM   34  C27 UNK     1      -3.395  -3.219   3.010  1.00  0.00     0.003 A 
HETATM   35  C29 UNK     1      -4.645  -2.606   2.927  1.00  0.00     0.000 A 
HETATM   36  C28 UNK     1      -4.735  -1.243   2.644  1.00  0.00     0.003 A 
HETATM   37  C26 UNK     1      -3.576  -0.493   2.446  1.00  0.00     0.037 A 
ENDBRANCH  31  32
ENDBRANCH  30  31
ENDBRANCH  29  30
ENDBRANCH  28  29
ENDBRANCH  26  28
ENDBRANCH   8  26
TORSDOF 7
