REMARK  2 active torsions:
REMARK  status: ('A' for Active; 'I' for Inactive)
REMARK    1  A    between atoms: C7_13  and  N1_5 
REMARK       I    between atoms: C8_14  and  N1_5 
REMARK    2  A    between atoms: C2_8  and  C8_14 
ROOT
HETATM    1  O2  UNK     1       0.399   0.907   1.519  1.00  0.00    -0.267 OA
HETATM    2  N1  UNK     1      -0.791  -0.257  -0.154  1.00  0.00    -0.301 N 
HETATM    3  C8  UNK     1       0.213   0.555   0.355  1.00  0.00     0.263 C 
HETATM    4  H3  UNK     1      -0.811  -0.483  -1.144  1.00  0.00     0.171 HD
ENDROOT
BRANCH   3   5
HETATM    5  C2  UNK     1       1.132   1.012  -0.694  1.00  0.00     0.108 A 
HETATM    6  C10 UNK     1       0.690   1.212  -2.093  1.00  0.00     0.304 A 
HETATM    7  O1  UNK     1       1.655   1.649  -2.997  1.00  0.00    -0.274 OA
HETATM    8  O3  UNK     1      -0.467   1.007  -2.442  1.00  0.00    -0.259 OA
HETATM    9  C3  UNK     1       2.986   1.889  -2.605  1.00  0.00     0.089 A 
HETATM   10  C1  UNK     1       3.381   1.693  -1.286  1.00  0.00    -0.001 A 
HETATM   11  C11 UNK     1       3.880   2.324  -3.582  1.00  0.00     0.038 A 
HETATM   12  C4  UNK     1       2.396   1.238  -0.317  1.00  0.00     0.037 A 
HETATM   13  C9  UNK     1       4.710   1.941  -0.936  1.00  0.00     0.014 A 
HETATM   14  C14 UNK     1       5.618   2.379  -1.905  1.00  0.00     0.001 A 
HETATM   15  C15 UNK     1       5.203   2.570  -3.225  1.00  0.00     0.003 A 
ENDBRANCH   3   5
BRANCH   2  16
HETATM   16  C7  UNK     1      -1.821  -0.852   0.580  1.00  0.00     0.174 A 
HETATM   17  S1  UNK     1      -2.902  -1.793  -0.330  1.00  0.00    -0.050 SA
HETATM   18  C5  UNK     1      -3.769  -2.136   1.120  1.00  0.00     0.037 A 
HETATM   19  C12 UNK     1      -4.920  -2.921   1.298  1.00  0.00     0.021 A 
HETATM   20  C6  UNK     1      -3.144  -1.489   2.190  1.00  0.00     0.076 A 
HETATM   21  C16 UNK     1      -5.441  -3.049   2.587  1.00  0.00     0.002 A 
HETATM   22  C17 UNK     1      -4.837  -2.414   3.667  1.00  0.00     0.002 A 
HETATM   23  C13 UNK     1      -3.692  -1.634   3.483  1.00  0.00     0.033 A 
HETATM   24  N2  UNK     1      -2.018  -0.751   1.857  1.00  0.00    -0.223 NA
ENDBRANCH   2  16
TORSDOF 2
