REMARK  3 active torsions:
REMARK  status: ('A' for Active; 'I' for Inactive)
REMARK    1  A    between atoms: C5_10  and  N1_4 
REMARK    2  A    between atoms: C5_10  and  N2_5 
REMARK    3  A    between atoms: C6_11  and  N2_5 
ROOT
HETATM    1  O1  UNK     1       1.249   0.777  -2.695  1.00  0.00    -0.275 OA
HETATM    2  O2  UNK     1       2.344   1.266  -4.642  1.00  0.00    -0.260 OA
HETATM    3  C6  UNK     1       0.034   0.254   0.724  1.00  0.00     0.036 A 
HETATM    4  C7  UNK     1       2.311   1.310  -0.561  1.00  0.00     0.004 A 
HETATM    5  C8  UNK     1       1.237   0.792  -1.286  1.00  0.00     0.092 A 
HETATM    6  C9  UNK     1       0.103   0.266  -0.665  1.00  0.00     0.067 A 
HETATM    7  C10 UNK     1       1.092   0.764   1.474  1.00  0.00     0.030 A 
HETATM    8  C11 UNK     1       2.222   1.289   0.838  1.00  0.00     0.017 A 
HETATM    9  C12 UNK     1       3.465   1.844  -1.297  1.00  0.00    -0.043 A 
HETATM   10  C13 UNK     1       3.449   1.817  -2.637  1.00  0.00     0.090 A 
HETATM   11  C14 UNK     1       4.636   2.408  -0.547  1.00  0.00     0.049 C 
HETATM   12  C15 UNK     1       2.323   1.274  -3.416  1.00  0.00     0.288 A 
ENDROOT
BRANCH   3  13
HETATM   13  N2  UNK     1      -1.090  -0.267   1.365  1.00  0.00    -0.333 N 
HETATM   14  H9  UNK     1      -0.918  -0.556   2.326  1.00  0.00     0.168 HD
BRANCH  13  15
HETATM   15  C5  UNK     1      -2.418  -0.349   0.980  1.00  0.00     0.174 C 
HETATM   16  S1  UNK     1      -3.075   0.780  -0.072  1.00  0.00    -0.041 SA
BRANCH  15  17
HETATM   17  N1  UNK     1      -3.168  -1.381   1.415  1.00  0.00    -0.358 N 
HETATM   18  C3  UNK     1      -2.675  -2.439   2.279  1.00  0.00     0.125 C 
HETATM   19  C1  UNK     1      -3.772  -3.493   2.239  1.00  0.00     0.021 C 
HETATM   20  C2  UNK     1      -5.035  -2.665   2.026  1.00  0.00     0.021 C 
HETATM   21  C4  UNK     1      -4.568  -1.569   1.078  1.00  0.00     0.125 C 
ENDBRANCH  15  17
ENDBRANCH  13  15
ENDBRANCH   3  13
TORSDOF 3
