REMARK  5 active torsions:
REMARK  status: ('A' for Active; 'I' for Inactive)
REMARK    1  A    between atoms: C12_18  and  O2_2 
REMARK    2  A    between atoms: C13_19  and  O2_2 
REMARK       I    between atoms: C6_12  and  N1_6 
REMARK    3  A    between atoms: C9_15  and  N1_6 
REMARK    4  A    between atoms: C2_8  and  C6_12 
REMARK    5  A    between atoms: C12_18  and  C9_15 
ROOT
HETATM    1  O1  UNK     1       0.959   0.956  -2.596  1.00  0.00    -0.274 OA
HETATM    2  O4  UNK     1      -1.060   0.129  -1.916  1.00  0.00    -0.259 OA
HETATM    3  C1  UNK     1       2.677   1.436  -0.944  1.00  0.00    -0.001 A 
HETATM    4  C2  UNK     1       0.538   0.558  -0.220  1.00  0.00     0.108 A 
HETATM    5  C3  UNK     1       2.252   1.410  -2.268  1.00  0.00     0.089 A 
HETATM    6  C4  UNK     1       1.765   0.987   0.097  1.00  0.00     0.037 A 
HETATM    7  C5  UNK     1       3.966   1.892  -0.659  1.00  0.00     0.014 A 
HETATM    8  C7  UNK     1       0.064   0.522  -1.622  1.00  0.00     0.304 A 
HETATM    9  C8  UNK     1       3.075   1.826  -3.312  1.00  0.00     0.038 A 
HETATM   10  C10 UNK     1       4.805   2.313  -1.696  1.00  0.00     0.001 A 
HETATM   11  C11 UNK     1       4.360   2.280  -3.019  1.00  0.00     0.003 A 
ENDROOT
BRANCH   4  12
HETATM   12  C6  UNK     1      -0.307   0.126   0.899  1.00  0.00     0.258 C 
HETATM   13  O3  UNK     1       0.188  -0.359   1.915  1.00  0.00    -0.267 OA
HETATM   14  N1  UNK     1      -1.655   0.327   0.664  1.00  0.00    -0.347 N 
HETATM   15  H6  UNK     1      -1.965   0.752  -0.205  1.00  0.00     0.163 HD
BRANCH  14  16
HETATM   16  C9  UNK     1      -2.683  -0.022   1.619  1.00  0.00     0.233 C 
BRANCH  16  17
HETATM   17  C12 UNK     1      -3.137  -1.439   1.382  1.00  0.00     0.276 C 
HETATM   18  O5  UNK     1      -2.706  -2.184   0.513  1.00  0.00    -0.263 OA
BRANCH  17  19
HETATM   19  O2  UNK     1      -4.104  -1.749   2.296  1.00  0.00    -0.321 OA
BRANCH  19  20
HETATM   20  C13 UNK     1      -4.641  -3.073   2.199  1.00  0.00     0.174 C 
HETATM   21  C14 UNK     1      -5.693  -3.258   3.272  1.00  0.00     0.034 C 
ENDBRANCH  19  20
ENDBRANCH  17  19
ENDBRANCH  16  17
ENDBRANCH  14  16
ENDBRANCH   4  12
TORSDOF 5
