REMARK  4 active torsions:
REMARK  status: ('A' for Active; 'I' for Inactive)
REMARK    1  A    between atoms: C2_4  and  N1_2 
REMARK       I    between atoms: C8_10  and  N1_2 
REMARK    2  A    between atoms: C4_6  and  C8_10 
REMARK    3  A    between atoms: C4_6  and  C9_11 
REMARK    4  A    between atoms: C12_14  and  C15_17 
ROOT
HETATM    1  C4  UNK     1       0.667   0.519  -1.386  1.00  0.00     0.043 C 
HETATM    2  C12 UNK     1       1.278   0.673  -2.579  1.00  0.00     0.029 C 
ENDROOT
BRANCH   1   3
HETATM    3  C8  UNK     1      -0.690  -0.148  -1.422  1.00  0.00     0.257 C 
HETATM    4  O1  UNK     1      -1.158  -0.542  -2.486  1.00  0.00    -0.267 OA
HETATM    5  N1  UNK     1      -1.294  -0.254  -0.164  1.00  0.00    -0.322 N 
HETATM    6  H1  UNK     1      -0.719  -0.024   0.637  1.00  0.00     0.169 HD
BRANCH   5   7
HETATM    7  C2  UNK     1      -2.538  -0.814   0.150  1.00  0.00     0.046 A 
HETATM    8  C1  UNK     1      -2.785  -1.420   1.392  1.00  0.00     0.001 A 
HETATM    9  C3  UNK     1      -4.063  -1.969   1.653  1.00  0.00    -0.024 A 
HETATM   10  C6  UNK     1      -1.792  -1.492   2.383  1.00  0.00     0.014 A 
HETATM   11  C10 UNK     1      -4.310  -2.575   2.896  1.00  0.00     0.012 A 
HETATM   12  C7  UNK     1      -5.057  -1.896   0.663  1.00  0.00     0.012 A 
HETATM   13  C14 UNK     1      -3.311  -2.639   3.868  1.00  0.00     0.001 A 
HETATM   14  C13 UNK     1      -2.054  -2.098   3.612  1.00  0.00     0.001 A 
HETATM   15  C11 UNK     1      -4.794  -1.291  -0.566  1.00  0.00     0.003 A 
HETATM   16  C5  UNK     1      -3.537  -0.750  -0.822  1.00  0.00     0.030 A 
ENDBRANCH   5   7
ENDBRANCH   1   3
BRANCH   1  17
HETATM   17  C9  UNK     1       1.260   0.996  -0.120  1.00  0.00    -0.021 A 
HETATM   18  C16 UNK     1       0.981   2.280   0.315  1.00  0.00     0.012 A 
HETATM   19  C20 UNK     1       1.541   2.730   1.510  1.00  0.00     0.001 A 
HETATM   20  C22 UNK     1       2.371   1.890   2.252  1.00  0.00     0.000 A 
HETATM   21  C21 UNK     1       2.641   0.599   1.798  1.00  0.00     0.001 A 
HETATM   22  C17 UNK     1       2.082   0.149   0.603  1.00  0.00     0.012 A 
ENDBRANCH   1  17
BRANCH   2  23
HETATM   23  C15 UNK     1       2.575   1.329  -2.808  1.00  0.00    -0.035 A 
HETATM   24  C18 UNK     1       2.613   2.688  -3.081  1.00  0.00     0.011 A 
HETATM   25  C23 UNK     1       3.842   3.310  -3.298  1.00  0.00     0.001 A 
HETATM   26  C25 UNK     1       5.020   2.565  -3.239  1.00  0.00     0.000 A 
HETATM   27  C24 UNK     1       4.968   1.198  -2.963  1.00  0.00     0.001 A 
HETATM   28  C19 UNK     1       3.739   0.577  -2.747  1.00  0.00     0.011 A 
ENDBRANCH   2  23
TORSDOF 4
