REMARK  4 active torsions:
REMARK  status: ('A' for Active; 'I' for Inactive)
REMARK    1  A    between atoms: C7_15  and  O2_2 
REMARK    2  A    between atoms: C3_11  and  N1_7 
REMARK       I    between atoms: C6_14  and  N1_7 
REMARK    3  A    between atoms: C11_19  and  N2_8 
REMARK    4  A    between atoms: C2_10  and  C6_14 
ROOT
HETATM    1  O3  UNK     1       0.361   0.617   1.547  1.00  0.00    -0.267 OA
HETATM    2  N1  UNK     1      -0.807  -0.319  -0.271  1.00  0.00    -0.320 N 
HETATM    3  C6  UNK     1       0.202   0.408   0.345  1.00  0.00     0.262 C 
HETATM    4  H2  UNK     1      -0.784  -0.420  -1.283  1.00  0.00     0.169 HD
ENDROOT
BRANCH   2   5
HETATM    5  C3  UNK     1      -1.890  -0.991   0.348  1.00  0.00     0.071 A 
HETATM    6  C7  UNK     1      -2.814  -1.675  -0.425  1.00  0.00     0.095 A 
HETATM    7  C13 UNK     1      -3.874  -2.331   0.199  1.00  0.00     0.041 A 
HETATM    8  C14 UNK     1      -3.997  -2.294   1.588  1.00  0.00     0.039 A 
HETATM    9  C11 UNK     1      -3.059  -1.601   2.353  1.00  0.00     0.105 A 
HETATM   10  C8  UNK     1      -1.998  -0.945   1.729  1.00  0.00     0.068 A 
BRANCH   6  11
HETATM   11  O2  UNK     1      -2.712  -1.724  -1.784  1.00  0.00    -0.354 OA
HETATM   12  C17 UNK     1      -3.369  -0.693  -2.519  1.00  0.00     0.210 C 
ENDBRANCH   6  11
BRANCH   9  13
HETATM   13  N2  UNK     1      -3.184  -1.564   3.767  1.00  0.00    -0.116 N 
HETATM   14  O5  UNK     1      -4.146  -2.160   4.308  1.00  0.00    -0.532 OA
HETATM   15  O6  UNK     1      -2.329  -0.935   4.437  1.00  0.00    -0.532 OA
ENDBRANCH   9  13
ENDBRANCH   2   5
BRANCH   3  16
HETATM   16  C2  UNK     1       1.156   0.962  -0.623  1.00  0.00     0.108 A 
HETATM   17  C10 UNK     1       0.753   1.331  -1.999  1.00  0.00     0.304 A 
HETATM   18  O1  UNK     1       1.748   1.847  -2.824  1.00  0.00    -0.274 OA
HETATM   19  O4  UNK     1      -0.399   1.192  -2.397  1.00  0.00    -0.259 OA
HETATM   20  C4  UNK     1       3.074   2.011  -2.377  1.00  0.00     0.089 A 
HETATM   21  C1  UNK     1       3.431   1.657  -1.080  1.00  0.00    -0.001 A 
HETATM   22  C12 UNK     1       4.000   2.536  -3.276  1.00  0.00     0.038 A 
HETATM   23  C5  UNK     1       2.413   1.115  -0.193  1.00  0.00     0.037 A 
HETATM   24  C9  UNK     1       4.756   1.835  -0.673  1.00  0.00     0.014 A 
HETATM   25  C15 UNK     1       5.696   2.360  -1.564  1.00  0.00     0.001 A 
HETATM   26  C16 UNK     1       5.319   2.710  -2.862  1.00  0.00     0.003 A 
ENDBRANCH   3  16
TORSDOF 4
