REMARK  2 active torsions:
REMARK  status: ('A' for Active; 'I' for Inactive)
REMARK    1  A    between atoms: C6_12  and  O1_2 
REMARK    2  A    between atoms: C8_14  and  O1_2 
ROOT
HETATM    1  O2  UNK     1      -3.604   0.147   1.330  1.00  0.00    -0.275 OA
HETATM    2  O3  UNK     1      -5.491   0.158   2.622  1.00  0.00    -0.260 OA
HETATM    3  C5  UNK     1      -2.381  -1.945   1.019  1.00  0.00     0.004 A 
HETATM    4  C7  UNK     1      -2.530  -0.579   0.776  1.00  0.00     0.092 A 
HETATM    5  C8  UNK     1      -0.556  -0.523  -0.594  1.00  0.00     0.080 A 
HETATM    6  C9  UNK     1      -3.371  -2.621   1.869  1.00  0.00    -0.043 A 
HETATM    7  C11 UNK     1      -1.636   0.139  -0.020  1.00  0.00     0.075 A 
HETATM    8  C12 UNK     1      -1.287  -2.594   0.432  1.00  0.00     0.017 A 
HETATM    9  C13 UNK     1      -0.382  -1.888  -0.369  1.00  0.00     0.038 A 
HETATM   10  C15 UNK     1      -4.382  -1.905   2.383  1.00  0.00     0.090 A 
HETATM   11  C16 UNK     1      -3.238  -4.089   2.150  1.00  0.00     0.049 C 
HETATM   12  C17 UNK     1      -4.553  -0.464   2.135  1.00  0.00     0.288 A 
ENDROOT
BRANCH   5  13
HETATM   13  O1  UNK     1       0.327   0.158  -1.373  1.00  0.00    -0.291 OA
BRANCH  13  14
HETATM   14  C6  UNK     1       1.425   0.730  -0.753  1.00  0.00     0.184 A 
HETATM   15  C1  UNK     1       2.384   1.446  -1.464  1.00  0.00     0.060 A 
HETATM   16  C2  UNK     1       2.536   1.779  -2.847  1.00  0.00    -0.032 A 
HETATM   17  C4  UNK     1       3.431   1.965  -0.713  1.00  0.00     0.114 A 
HETATM   18  C10 UNK     1       1.583   1.372  -3.911  1.00  0.00     0.050 C 
HETATM   19  C3  UNK     1       3.671   2.523  -3.089  1.00  0.00    -0.012 A 
HETATM   20  C14 UNK     1       4.175   3.056  -4.375  1.00  0.00     0.057 C 
HETATM   21  S1  UNK     1       4.558   2.826  -1.658  1.00  0.00    -0.074 SA
HETATM   22  N1  UNK     1       3.592   1.835   0.619  1.00  0.00    -0.234 NA
HETATM   23  C18 UNK     1       2.597   1.123   1.177  1.00  0.00     0.237 A 
HETATM   24  N2  UNK     1       1.528   0.565   0.578  1.00  0.00    -0.217 NA
ENDBRANCH  13  14
ENDBRANCH   5  13
TORSDOF 2
