REMARK  3 active torsions:
REMARK  status: ('A' for Active; 'I' for Inactive)
REMARK    1  A    between atoms: C9_13  and  O2_2 
REMARK    2  A    between atoms: C10_14  and  O3_3 
REMARK    3  A    between atoms: C3_7  and  C7_11 
ROOT
HETATM    1  O1  UNK     1       0.071  -0.557   0.236  1.00  0.00    -0.309 OA
HETATM    2  O4  UNK     1       0.988  -1.272   4.141  1.00  0.00    -0.287 OA
HETATM    3  C1  UNK     1       0.713  -2.142   1.961  1.00  0.00     0.051 A 
HETATM    4  C2  UNK     1       0.391  -1.828   0.642  1.00  0.00     0.093 A 
HETATM    5  C3  UNK     1       0.062   0.456   1.183  1.00  0.00     0.090 A 
HETATM    6  C4  UNK     1       0.712  -1.069   2.967  1.00  0.00     0.187 A 
HETATM    7  C5  UNK     1       1.031  -3.455   2.318  1.00  0.00     0.057 A 
HETATM    8  C6  UNK     1       0.385  -2.828  -0.331  1.00  0.00     0.077 A 
HETATM    9  C8  UNK     1       0.360   0.281   2.480  1.00  0.00     0.093 A 
HETATM   10  C9  UNK     1       0.703  -4.140   0.021  1.00  0.00     0.103 A 
HETATM   11  C10 UNK     1       1.025  -4.452   1.342  1.00  0.00     0.100 A 
ENDROOT
BRANCH   5  12
HETATM   12  C7  UNK     1      -0.288   1.783   0.638  1.00  0.00    -0.002 A 
HETATM   13  C11 UNK     1       0.249   2.939   1.210  1.00  0.00     0.014 A 
HETATM   14  C13 UNK     1      -0.081   4.193   0.696  1.00  0.00     0.001 A 
HETATM   15  C15 UNK     1      -0.950   4.295  -0.391  1.00  0.00     0.000 A 
HETATM   16  C14 UNK     1      -1.488   3.143  -0.964  1.00  0.00     0.001 A 
HETATM   17  C12 UNK     1      -1.157   1.889  -0.450  1.00  0.00     0.014 A 
ENDBRANCH   5  12
BRANCH  10  18
HETATM   18  O2  UNK     1       0.696  -5.109  -0.937  1.00  0.00    -0.353 OA
HETATM   19  C16 UNK     1       1.917  -5.339  -1.636  1.00  0.00     0.210 C 
ENDBRANCH  10  18
BRANCH  11  20
HETATM   20  O3  UNK     1       1.337  -5.732   1.693  1.00  0.00    -0.358 OA
HETATM   21  H9  UNK     1       1.533  -5.761   2.645  1.00  0.00     0.217 HD
ENDBRANCH  11  20
TORSDOF 3
