REMARK  1 active torsions:
REMARK  status: ('A' for Active; 'I' for Inactive)
REMARK    1  A    between atoms: C5_10  and  O2_4 
ROOT
HETATM    1 Cl1  UNK     1       4.202   2.408  -2.938  1.00  0.00    -0.084 Cl
HETATM    2  S1  UNK     1      -2.327  -2.611   0.731  1.00  0.00    -0.099 SA
HETATM    3  O1  UNK     1      -0.759  -0.053  -0.961  1.00  0.00    -0.305 OA
HETATM    4  O3  UNK     1       2.112   0.911   1.768  1.00  0.00    -0.284 OA
HETATM    5  C1  UNK     1       1.435   0.874  -0.492  1.00  0.00     0.052 A 
HETATM    6  C2  UNK     1       0.415   0.523  -1.374  1.00  0.00     0.090 A 
HETATM    7  C3  UNK     1      -0.930  -0.299   0.390  1.00  0.00     0.130 A 
HETATM    8  C4  UNK     1       1.252   0.621   0.946  1.00  0.00     0.220 A 
HETATM    9  C5  UNK     1      -0.031  -0.005   1.347  1.00  0.00     0.152 A 
HETATM   10  C6  UNK     1      -2.189  -0.901   0.702  1.00  0.00     0.041 A 
HETATM   11  C7  UNK     1       2.611   1.458  -0.970  1.00  0.00     0.042 A 
HETATM   12  C8  UNK     1       0.565   0.754  -2.741  1.00  0.00     0.040 A 
HETATM   13  C9  UNK     1       2.758   1.688  -2.338  1.00  0.00     0.035 A 
HETATM   14  C10 UNK     1       1.737   1.337  -3.223  1.00  0.00     0.026 A 
HETATM   15  C11 UNK     1      -3.391  -0.289   1.003  1.00  0.00     0.022 A 
HETATM   16  C12 UNK     1      -4.429  -1.231   1.259  1.00  0.00     0.008 A 
HETATM   17  C13 UNK     1      -3.987  -2.531   1.145  1.00  0.00     0.050 A 
ENDROOT
BRANCH   9  18
HETATM   18  O2  UNK     1      -0.248  -0.243   2.687  1.00  0.00    -0.355 OA
HETATM   19  H7  UNK     1       0.541   0.061   3.169  1.00  0.00     0.218 HD
ENDBRANCH   9  18
TORSDOF 1
