REMARK  9 active torsions:
REMARK  status: ('A' for Active; 'I' for Inactive)
REMARK    1  A    between atoms: C3_7  and  O1_1 
REMARK    2  A    between atoms: C5_9  and  O1_1 
REMARK    3  A    between atoms: C4_8  and  O2_2 
REMARK    4  A    between atoms: C7_11  and  O2_2 
REMARK    5  A    between atoms: C20_24  and  O3_3 
REMARK    6  A    between atoms: C6_10  and  O3_3 
REMARK    7  A    between atoms: C5_9  and  C7_11 
REMARK    8  A    between atoms: C17_21  and  C8_12 
REMARK    9  A    between atoms: C18_22  and  C19_23 
ROOT
HETATM    1  N1  UNK     1      -6.467  -2.834   3.020  1.00  0.00    -0.191 NA
HETATM    2  C17 UNK     1      -4.444  -1.425   0.609  1.00  0.00     0.035 C 
HETATM    3  C18 UNK     1      -4.314  -1.965   1.850  1.00  0.00     0.055 C 
HETATM    4  C27 UNK     1      -5.512  -2.443   2.490  1.00  0.00     0.100 C 
ENDROOT
BRANCH   3   5
HETATM    5  C19 UNK     1      -3.045  -2.089   2.550  1.00  0.00    -0.015 A 
HETATM    6  C21 UNK     1      -2.865  -1.464   3.784  1.00  0.00     0.013 A 
HETATM    7  C24 UNK     1      -1.647  -1.582   4.455  1.00  0.00     0.001 A 
HETATM    8  C26 UNK     1      -0.610  -2.326   3.892  1.00  0.00     0.000 A 
HETATM    9  C25 UNK     1      -0.790  -2.951   2.658  1.00  0.00     0.001 A 
HETATM   10  C22 UNK     1      -2.007  -2.833   1.987  1.00  0.00     0.013 A 
ENDBRANCH   3   5
BRANCH   2  11
HETATM   11  C8  UNK     1      -3.353  -0.862  -0.200  1.00  0.00    -0.032 A 
HETATM   12  C10 UNK     1      -2.618   0.222   0.278  1.00  0.00     0.051 A 
HETATM   13  C6  UNK     1      -1.583   0.756  -0.490  1.00  0.00     0.102 A 
HETATM   14  C3  UNK     1      -1.284   0.205  -1.736  1.00  0.00     0.102 A 
HETATM   15  C13 UNK     1      -2.019  -0.879  -2.214  1.00  0.00     0.040 A 
HETATM   16  C14 UNK     1      -3.054  -1.413  -1.446  1.00  0.00     0.014 A 
BRANCH  13  17
HETATM   17  O3  UNK     1      -0.871   1.815  -0.012  1.00  0.00    -0.349 OA
BRANCH  17  18
HETATM   18  C20 UNK     1      -0.176   1.626   1.219  1.00  0.00     0.171 C 
HETATM   19  C23 UNK     1       0.560   2.901   1.570  1.00  0.00     0.034 C 
ENDBRANCH  17  18
ENDBRANCH  13  17
BRANCH  14  20
HETATM   20  O1  UNK     1      -0.274   0.717  -2.494  1.00  0.00    -0.346 OA
BRANCH  20  21
HETATM   21  C5  UNK     1       0.410  -0.188  -3.359  1.00  0.00     0.202 C 
BRANCH  21  22
HETATM   22  C7  UNK     1       1.836   0.290  -3.547  1.00  0.00     0.202 C 
BRANCH  22  23
HETATM   23  O2  UNK     1       2.477   0.351  -2.278  1.00  0.00    -0.349 OA
BRANCH  23  24
HETATM   24  C4  UNK     1       3.473   1.281  -2.134  1.00  0.00     0.069 A 
HETATM   25  C12 UNK     1       3.717   1.853  -0.885  1.00  0.00     0.037 A 
HETATM   26  C11 UNK     1       4.732   2.798  -0.738  1.00  0.00     0.010 A 
HETATM   27  C2  UNK     1       5.503   3.171  -1.838  1.00  0.00    -0.056 A 
HETATM   28  C1  UNK     1       5.259   2.599  -3.087  1.00  0.00    -0.053 A 
HETATM   29  C16 UNK     1       6.584   4.185  -1.656  1.00  0.00     0.049 C 
HETATM   30  C9  UNK     1       4.243   1.654  -3.235  1.00  0.00     0.044 A 
HETATM   31  C15 UNK     1       6.071   2.983  -4.280  1.00  0.00     0.049 C 
ENDBRANCH  23  24
ENDBRANCH  22  23
ENDBRANCH  21  22
ENDBRANCH  20  21
ENDBRANCH  14  20
ENDBRANCH   2  11
TORSDOF 9
