REMARK  6 active torsions:
REMARK  status: ('A' for Active; 'I' for Inactive)
REMARK    1  A    between atoms: C1_7  and  O1_4 
REMARK    2  A    between atoms: C4_10  and  O1_4 
REMARK    3  A    between atoms: C3_9  and  O2_5 
REMARK    4  A    between atoms: C2_8  and  C9_15 
REMARK    5  A    between atoms: C4_10  and  C8_14 
REMARK    6  A    between atoms: C10_16  and  C11_17 
ROOT
HETATM    1  N1  UNK     1      -4.030   0.864   0.299  1.00  0.00    -0.191 NA
HETATM    2  C9  UNK     1      -1.614  -1.408   1.241  1.00  0.00     0.036 C 
HETATM    3  C10 UNK     1      -2.939  -1.193   1.455  1.00  0.00     0.055 C 
HETATM    4  C23 UNK     1      -3.534  -0.052   0.811  1.00  0.00     0.100 C 
ENDROOT
BRANCH   3   5
HETATM    5  C11 UNK     1      -3.774  -2.049   2.284  1.00  0.00    -0.014 A 
HETATM    6  C16 UNK     1      -5.131  -2.192   1.994  1.00  0.00     0.032 A 
HETATM    7  C19 UNK     1      -5.931  -3.013   2.789  1.00  0.00     0.011 A 
HETATM    8 Br3  UNK     1      -7.770  -3.207   2.397  1.00  0.00    -0.051 Br
HETATM    9  C21 UNK     1      -5.375  -3.690   3.873  1.00  0.00     0.019 A 
HETATM   10  C20 UNK     1      -4.018  -3.547   4.163  1.00  0.00     0.002 A 
HETATM   11  C17 UNK     1      -3.218  -2.727   3.368  1.00  0.00     0.013 A 
ENDBRANCH   3   5
BRANCH   2  12
HETATM   12  C2  UNK     1      -0.734  -0.576   0.408  1.00  0.00    -0.015 A 
HETATM   13  C5  UNK     1      -0.091   0.487   1.031  1.00  0.00     0.052 A 
HETATM   14  C3  UNK     1       0.755   1.310   0.288  1.00  0.00     0.102 A 
HETATM   15  C1  UNK     1       0.951   1.065  -1.071  1.00  0.00     0.103 A 
HETATM   16  C7  UNK     1       0.301  -0.005  -1.687  1.00  0.00     0.059 A 
HETATM   17  C6  UNK     1      -0.545  -0.828  -0.945  1.00  0.00     0.024 A 
HETATM   18 Br1  UNK     1      -1.399  -2.267  -1.845  1.00  0.00    -0.050 Br
BRANCH  14  19
HETATM   19  O2  UNK     1       1.384   2.352   0.901  1.00  0.00    -0.353 OA
HETATM   20  C22 UNK     1       2.665   2.090   1.471  1.00  0.00     0.210 C 
ENDBRANCH  14  19
BRANCH  15  21
HETATM   21  O1  UNK     1       1.775   1.862  -1.807  1.00  0.00    -0.344 OA
BRANCH  21  22
HETATM   22  C4  UNK     1       2.445   1.257  -2.911  1.00  0.00     0.214 C 
BRANCH  22  23
HETATM   23  C8  UNK     1       3.772   1.930  -3.107  1.00  0.00    -0.034 A 
HETATM   24  C12 UNK     1       3.866   3.037  -3.944  1.00  0.00     0.011 A 
HETATM   25  C14 UNK     1       5.099   3.664  -4.125  1.00  0.00     0.019 A 
HETATM   26  C18 UNK     1       6.230   3.180  -3.468  1.00  0.00     0.011 A 
HETATM   27 Br2  UNK     1       7.901   4.029  -3.712  1.00  0.00    -0.051 Br
HETATM   28  C15 UNK     1       6.128   2.069  -2.630  1.00  0.00     0.019 A 
HETATM   29  C13 UNK     1       4.895   1.443  -2.449  1.00  0.00     0.011 A 
ENDBRANCH  22  23
ENDBRANCH  21  22
ENDBRANCH  15  21
ENDBRANCH   2  12
TORSDOF 6
