REMARK  6 active torsions:
REMARK  status: ('A' for Active; 'I' for Inactive)
REMARK    1  A    between atoms: C12_21  and  O3_3 
REMARK    2  A    between atoms: C20_29  and  O3_3 
REMARK    3  A    between atoms: C15_24  and  O5_5 
REMARK    4  A    between atoms: C7_16  and  N1_7 
REMARK       I    between atoms: C22_31  and  N3_9 
REMARK    5  A    between atoms: C1_10  and  C3_12 
REMARK    6  A    between atoms: C20_29  and  C22_31 
ROOT
HETATM    1  O1  UNK     1       1.370   2.535  -0.112  1.00  0.00    -0.291 OA
HETATM    2  O2  UNK     1       2.547  -0.954  -2.098  1.00  0.00    -0.274 OA
HETATM    3  O4  UNK     1       2.239  -2.152  -0.183  1.00  0.00    -0.259 OA
HETATM    4  N2  UNK     1       0.749   1.575   4.568  1.00  0.00    -0.191 NA
HETATM    5  C1  UNK     1       1.278   0.075   1.366  1.00  0.00     0.109 C 
HETATM    6  C2  UNK     1       1.726   0.167  -0.080  1.00  0.00     0.066 A 
HETATM    7  C4  UNK     1       1.736   1.347  -0.719  1.00  0.00     0.104 A 
HETATM    8  C5  UNK     1       1.099   1.450   2.003  1.00  0.00     0.086 C 
HETATM    9  C6  UNK     1       2.137   1.444  -2.120  1.00  0.00     0.033 A 
HETATM   10  C7  UNK     1       1.142   2.582   1.262  1.00  0.00     0.159 C 
HETATM   11  C8  UNK     1       2.183  -1.072  -0.761  1.00  0.00     0.298 A 
HETATM   12  C10 UNK     1       2.529   0.280  -2.775  1.00  0.00     0.092 A 
HETATM   13  C13 UNK     1       2.145   2.643  -2.843  1.00  0.00     0.017 A 
HETATM   14  C16 UNK     1       2.922   0.279  -4.113  1.00  0.00     0.038 A 
HETATM   15  C17 UNK     1       0.906   1.519   3.420  1.00  0.00     0.100 C 
HETATM   16  C18 UNK     1       2.537   2.659  -4.185  1.00  0.00     0.001 A 
HETATM   17  C19 UNK     1       2.925   1.478  -4.819  1.00  0.00     0.003 A 
ENDROOT
BRANCH   5  18
HETATM   18  C3  UNK     1       0.004  -0.711   1.473  1.00  0.00    -0.041 A 
HETATM   19  C11 UNK     1      -0.015  -1.894   2.202  1.00  0.00     0.011 A 
HETATM   20  C14 UNK     1      -1.199  -2.625   2.301  1.00  0.00     0.040 A 
HETATM   21  C15 UNK     1      -2.356  -2.167   1.670  1.00  0.00     0.101 A 
HETATM   22  C12 UNK     1      -2.329  -0.979   0.941  1.00  0.00     0.103 A 
HETATM   23  C9  UNK     1      -1.145  -0.248   0.841  1.00  0.00     0.047 A 
BRANCH  21  24
HETATM   24  O5  UNK     1      -3.506  -2.890   1.773  1.00  0.00    -0.353 OA
HETATM   25  C21 UNK     1      -3.739  -3.883   0.777  1.00  0.00     0.210 C 
ENDBRANCH  21  24
BRANCH  22  26
HETATM   26  O3  UNK     1      -3.452  -0.522   0.320  1.00  0.00    -0.339 OA
BRANCH  26  27
HETATM   27  C20 UNK     1      -3.269   0.240  -0.872  1.00  0.00     0.278 C 
BRANCH  27  28
HETATM   28  C22 UNK     1      -4.456   0.042  -1.785  1.00  0.00     0.239 C 
HETATM   29  O6  UNK     1      -5.413  -0.677  -1.510  1.00  0.00    -0.271 OA
HETATM   30  N3  UNK     1      -4.343   0.760  -2.956  1.00  0.00    -0.368 N 
HETATM   31  H16 UNK     1      -5.070   0.722  -3.663  1.00  0.00     0.159 HD
HETATM   32  H17 UNK     1      -3.541   1.348  -3.156  1.00  0.00     0.159 HD
ENDBRANCH  27  28
ENDBRANCH  26  27
ENDBRANCH  22  26
ENDBRANCH   5  18
BRANCH  10  33
HETATM   33  N1  UNK     1       0.977   3.849   1.749  1.00  0.00    -0.379 N 
HETATM   34  H8  UNK     1       1.029   4.629   1.106  1.00  0.00     0.158 HD
HETATM   35  H9  UNK     1       0.804   4.011   2.733  1.00  0.00     0.158 HD
ENDBRANCH  10  33
TORSDOF 6
