REMARK  7 active torsions:
REMARK  status: ('A' for Active; 'I' for Inactive)
REMARK    1  A    between atoms: C10_16  and  O1_1 
REMARK    2  A    between atoms: C11_17  and  O1_1 
REMARK    3  A    between atoms: C18_24  and  O3_3 
REMARK    4  A    between atoms: C20_26  and  O3_3 
REMARK    5  A    between atoms: C21_27  and  N1_6 
REMARK       I    between atoms: C22_28  and  N1_6 
REMARK    6  A    between atoms: C1_7  and  C2_8 
REMARK    7  A    between atoms: C20_26  and  C22_28 
ROOT
HETATM    1  O2  UNK     1      -1.203  -1.092  -1.586  1.00  0.00    -0.319 OA
HETATM    2  O4  UNK     1      -3.238   0.464   1.593  1.00  0.00    -0.284 OA
HETATM    3  C11 UNK     1      -3.264  -0.908  -0.336  1.00  0.00     0.149 A 
HETATM    4  C12 UNK     1      -1.203   0.311   0.400  1.00  0.00     0.051 A 
HETATM    5  C13 UNK     1      -2.624   0.000   0.643  1.00  0.00     0.220 A 
HETATM    6  C14 UNK     1      -0.564  -0.253  -0.707  1.00  0.00     0.092 A 
HETATM    7  C15 UNK     1      -2.527  -1.373  -1.348  1.00  0.00     0.184 A 
HETATM    8  C16 UNK     1      -0.502   1.159   1.261  1.00  0.00     0.021 A 
HETATM    9  C17 UNK     1       0.779   0.028  -0.956  1.00  0.00     0.075 A 
HETATM   10  C18 UNK     1       1.481   0.874  -0.097  1.00  0.00     0.072 A 
HETATM   11  C19 UNK     1       0.842   1.438   1.009  1.00  0.00     0.038 A 
ENDROOT
BRANCH  10  12
HETATM   12  O3  UNK     1       2.792   1.150  -0.336  1.00  0.00    -0.342 OA
BRANCH  12  13
HETATM   13  C20 UNK     1       3.219   1.141  -1.697  1.00  0.00     0.278 C 
BRANCH  13  14
HETATM   14  C22 UNK     1       4.370   2.112  -1.855  1.00  0.00     0.246 C 
HETATM   15  O5  UNK     1       4.784   2.749  -0.891  1.00  0.00    -0.271 OA
HETATM   16  N1  UNK     1       4.836   2.143  -3.163  1.00  0.00    -0.325 N 
HETATM   17  H20 UNK     1       4.372   1.539  -3.838  1.00  0.00     0.169 HD
BRANCH  16  18
HETATM   18  C21 UNK     1       5.893   2.927  -3.682  1.00  0.00     0.034 A 
HETATM   19  C24 UNK     1       6.217   2.824  -5.025  1.00  0.00     0.030 A 
HETATM   20  C26 UNK     1       7.260   3.596  -5.537  1.00  0.00     0.009 A 
HETATM   21  C23 UNK     1       7.963   4.461  -4.699  1.00  0.00    -0.062 A 
HETATM   22  C28 UNK     1       9.078   5.287  -5.247  1.00  0.00     0.048 C 
HETATM   23  C27 UNK     1       7.625   4.554  -3.349  1.00  0.00     0.009 A 
HETATM   24  C25 UNK     1       6.582   3.781  -2.837  1.00  0.00     0.030 A 
ENDBRANCH  16  18
ENDBRANCH  13  14
ENDBRANCH  12  13
ENDBRANCH  10  12
BRANCH   3  25
HETATM   25  O1  UNK     1      -4.587  -1.247  -0.180  1.00  0.00    -0.305 OA
BRANCH  25  26
HETATM   26  C10 UNK     1      -4.934  -1.886   0.978  1.00  0.00     0.076 A 
HETATM   27  C8  UNK     1      -4.147  -2.932   1.452  1.00  0.00     0.038 A 
HETATM   28  C6  UNK     1      -4.500  -3.584   2.633  1.00  0.00     0.011 A 
HETATM   29  C2  UNK     1      -5.639  -3.188   3.335  1.00  0.00    -0.050 A 
HETATM   30  C7  UNK     1      -6.425  -2.140   2.855  1.00  0.00     0.011 A 
HETATM   31  C9  UNK     1      -6.071  -1.487   1.673  1.00  0.00     0.038 A 
BRANCH  29  32
HETATM   32  C1  UNK     1      -6.018  -3.885   4.597  1.00  0.00    -0.024 C 
HETATM   33  C3  UNK     1      -5.062  -5.043   5.037  1.00  0.00     0.019 C 
HETATM   34  C4  UNK     1      -7.432  -4.535   4.483  1.00  0.00     0.019 C 
HETATM   35  C5  UNK     1      -6.052  -2.895   5.803  1.00  0.00     0.019 C 
ENDBRANCH  29  32
ENDBRANCH  25  26
ENDBRANCH   3  25
TORSDOF 7
