REMARK  1 active torsions:
REMARK  status: ('A' for Active; 'I' for Inactive)
REMARK    1  A    between atoms: C5_9  and  O2_3 
ROOT
HETATM    1 Cl1  UNK     1       1.484   1.411  -3.494  1.00  0.00    -0.081 Cl
HETATM    2  O1  UNK     1      -2.071  -0.851  -0.669  1.00  0.00    -0.275 OA
HETATM    3  O3  UNK     1      -3.731  -1.893   0.510  1.00  0.00    -0.260 OA
HETATM    4  C1  UNK     1      -0.173   0.107   0.532  1.00  0.00     0.007 A 
HETATM    5  C2  UNK     1      -0.774  -0.347   1.794  1.00  0.00    -0.043 A 
HETATM    6  C3  UNK     1      -0.843  -0.160  -0.662  1.00  0.00     0.092 A 
HETATM    7  C4  UNK     1       1.043   0.799   0.455  1.00  0.00     0.053 A 
HETATM    8  C5  UNK     1       1.558   1.203  -0.783  1.00  0.00     0.090 A 
HETATM    9  C6  UNK     1      -0.342   0.236  -1.903  1.00  0.00     0.065 A 
HETATM   10  C7  UNK     1      -1.943  -1.002   1.757  1.00  0.00     0.090 A 
HETATM   11  C8  UNK     1       0.867   0.922  -1.959  1.00  0.00     0.070 A 
HETATM   12  C9  UNK     1      -0.079  -0.074   3.096  1.00  0.00     0.049 C 
HETATM   13  C10 UNK     1      -2.662  -1.292   0.505  1.00  0.00     0.288 A 
ENDROOT
BRANCH   8  14
HETATM   14  O2  UNK     1       2.746   1.874  -0.806  1.00  0.00    -0.354 OA
HETATM   15  C11 UNK     1       3.918   1.077  -0.919  1.00  0.00     0.210 C 
ENDBRANCH   8  14
TORSDOF 1
