REMARK  5 active torsions:
REMARK  status: ('A' for Active; 'I' for Inactive)
REMARK    1  A    between atoms: C16_21  and  O2_2 
REMARK    2  A    between atoms: C6_11  and  O2_2 
REMARK    3  A    between atoms: C12_17  and  O3_3 
REMARK    4  A    between atoms: C14_19  and  O4_4 
REMARK    5  A    between atoms: C2_7  and  C4_9 
ROOT
HETATM    1  O1  UNK     1       2.005   1.083  -0.042  1.00  0.00    -0.271 OA
HETATM    2  O5  UNK     1       0.923   0.630   1.911  1.00  0.00    -0.259 OA
HETATM    3  C1  UNK     1       1.117   0.266  -2.145  1.00  0.00     0.002 A 
HETATM    4  C2  UNK     1      -0.098  -0.200  -0.079  1.00  0.00     0.051 A 
HETATM    5  C3  UNK     1       2.094   0.956  -1.440  1.00  0.00     0.123 A 
HETATM    6  C5  UNK     1       0.003  -0.312  -1.414  1.00  0.00     0.032 A 
HETATM    7  C6  UNK     1       3.188   1.538  -2.078  1.00  0.00     0.103 A 
HETATM    8  C7  UNK     1       0.958   0.526   0.689  1.00  0.00     0.299 A 
HETATM    9  C8  UNK     1       1.238   0.157  -3.533  1.00  0.00     0.014 A 
HETATM   10  C11 UNK     1       3.302   1.425  -3.461  1.00  0.00     0.040 A 
HETATM   11  C13 UNK     1       2.329   0.735  -4.188  1.00  0.00     0.004 A 
ENDROOT
BRANCH   4  12
HETATM   12  C4  UNK     1      -1.204  -0.768   0.651  1.00  0.00    -0.017 A 
HETATM   13  C10 UNK     1      -0.970  -1.727   1.636  1.00  0.00     0.015 A 
HETATM   14  C15 UNK     1      -2.040  -2.276   2.343  1.00  0.00     0.040 A 
HETATM   15  C14 UNK     1      -3.343  -1.866   2.064  1.00  0.00     0.101 A 
HETATM   16  C12 UNK     1      -3.577  -0.907   1.079  1.00  0.00     0.102 A 
HETATM   17  C9  UNK     1      -2.508  -0.358   0.372  1.00  0.00     0.052 A 
BRANCH  15  18
HETATM   18  O4  UNK     1      -4.380  -2.410   2.761  1.00  0.00    -0.353 OA
HETATM   19  C19 UNK     1      -4.055  -3.384   3.751  1.00  0.00     0.210 C 
ENDBRANCH  15  18
BRANCH  16  20
HETATM   20  O3  UNK     1      -4.846  -0.498   0.798  1.00  0.00    -0.353 OA
HETATM   21  C18 UNK     1      -4.999   0.486  -0.223  1.00  0.00     0.210 C 
ENDBRANCH  16  20
ENDBRANCH   4  12
BRANCH   7  22
HETATM   22  O2  UNK     1       4.138   2.210  -1.373  1.00  0.00    -0.349 OA
BRANCH  22  23
HETATM   23  C16 UNK     1       4.338   3.585  -1.699  1.00  0.00     0.171 C 
HETATM   24  C17 UNK     1       4.785   4.326  -0.456  1.00  0.00     0.034 C 
ENDBRANCH  22  23
ENDBRANCH   7  22
TORSDOF 5
