REMARK  2 active torsions:
REMARK  status: ('A' for Active; 'I' for Inactive)
REMARK    1  A    between atoms: C8_14  and  N1_5 
REMARK    2  A    between atoms: C1_7  and  C4_10 
ROOT
HETATM    1  O1  UNK     1       1.394   1.098   1.181  1.00  0.00    -0.291 OA
HETATM    2  O2  UNK     1       1.098   0.005  -2.847  1.00  0.00    -0.274 OA
HETATM    3  O3  UNK     1      -0.447  -1.582  -2.306  1.00  0.00    -0.259 OA
HETATM    4  N2  UNK     1      -1.216  -1.941   3.856  1.00  0.00    -0.191 NA
HETATM    5  C1  UNK     1      -0.516  -0.934   0.498  1.00  0.00     0.112 C 
HETATM    6  C2  UNK     1       0.377  -0.248  -0.519  1.00  0.00     0.066 A 
HETATM    7  C3  UNK     1       1.243   0.703  -0.136  1.00  0.00     0.104 A 
HETATM    8  C5  UNK     1      -0.129  -0.586   1.933  1.00  0.00     0.086 C 
HETATM    9  C6  UNK     1       2.086   1.392  -1.109  1.00  0.00     0.033 A 
HETATM   10  C7  UNK     1       0.294  -0.676  -1.939  1.00  0.00     0.298 A 
HETATM   11  C8  UNK     1       0.770   0.387   2.205  1.00  0.00     0.159 C 
HETATM   12  C9  UNK     1       1.984   1.024  -2.447  1.00  0.00     0.092 A 
HETATM   13  C12 UNK     1       2.990   2.407  -0.771  1.00  0.00     0.017 A 
HETATM   14  C13 UNK     1       2.747   1.631  -3.444  1.00  0.00     0.038 A 
HETATM   15  C16 UNK     1       3.762   3.026  -1.759  1.00  0.00     0.001 A 
HETATM   16  C17 UNK     1      -0.730  -1.335   2.995  1.00  0.00     0.100 C 
HETATM   17  C18 UNK     1       3.641   2.639  -3.094  1.00  0.00     0.003 A 
ENDROOT
BRANCH   5  18
HETATM   18  C4  UNK     1      -1.955  -0.586   0.253  1.00  0.00    -0.005 A 
HETATM   19  C10 UNK     1      -2.863  -1.589  -0.068  1.00  0.00     0.123 A 
HETATM   20  C14 UNK     1      -4.200  -1.262  -0.295  1.00  0.00     0.043 A 
HETATM   21  F1  UNK     1      -2.469  -2.866  -0.163  1.00  0.00    -0.206 F 
HETATM   22  C19 UNK     1      -4.620   0.065  -0.200  1.00  0.00     0.003 A 
HETATM   23  C15 UNK     1      -3.703   1.065   0.122  1.00  0.00     0.001 A 
HETATM   24  C11 UNK     1      -2.366   0.738   0.350  1.00  0.00     0.011 A 
ENDBRANCH   5  18
BRANCH  11  25
HETATM   25  N1  UNK     1       1.160   0.772   3.458  1.00  0.00    -0.379 N 
HETATM   26  H10 UNK     1       0.775   0.329   4.282  1.00  0.00     0.158 HD
HETATM   27  H9  UNK     1       1.843   1.513   3.550  1.00  0.00     0.158 HD
ENDBRANCH  11  25
TORSDOF 2
