REMARK  1 active torsions:
REMARK  status: ('A' for Active; 'I' for Inactive)
REMARK    1  A    between atoms: C6_9  and  O2_2 
ROOT
HETATM    1  O1  UNK     1      -1.376  -0.370  -1.102  1.00  0.00    -0.274 OA
HETATM    2  O3  UNK     1      -3.387  -1.361  -0.650  1.00  0.00    -0.260 OA
HETATM    3  C1  UNK     1       0.150   0.131   0.739  1.00  0.00     0.005 A 
HETATM    4  C2  UNK     1      -0.155   0.145  -0.623  1.00  0.00     0.099 A 
HETATM    5  C3  UNK     1       0.722   0.664  -1.577  1.00  0.00     0.006 A 
HETATM    6  C4  UNK     1      -0.832  -0.436   1.674  1.00  0.00    -0.043 A 
HETATM    7  C5  UNK     1       1.385   0.662   1.135  1.00  0.00     0.017 A 
HETATM    8  C6  UNK     1       1.943   1.187  -1.164  1.00  0.00     0.074 A 
HETATM    9  C7  UNK     1       2.274   1.186   0.190  1.00  0.00     0.038 A 
HETATM   10  C8  UNK     1      -1.985  -0.919   1.190  1.00  0.00     0.090 A 
HETATM   11  C9  UNK     1       0.359   0.661  -3.026  1.00  0.00     0.054 C 
HETATM   12  C10 UNK     1      -0.535  -0.466   3.145  1.00  0.00     0.049 C 
HETATM   13  C11 UNK     1      -2.321  -0.911  -0.244  1.00  0.00     0.288 A 
ENDROOT
BRANCH   8  14
HETATM   14  O2  UNK     1       2.825   1.701  -2.065  1.00  0.00    -0.360 OA
HETATM   15  H10 UNK     1       3.615   2.015  -1.593  1.00  0.00     0.217 HD
ENDBRANCH   8  14
TORSDOF 1
