REMARK  3 active torsions:
REMARK  status: ('A' for Active; 'I' for Inactive)
REMARK    1  A    between atoms: C5_9  and  O2_2 
REMARK    2  A    between atoms: C9_13  and  O3_3 
REMARK    3  A    between atoms: C1_5  and  C2_6 
ROOT
HETATM    1  O1  UNK     1       1.109  -1.693   1.590  1.00  0.00    -0.309 OA
HETATM    2  O4  UNK     1       0.107  -3.911  -1.678  1.00  0.00    -0.287 OA
HETATM    3  C2  UNK     1       0.720  -1.100   0.399  1.00  0.00     0.093 A 
HETATM    4  C3  UNK     1       0.810  -3.881   0.578  1.00  0.00     0.048 A 
HETATM    5  C4  UNK     1       1.142  -3.063   1.657  1.00  0.00     0.090 A 
HETATM    6  C6  UNK     1       0.384  -1.778  -0.709  1.00  0.00     0.094 A 
HETATM    7  C7  UNK     1       0.407  -3.255  -0.690  1.00  0.00     0.187 A 
HETATM    8  C10 UNK     1       0.863  -5.272   0.704  1.00  0.00     0.018 A 
HETATM    9  C11 UNK     1       1.530  -3.632   2.870  1.00  0.00     0.038 A 
HETATM   10  C14 UNK     1       1.251  -5.838   1.918  1.00  0.00     0.001 A 
HETATM   11  C15 UNK     1       1.584  -5.021   2.999  1.00  0.00     0.003 A 
ENDROOT
BRANCH   3  12
HETATM   12  C1  UNK     1       0.724   0.377   0.435  1.00  0.00     0.034 A 
HETATM   13  C5  UNK     1      -0.416   1.099   0.803  1.00  0.00     0.114 A 
HETATM   14  C9  UNK     1      -0.386   2.493   0.830  1.00  0.00     0.102 A 
HETATM   15  C13 UNK     1       0.784   3.172   0.489  1.00  0.00     0.040 A 
HETATM   16  C12 UNK     1       1.924   2.457   0.122  1.00  0.00     0.004 A 
HETATM   17  C8  UNK     1       1.894   1.063   0.095  1.00  0.00     0.017 A 
BRANCH  13  18
HETATM   18  O2  UNK     1      -1.567   0.448   1.139  1.00  0.00    -0.352 OA
HETATM   19  C16 UNK     1      -2.720   0.725   0.349  1.00  0.00     0.210 C 
ENDBRANCH  13  18
BRANCH  14  20
HETATM   20  O3  UNK     1      -1.491   3.205   1.187  1.00  0.00    -0.353 OA
HETATM   21  C17 UNK     1      -1.644   3.512   2.571  1.00  0.00     0.210 C 
ENDBRANCH  14  20
ENDBRANCH   3  12
TORSDOF 3
