REMARK  10 active torsions:
REMARK  status: ('A' for Active; 'I' for Inactive)
REMARK    1  A    between atoms: C7_17  and  O1_1 
REMARK    2  A    between atoms: C8_18  and  O1_1 
REMARK    3  A    between atoms: C12_22  and  O2_2 
REMARK    4  A    between atoms: C5_15  and  O2_2 
REMARK    5  A    between atoms: C2_12  and  N1_9 
REMARK       I    between atoms: C8_18  and  N1_9 
REMARK    6  A    between atoms: C26_36  and  N2_10 
REMARK    7  A    between atoms: C1_11  and  C2_12 
REMARK    8  A    between atoms: C1_11  and  C3_13 
REMARK    9  A    between atoms: C2_12  and  C5_15 
REMARK   10  A    between atoms: C19_29  and  C20_30 
ROOT
HETATM    1  O5  UNK     1       1.863   0.792   0.180  1.00  0.00    -0.321 OA
HETATM    2  O6  UNK     1       1.063   2.072  -3.611  1.00  0.00    -0.286 OA
HETATM    3  C12 UNK     1      -1.628  -0.224  -0.056  1.00  0.00     0.082 A 
HETATM    4  C13 UNK     1       0.281   1.044  -1.643  1.00  0.00     0.049 A 
HETATM    5  C14 UNK     1      -0.340  -0.018   0.438  1.00  0.00     0.075 A 
HETATM    6  C15 UNK     1       0.614   0.618  -0.358  1.00  0.00     0.091 A 
HETATM    7  C16 UNK     1      -1.962   0.204  -1.341  1.00  0.00     0.038 A 
HETATM    8  C17 UNK     1      -1.009   0.838  -2.139  1.00  0.00     0.021 A 
HETATM    9  C18 UNK     1       1.306   1.709  -2.467  1.00  0.00     0.197 A 
HETATM   10  C19 UNK     1       2.643   1.896  -1.838  1.00  0.00     0.048 A 
HETATM   11  C21 UNK     1       2.805   1.432  -0.590  1.00  0.00     0.159 A 
ENDROOT
BRANCH   3  12
HETATM   12  O2  UNK     1      -2.586  -0.858   0.739  1.00  0.00    -0.277 OA
BRANCH  12  13
HETATM   13  C5  UNK     1      -2.602  -2.239   0.581  1.00  0.00     0.287 C 
HETATM   14  O3  UNK     1      -1.874  -2.883  -0.168  1.00  0.00    -0.262 OA
BRANCH  13  15
HETATM   15  C2  UNK     1      -3.662  -2.889   1.466  1.00  0.00     0.190 C 
BRANCH  15  16
HETATM   16  C1  UNK     1      -4.694  -3.672   0.618  1.00  0.00     0.014 C 
HETATM   17  C4  UNK     1      -5.384  -2.776  -0.419  1.00  0.00     0.012 C 
BRANCH  16  18
HETATM   18  C3  UNK     1      -5.717  -4.381   1.531  1.00  0.00     0.002 C 
HETATM   19  C6  UNK     1      -6.688  -5.279   0.776  1.00  0.00     0.005 C 
ENDBRANCH  16  18
ENDBRANCH  15  16
BRANCH  15  20
HETATM   20  N1  UNK     1      -4.286  -1.930   2.343  1.00  0.00    -0.323 N 
HETATM   21  C8  UNK     1      -3.762  -1.547   3.562  1.00  0.00     0.362 C 
HETATM   22  O4  UNK     1      -2.716  -1.962   4.052  1.00  0.00    -0.238 OA
HETATM   23  H8  UNK     1      -5.132  -1.461   2.033  1.00  0.00     0.165 HD
BRANCH  21  24
HETATM   24  O1  UNK     1      -4.583  -0.628   4.151  1.00  0.00    -0.294 OA
BRANCH  24  25
HETATM   25  C7  UNK     1      -4.160  -0.140   5.429  1.00  0.00     0.061 C 
HETATM   26  C10 UNK     1      -5.201   0.870   5.904  1.00  0.00     0.046 C 
HETATM   27  C11 UNK     1      -2.796   0.530   5.266  1.00  0.00     0.046 C 
HETATM   28  C9  UNK     1      -4.075  -1.320   6.396  1.00  0.00     0.046 C 
ENDBRANCH  24  25
ENDBRANCH  21  24
ENDBRANCH  15  20
ENDBRANCH  13  15
ENDBRANCH  12  13
ENDBRANCH   3  12
BRANCH  10  29
HETATM   29  C20 UNK     1       3.744   2.579  -2.537  1.00  0.00    -0.020 A 
HETATM   30  C22 UNK     1       4.945   1.909  -2.768  1.00  0.00     0.015 A 
HETATM   31  C24 UNK     1       5.988   2.555  -3.431  1.00  0.00     0.037 A 
HETATM   32  C26 UNK     1       5.830   3.872  -3.863  1.00  0.00     0.102 A 
HETATM   33  C25 UNK     1       4.629   4.543  -3.632  1.00  0.00     0.037 A 
HETATM   34  C23 UNK     1       3.586   3.896  -2.969  1.00  0.00     0.015 A 
BRANCH  32  35
HETATM   35  N2  UNK     1       6.891   4.531  -4.538  1.00  0.00    -0.116 N 
HETATM   36  O7  UNK     1       7.963   3.910  -4.737  1.00  0.00    -0.532 OA
HETATM   37  O8  UNK     1       6.727   5.716  -4.919  1.00  0.00    -0.532 OA
ENDBRANCH  32  35
ENDBRANCH  10  29
TORSDOF 10
