REMARK  4 active torsions:
REMARK  status: ('A' for Active; 'I' for Inactive)
REMARK    1  A    between atoms: C18_25  and  N1_6 
REMARK    2  A    between atoms: C6_13  and  N1_6 
REMARK    3  A    between atoms: C18_25  and  N2_7 
REMARK    4  A    between atoms: C8_15  and  N2_7 
ROOT
HETATM    1  N2  UNK     1      -0.629   0.267  -3.078  1.00  0.00    -0.333 N 
HETATM    2  H12 UNK     1      -0.784   0.133  -4.075  1.00  0.00     0.168 HD
ENDROOT
BRANCH   1   3
HETATM    3  C18 UNK     1      -1.683  -0.214  -2.288  1.00  0.00     0.176 C 
HETATM    4  S1  UNK     1      -3.058  -0.771  -3.089  1.00  0.00    -0.041 SA
BRANCH   3   5
HETATM    5  N1  UNK     1      -1.433  -0.287  -0.930  1.00  0.00    -0.333 N 
HETATM    6  H11 UNK     1      -0.450  -0.402  -0.705  1.00  0.00     0.168 HD
BRANCH   5   7
HETATM    7  C6  UNK     1      -2.241  -0.712   0.134  1.00  0.00     0.037 A 
HETATM    8  C10 UNK     1      -1.678  -1.411   1.202  1.00  0.00     0.069 A 
HETATM    9  C2  UNK     1      -2.484  -1.824   2.263  1.00  0.00     0.104 A 
HETATM   10  O1  UNK     1      -1.869  -2.488   3.293  1.00  0.00    -0.346 OA
HETATM   11  C3  UNK     1      -3.856  -1.565   2.242  1.00  0.00     0.102 A 
HETATM   12  C7  UNK     1      -2.698  -2.553   4.456  1.00  0.00     0.202 C 
HETATM   13  C9  UNK     1      -4.106  -2.966   4.075  1.00  0.00     0.202 C 
HETATM   14  O2  UNK     1      -4.705  -1.973   3.238  1.00  0.00    -0.346 OA
HETATM   15  C13 UNK     1      -4.417  -0.854   1.180  1.00  0.00     0.042 A 
HETATM   16  C15 UNK     1      -3.608  -0.430   0.126  1.00  0.00     0.032 A 
ENDBRANCH   5   7
ENDBRANCH   3   5
ENDBRANCH   1   3
BRANCH   1  17
HETATM   17  C8  UNK     1       0.657   0.697  -2.753  1.00  0.00     0.036 A 
HETATM   18  C11 UNK     1       0.917   1.240  -1.499  1.00  0.00     0.067 A 
HETATM   19  C4  UNK     1       2.212   1.663  -1.195  1.00  0.00     0.092 A 
HETATM   20  C1  UNK     1       3.263   1.563  -2.108  1.00  0.00     0.004 A 
HETATM   21  O3  UNK     1       2.413   2.203   0.091  1.00  0.00    -0.275 OA
HETATM   22  C5  UNK     1       4.594   2.034  -1.704  1.00  0.00    -0.043 A 
HETATM   23  C12 UNK     1       2.980   1.014  -3.366  1.00  0.00     0.017 A 
HETATM   24  C16 UNK     1       4.756   2.543  -0.474  1.00  0.00     0.090 A 
HETATM   25  C17 UNK     1       5.745   1.940  -2.663  1.00  0.00     0.049 C 
HETATM   26  C19 UNK     1       3.658   2.655   0.500  1.00  0.00     0.288 A 
HETATM   27  O4  UNK     1       3.844   3.127   1.617  1.00  0.00    -0.260 OA
HETATM   28  C14 UNK     1       1.687   0.585  -3.686  1.00  0.00     0.030 A 
ENDBRANCH   1  17
TORSDOF 4
