REMARK  2 active torsions:
REMARK  status: ('A' for Active; 'I' for Inactive)
REMARK    1  A    between atoms: C13_18  and  O3_4 
REMARK    2  A    between atoms: C1_6  and  C3_8 
ROOT
HETATM    1  O2  UNK     1       1.524   1.285  -3.209  1.00  0.00    -0.275 OA
HETATM    2  O4  UNK     1      -0.110   0.720  -4.704  1.00  0.00    -0.260 OA
HETATM    3  C1  UNK     1      -0.145   0.254  -1.152  1.00  0.00     0.017 A 
HETATM    4  C2  UNK     1       1.177   0.824  -0.838  1.00  0.00     0.011 A 
HETATM    5  C6  UNK     1       1.968   1.320  -1.874  1.00  0.00     0.093 A 
HETATM    6  C8  UNK     1      -0.536   0.236  -2.438  1.00  0.00     0.097 A 
HETATM    7  C9  UNK     1       1.685   0.892   0.466  1.00  0.00     0.018 A 
HETATM    8  C10 UNK     1       3.229   1.872  -1.645  1.00  0.00     0.075 A 
HETATM    9  C13 UNK     1       3.718   1.932  -0.344  1.00  0.00     0.070 A 
HETATM   10  C14 UNK     1       2.948   1.443   0.710  1.00  0.00     0.038 A 
HETATM   11  C15 UNK     1       0.288   0.757  -3.544  1.00  0.00     0.289 A 
ENDROOT
BRANCH   3  12
HETATM   12  C3  UNK     1      -1.053  -0.284  -0.216  1.00  0.00     0.088 A 
HETATM   13  O1  UNK     1      -1.039  -1.599   0.133  1.00  0.00    -0.309 OA
HETATM   14  C7  UNK     1      -2.033  -1.779   1.048  1.00  0.00     0.086 A 
HETATM   15  C12 UNK     1      -2.362  -2.985   1.664  1.00  0.00     0.040 A 
HETATM   16  C4  UNK     1      -2.689  -0.576   1.288  1.00  0.00     0.002 A 
HETATM   17  C17 UNK     1      -3.421  -2.948   2.576  1.00  0.00     0.026 A 
HETATM   18  C16 UNK     1      -4.105  -1.760   2.845  1.00  0.00     0.035 A 
HETATM   19  C11 UNK     1      -3.751  -0.562   2.209  1.00  0.00     0.038 A 
HETATM   20 Cl1  UNK     1      -5.405  -1.765   3.977  1.00  0.00    -0.084 Cl
HETATM   21  C5  UNK     1      -2.046   0.386   0.465  1.00  0.00     0.052 A 
ENDBRANCH   3  12
BRANCH   9  22
HETATM   22  O3  UNK     1       4.945   2.467  -0.100  1.00  0.00    -0.356 OA
HETATM   23  C18 UNK     1       5.679   2.949  -1.225  1.00  0.00     0.210 C 
ENDBRANCH   9  22
TORSDOF 2
