REMARK  4 active torsions:
REMARK  status: ('A' for Active; 'I' for Inactive)
REMARK    1  A    between atoms: C9_14  and  O2_2 
REMARK    2  A    between atoms: C5_10  and  O3_3 
REMARK    3  A    between atoms: C14_19  and  O5_5 
REMARK    4  A    between atoms: C2_7  and  C4_9 
ROOT
HETATM    1  O1  UNK     1       0.032  -1.711   0.120  1.00  0.00    -0.306 OA
HETATM    2  O4  UNK     1       1.611  -3.131   3.598  1.00  0.00    -0.284 OA
HETATM    3  C1  UNK     1       0.884  -3.588   1.402  1.00  0.00     0.051 A 
HETATM    4  C2  UNK     1       0.283  -0.874   1.196  1.00  0.00     0.126 A 
HETATM    5  C3  UNK     1       0.341  -3.041   0.242  1.00  0.00     0.090 A 
HETATM    6  C5  UNK     1       0.796  -1.276   2.373  1.00  0.00     0.152 A 
HETATM    7  C6  UNK     1       1.141  -2.707   2.551  1.00  0.00     0.220 A 
HETATM    8  C7  UNK     1       1.178  -4.953   1.468  1.00  0.00     0.025 A 
HETATM    9  C8  UNK     1       0.923  -5.766   0.363  1.00  0.00    -0.061 A 
HETATM   10  C10 UNK     1       0.086  -3.857  -0.861  1.00  0.00     0.039 A 
HETATM   11  C11 UNK     1       0.378  -5.220  -0.799  1.00  0.00     0.009 A 
HETATM   12  C16 UNK     1       1.233  -7.224   0.425  1.00  0.00     0.048 C 
ENDROOT
BRANCH   4  13
HETATM   13  C4  UNK     1      -0.094   0.527   0.934  1.00  0.00     0.034 A 
HETATM   14  C12 UNK     1      -1.393   0.944   1.226  1.00  0.00     0.020 A 
HETATM   15  C15 UNK     1      -1.774   2.265   0.987  1.00  0.00     0.038 A 
HETATM   16  C14 UNK     1      -0.856   3.170   0.455  1.00  0.00     0.070 A 
HETATM   17  C13 UNK     1       0.443   2.755   0.162  1.00  0.00     0.074 A 
HETATM   18  C9  UNK     1       0.824   1.435   0.401  1.00  0.00     0.084 A 
BRANCH  16  19
HETATM   19  O5  UNK     1      -1.228   4.459   0.222  1.00  0.00    -0.356 OA
HETATM   20  C18 UNK     1      -2.571   4.815   0.546  1.00  0.00     0.210 C 
ENDBRANCH  16  19
BRANCH  18  21
HETATM   21  O2  UNK     1       2.100   1.055   0.106  1.00  0.00    -0.355 OA
HETATM   22  C17 UNK     1       2.339   0.556  -1.209  1.00  0.00     0.210 C 
ENDBRANCH  18  21
ENDBRANCH   4  13
BRANCH   6  23
HETATM   23  O3  UNK     1       1.003  -0.422   3.434  1.00  0.00    -0.355 OA
HETATM   24  H10 UNK     1       0.737   0.479   3.190  1.00  0.00     0.218 HD
ENDBRANCH   6  23
TORSDOF 4
