REMARK  7 active torsions:
REMARK  status: ('A' for Active; 'I' for Inactive)
REMARK    1  A    between atoms: C4_11  and  O1_2 
REMARK    2  A    between atoms: C10_17  and  O3_4 
REMARK    3  A    between atoms: C1_8  and  N1_6 
REMARK    4  A    between atoms: C9_16  and  N1_6 
REMARK    5  A    between atoms: C7_14  and  N2_7 
REMARK    6  A    between atoms: C9_16  and  N2_7 
REMARK    7  A    between atoms: C1_8  and  C2_9 
ROOT
HETATM    1  S1  UNK     1       1.664  -0.596   2.476  1.00  0.00    -0.041 SA
HETATM    2  C9  UNK     1       1.228   0.537   1.315  1.00  0.00     0.172 C 
ENDROOT
BRANCH   2   3
HETATM    3  N1  UNK     1       2.174   1.502   0.993  1.00  0.00    -0.359 N 
HETATM    4  H5  UNK     1       3.067   1.426   1.472  1.00  0.00     0.162 HD
BRANCH   3   5
HETATM    5  C1  UNK     1       2.047   2.556   0.005  1.00  0.00     0.116 C 
HETATM    6  C3  UNK     1       2.803   3.794   0.484  1.00  0.00     0.037 C 
BRANCH   5   7
HETATM    7  C2  UNK     1       2.514   2.065  -1.348  1.00  0.00     0.000 A 
HETATM    8  C4  UNK     1       1.627   2.015  -2.410  1.00  0.00     0.076 A 
HETATM    9  C11 UNK     1       2.074   1.559  -3.650  1.00  0.00     0.040 A 
HETATM   10  C15 UNK     1       3.400   1.160  -3.810  1.00  0.00     0.039 A 
HETATM   11  C10 UNK     1       4.281   1.216  -2.730  1.00  0.00     0.069 A 
HETATM   12  C5  UNK     1       3.835   1.672  -1.489  1.00  0.00     0.048 A 
BRANCH   8  13
HETATM   13  O1  UNK     1       0.328   2.400  -2.270  1.00  0.00    -0.355 OA
HETATM   14  C20 UNK     1       0.027   3.771  -2.525  1.00  0.00     0.210 C 
ENDBRANCH   8  13
BRANCH  11  15
HETATM   15  O3  UNK     1       5.576   0.827  -2.886  1.00  0.00    -0.356 OA
HETATM   16  C21 UNK     1       5.965   0.372  -4.181  1.00  0.00     0.210 C 
ENDBRANCH  11  15
ENDBRANCH   5   7
ENDBRANCH   3   5
ENDBRANCH   2   3
BRANCH   2  17
HETATM   17  N2  UNK     1       0.024   0.610   0.593  1.00  0.00    -0.333 N 
HETATM   18  H9  UNK     1       0.089   1.156  -0.260  1.00  0.00     0.168 HD
BRANCH  17  19
HETATM   19  C7  UNK     1      -1.142  -0.155   0.622  1.00  0.00     0.036 A 
HETATM   20  C13 UNK     1      -1.598  -0.689   1.822  1.00  0.00     0.067 A 
HETATM   21  C8  UNK     1      -2.768  -1.451   1.829  1.00  0.00     0.092 A 
HETATM   22  C6  UNK     1      -3.502  -1.699   0.668  1.00  0.00     0.004 A 
HETATM   23  O2  UNK     1      -3.179  -1.965   3.075  1.00  0.00    -0.275 OA
HETATM   24  C12 UNK     1      -4.722  -2.511   0.767  1.00  0.00    -0.043 A 
HETATM   25  C14 UNK     1      -3.027  -1.151  -0.531  1.00  0.00     0.017 A 
HETATM   26  C17 UNK     1      -5.089  -2.988   1.965  1.00  0.00     0.090 A 
HETATM   27  C18 UNK     1      -5.534  -2.796  -0.463  1.00  0.00     0.049 C 
HETATM   28  C19 UNK     1      -4.325  -2.735   3.199  1.00  0.00     0.288 A 
HETATM   29  O4  UNK     1      -4.692  -3.187   4.278  1.00  0.00    -0.260 OA
HETATM   30  C16 UNK     1      -1.856  -0.385  -0.553  1.00  0.00     0.030 A 
ENDBRANCH  17  19
ENDBRANCH   2  17
TORSDOF 7
