REMARK  6 active torsions:
REMARK  status: ('A' for Active; 'I' for Inactive)
REMARK    1  A    between atoms: C2_7  and  O1_3 
REMARK    2  A    between atoms: C3_8  and  O1_3 
REMARK    3  A    between atoms: C5_10  and  O2_4 
REMARK    4  A    between atoms: C1_6  and  C2_7 
REMARK    5  A    between atoms: C12_17  and  C4_9 
REMARK    6  A    between atoms: C15_20  and  C16_21 
ROOT
HETATM    1  N1  UNK     1      -3.164   1.230  -0.035  1.00  0.00    -0.191 NA
HETATM    2  C12 UNK     1      -1.622  -1.622   1.140  1.00  0.00     0.036 C 
HETATM    3  C15 UNK     1      -2.855  -1.049   1.178  1.00  0.00     0.055 C 
HETATM    4  C24 UNK     1      -3.016   0.213   0.504  1.00  0.00     0.100 C 
ENDROOT
BRANCH   3   5
HETATM    5  C16 UNK     1      -4.002  -1.639   1.850  1.00  0.00    -0.015 A 
HETATM    6  C18 UNK     1      -5.290  -1.401   1.372  1.00  0.00     0.014 A 
HETATM    7  C20 UNK     1      -6.389  -1.967   2.017  1.00  0.00     0.024 A 
HETATM    8  C22 UNK     1      -6.201  -2.772   3.141  1.00  0.00     0.034 A 
HETATM    9  C21 UNK     1      -4.912  -3.010   3.619  1.00  0.00     0.024 A 
HETATM   10 Cl1  UNK     1      -7.557  -3.470   3.937  1.00  0.00    -0.084 Cl
HETATM   11  C19 UNK     1      -3.813  -2.444   2.974  1.00  0.00     0.014 A 
ENDBRANCH   3   5
BRANCH   2  12
HETATM   12  C4  UNK     1      -0.439  -1.066   0.468  1.00  0.00    -0.015 A 
HETATM   13  C6  UNK     1       0.375  -0.222   1.214  1.00  0.00     0.052 A 
HETATM   14  C5  UNK     1       1.511   0.334   0.627  1.00  0.00     0.102 A 
HETATM   15  C3  UNK     1       1.824   0.043  -0.701  1.00  0.00     0.103 A 
HETATM   16  C7  UNK     1       1.001  -0.805  -1.441  1.00  0.00     0.059 A 
HETATM   17  C8  UNK     1      -0.136  -1.362  -0.855  1.00  0.00     0.024 A 
HETATM   18 Br1  UNK     1      -1.214  -2.508  -1.919  1.00  0.00    -0.050 Br
BRANCH  14  19
HETATM   19  O2  UNK     1       2.308   1.161   1.360  1.00  0.00    -0.353 OA
HETATM   20  C23 UNK     1       1.917   1.408   2.710  1.00  0.00     0.210 C 
ENDBRANCH  14  19
BRANCH  15  21
HETATM   21  O1  UNK     1       2.932   0.580  -1.285  1.00  0.00    -0.344 OA
BRANCH  21  22
HETATM   22  C2  UNK     1       2.875   0.812  -2.691  1.00  0.00     0.214 C 
BRANCH  22  23
HETATM   23  C1  UNK     1       3.772   1.965  -3.033  1.00  0.00    -0.034 A 
HETATM   24  C9  UNK     1       5.104   1.730  -3.354  1.00  0.00     0.010 A 
HETATM   25  C13 UNK     1       5.938   2.802  -3.672  1.00  0.00     0.007 A 
HETATM   26  C11 UNK     1       5.434   4.103  -3.668  1.00  0.00    -0.062 A 
HETATM   27  C14 UNK     1       4.096   4.331  -3.346  1.00  0.00     0.007 A 
HETATM   28  C17 UNK     1       6.324   5.249  -4.010  1.00  0.00     0.048 C 
HETATM   29  C10 UNK     1       3.262   3.259  -3.027  1.00  0.00     0.010 A 
ENDBRANCH  22  23
ENDBRANCH  21  22
ENDBRANCH  15  21
ENDBRANCH   2  12
TORSDOF 6
