REMARK  4 active torsions:
REMARK  status: ('A' for Active; 'I' for Inactive)
REMARK    1  A    between atoms: C13_19  and  N1_5 
REMARK       I    between atoms: C15_21  and  N1_5 
REMARK    2  A    between atoms: C1_7  and  C2_8 
REMARK    3  A    between atoms: C2_8  and  C5_11 
REMARK    4  A    between atoms: C15_21  and  C16_22 
ROOT
HETATM    1  S1  UNK     1      -1.473  -0.550  -0.545  1.00  0.00    -0.075 SA
HETATM    2  N2  UNK     1       1.049   0.768   3.677  1.00  0.00    -0.191 NA
HETATM    3  C1  UNK     1      -4.553  -1.546   1.989  1.00  0.00    -0.002 C 
HETATM    4  C3  UNK     1      -3.649  -1.887   3.194  1.00  0.00     0.010 C 
HETATM    5  C4  UNK     1      -3.762  -1.623   0.663  1.00  0.00     0.052 C 
HETATM    6  C6  UNK     1      -2.477  -0.901   3.322  1.00  0.00     0.042 C 
HETATM    7  C7  UNK     1      -2.427  -0.960   0.804  1.00  0.00    -0.007 A 
HETATM    8  C10 UNK     1      -1.818  -0.646   2.003  1.00  0.00    -0.021 A 
HETATM    9  C12 UNK     1      -0.539  -0.046   1.796  1.00  0.00     0.085 A 
HETATM   10  C13 UNK     1      -0.228   0.065   0.457  1.00  0.00     0.098 A 
HETATM   11  C14 UNK     1       0.337   0.403   2.834  1.00  0.00     0.103 C 
ENDROOT
BRANCH  10  12
HETATM   12  N1  UNK     1       0.874   0.569  -0.179  1.00  0.00    -0.316 N 
HETATM   13  C15 UNK     1       1.085   0.632  -1.563  1.00  0.00     0.262 C 
HETATM   14  O1  UNK     1       0.346   0.258  -2.464  1.00  0.00    -0.267 OA
HETATM   15  H19 UNK     1       1.587   0.944   0.440  1.00  0.00     0.170 HD
BRANCH  13  16
HETATM   16  C16 UNK     1       2.388   1.239  -1.908  1.00  0.00     0.108 A 
HETATM   17  C17 UNK     1       2.444   1.899  -3.071  1.00  0.00     0.037 A 
HETATM   18  C19 UNK     1       3.684   2.530  -3.497  1.00  0.00    -0.001 A 
HETATM   19  C20 UNK     1       4.804   2.435  -2.677  1.00  0.00     0.089 A 
HETATM   20  C21 UNK     1       3.788   3.228  -4.702  1.00  0.00     0.014 A 
HETATM   21  O2  UNK     1       4.739   1.740  -1.454  1.00  0.00    -0.274 OA
HETATM   22  C22 UNK     1       6.021   3.016  -3.027  1.00  0.00     0.038 A 
HETATM   23  C18 UNK     1       3.567   1.126  -1.019  1.00  0.00     0.304 A 
HETATM   24  O3  UNK     1       3.520   0.522   0.047  1.00  0.00    -0.259 OA
HETATM   25  C24 UNK     1       6.116   3.711  -4.231  1.00  0.00     0.003 A 
HETATM   26  C23 UNK     1       5.002   3.817  -5.067  1.00  0.00     0.001 A 
ENDBRANCH  13  16
ENDBRANCH  10  12
BRANCH   3  27
HETATM   27  C2  UNK     1      -5.767  -2.471   1.942  1.00  0.00    -0.044 C 
HETATM   28  C8  UNK     1      -6.528  -2.365   3.281  1.00  0.00     0.015 C 
HETATM   29  C9  UNK     1      -6.715  -2.022   0.813  1.00  0.00     0.015 C 
BRANCH  27  30
HETATM   30  C5  UNK     1      -5.345  -3.955   1.750  1.00  0.00     0.004 C 
HETATM   31  C11 UNK     1      -6.485  -4.967   1.735  1.00  0.00     0.006 C 
ENDBRANCH  27  30
ENDBRANCH   3  27
TORSDOF 4
