REMARK  6 active torsions:
REMARK  status: ('A' for Active; 'I' for Inactive)
REMARK    1  A    between atoms: C14_21  and  O3_3 
REMARK    2  A    between atoms: C20_27  and  O3_3 
REMARK    3  A    between atoms: C29_36  and  O6_6 
REMARK    4  A    between atoms: C12_19  and  C6_13 
REMARK    5  A    between atoms: C10_17  and  C14_21 
REMARK    6  A    between atoms: C20_27  and  C24_31 
ROOT
HETATM    1  O1  UNK     1      -2.474  -0.182   3.242  1.00  0.00    -0.293 OA
HETATM    2  N1  UNK     1      -2.970  -2.219  -1.005  1.00  0.00    -0.362 N 
HETATM    3  C1  UNK     1      -4.390  -3.134   2.366  1.00  0.00    -0.036 C 
HETATM    4  C2  UNK     1      -3.757  -3.419   0.989  1.00  0.00     0.067 C 
HETATM    5  C3  UNK     1      -3.373  -2.395   3.247  1.00  0.00     0.092 C 
HETATM    6  C4  UNK     1      -3.074  -2.223   0.374  1.00  0.00     0.021 C 
HETATM    7  C5  UNK     1      -2.615  -1.177   1.093  1.00  0.00     0.024 C 
HETATM    8  C6  UNK     1      -1.926   0.007   0.416  1.00  0.00     0.104 C 
HETATM    9  C7  UNK     1      -2.808  -1.161   2.575  1.00  0.00     0.159 C 
HETATM   10  C8  UNK     1      -5.678  -2.297   2.212  1.00  0.00     0.015 C 
HETATM   11  C9  UNK     1      -4.766  -4.468   3.035  1.00  0.00     0.015 C 
HETATM   12  C10 UNK     1      -2.062  -0.036  -1.109  1.00  0.00     0.052 C 
HETATM   13  C11 UNK     1      -2.533  -1.133  -1.746  1.00  0.00     0.018 C 
HETATM   14  C13 UNK     1      -2.646  -1.293  -3.238  1.00  0.00     0.069 C 
HETATM   15  H12 UNK     1      -3.325  -3.022  -1.510  1.00  0.00     0.165 HD
ENDROOT
BRANCH  12  16
HETATM   16  C14 UNK     1      -1.709   1.192  -1.840  1.00  0.00     0.292 C 
HETATM   17  O4  UNK     1      -2.500   2.092  -2.056  1.00  0.00    -0.259 OA
BRANCH  16  18
HETATM   18  O3  UNK     1      -0.404   1.117  -2.197  1.00  0.00    -0.313 OA
BRANCH  18  19
HETATM   19  C20 UNK     1       0.092   2.248  -2.921  1.00  0.00     0.217 C 
BRANCH  19  20
HETATM   20  C24 UNK     1       1.540   2.024  -3.247  1.00  0.00    -0.034 A 
HETATM   21  C25 UNK     1       1.888   1.393  -4.436  1.00  0.00     0.012 A 
HETATM   22  C27 UNK     1       3.234   1.185  -4.738  1.00  0.00     0.037 A 
HETATM   23  C29 UNK     1       4.222   1.608  -3.849  1.00  0.00     0.068 A 
HETATM   24  C28 UNK     1       3.864   2.239  -2.658  1.00  0.00     0.037 A 
HETATM   25  C26 UNK     1       2.519   2.448  -2.356  1.00  0.00     0.012 A 
BRANCH  23  26
HETATM   26  O6  UNK     1       5.535   1.404  -4.145  1.00  0.00    -0.356 OA
HETATM   27  C30 UNK     1       6.494   1.861  -3.192  1.00  0.00     0.210 C 
ENDBRANCH  23  26
ENDBRANCH  19  20
ENDBRANCH  18  19
ENDBRANCH  16  18
ENDBRANCH  12  16
BRANCH   8  28
HETATM   28  C12 UNK     1      -0.470   0.066   0.807  1.00  0.00     0.029 A 
HETATM   29  C15 UNK     1       0.019   1.262   1.538  1.00  0.00     0.194 A 
HETATM   30  O5  UNK     1      -0.719   2.193   1.832  1.00  0.00    -0.287 OA
HETATM   31  C17 UNK     1       1.450   1.271   1.894  1.00  0.00     0.048 A 
HETATM   32  C18 UNK     1       2.245   0.182   1.534  1.00  0.00     0.089 A 
HETATM   33  C19 UNK     1       2.007   2.351   2.583  1.00  0.00     0.018 A 
HETATM   34  O2  UNK     1       1.751  -0.905   0.858  1.00  0.00    -0.321 OA
HETATM   35  C21 UNK     1       3.602   0.169   1.861  1.00  0.00     0.038 A 
HETATM   36  C16 UNK     1       0.417  -0.898   0.532  1.00  0.00     0.154 A 
HETATM   37  C23 UNK     1       4.160   1.247   2.548  1.00  0.00     0.003 A 
HETATM   38  C22 UNK     1       3.364   2.335   2.908  1.00  0.00     0.001 A 
ENDBRANCH   8  28
TORSDOF 6
