REMARK  2 active torsions:
REMARK  status: ('A' for Active; 'I' for Inactive)
REMARK       I    between atoms: C12_19  and  N1_7 
REMARK    1  A    between atoms: C3_10  and  N1_7 
REMARK    2  A    between atoms: C12_19  and  C9_16 
ROOT
HETATM    1  O3  UNK     1       1.027  -0.117   0.946  1.00  0.00    -0.267 OA
HETATM    2  N1  UNK     1      -0.673  -0.029  -0.689  1.00  0.00    -0.323 N 
HETATM    3  C12 UNK     1       0.617   0.143  -0.179  1.00  0.00     0.262 C 
HETATM    4  H4  UNK     1      -0.845   0.261  -1.649  1.00  0.00     0.169 HD
ENDROOT
BRANCH   2   5
HETATM    5  C3  UNK     1      -1.793  -0.539  -0.033  1.00  0.00     0.037 A 
HETATM    6  C5  UNK     1      -1.700  -0.948   1.293  1.00  0.00     0.067 A 
HETATM    7  C2  UNK     1      -2.834  -1.454   1.931  1.00  0.00     0.092 A 
HETATM    8  C1  UNK     1      -4.066  -1.567   1.284  1.00  0.00     0.004 A 
HETATM    9  O1  UNK     1      -2.678  -1.851   3.274  1.00  0.00    -0.275 OA
HETATM   10  C4  UNK     1      -5.207  -2.111   2.032  1.00  0.00    -0.043 A 
HETATM   11  C6  UNK     1      -4.138  -1.150  -0.052  1.00  0.00     0.017 A 
HETATM   12  C13 UNK     1      -5.029  -2.481   3.308  1.00  0.00     0.090 A 
HETATM   13  C14 UNK     1      -6.544  -2.245   1.364  1.00  0.00     0.049 C 
HETATM   14  C17 UNK     1      -3.736  -2.368   4.005  1.00  0.00     0.288 A 
HETATM   15  O5  UNK     1      -3.611  -2.716   5.174  1.00  0.00    -0.260 OA
HETATM   16  C7  UNK     1      -3.010  -0.640  -0.705  1.00  0.00     0.030 A 
ENDBRANCH   2   5
BRANCH   3  17
HETATM   17  C9  UNK     1       1.547   0.713  -1.175  1.00  0.00     0.108 A 
HETATM   18  C11 UNK     1       2.542   1.468  -0.692  1.00  0.00     0.037 A 
HETATM   19  C8  UNK     1       3.509   2.072  -1.595  1.00  0.00     0.001 A 
HETATM   20  C10 UNK     1       3.382   1.851  -2.963  1.00  0.00     0.089 A 
HETATM   21  C16 UNK     1       4.562   2.867  -1.136  1.00  0.00     0.038 A 
HETATM   22  O2  UNK     1       2.333   1.055  -3.465  1.00  0.00    -0.274 OA
HETATM   23  C18 UNK     1       4.274   2.401  -3.881  1.00  0.00     0.040 A 
HETATM   24  C15 UNK     1       1.393   0.465  -2.626  1.00  0.00     0.304 A 
HETATM   25  O4  UNK     1       0.483  -0.227  -3.072  1.00  0.00    -0.259 OA
HETATM   26  C20 UNK     1       5.321   3.193  -3.414  1.00  0.00     0.026 A 
HETATM   27  C19 UNK     1       5.465   3.425  -2.045  1.00  0.00     0.035 A 
HETATM   28 Cl1  UNK     1       6.762   4.404  -1.474  1.00  0.00    -0.084 Cl
ENDBRANCH   3  17
TORSDOF 2
