REMARK  6 active torsions:
REMARK  status: ('A' for Active; 'I' for Inactive)
REMARK    1  A    between atoms: C12_18  and  O2_3 
REMARK    2  A    between atoms: C18_24  and  O2_3 
REMARK    3  A    between atoms: C13_19  and  N1_5 
REMARK    4  A    between atoms: C4_10  and  N1_5 
REMARK    5  A    between atoms: C10_16  and  N2_6 
REMARK    6  A    between atoms: C13_19  and  N2_6 
ROOT
HETATM    1  N1  UNK     1      -0.951  -0.047  -2.795  1.00  0.00    -0.333 N 
HETATM    2  H5  UNK     1      -1.530  -0.027  -3.632  1.00  0.00     0.168 HD
ENDROOT
BRANCH   1   3
HETATM    3  C13 UNK     1       0.324   0.500  -2.995  1.00  0.00     0.176 C 
HETATM    4  S1  UNK     1       0.738   0.942  -4.568  1.00  0.00    -0.041 SA
BRANCH   3   5
HETATM    5  N2  UNK     1       1.067   0.728  -1.852  1.00  0.00    -0.331 N 
HETATM    6  H9  UNK     1       0.505   0.888  -1.022  1.00  0.00     0.168 HD
BRANCH   5   7
HETATM    7  C10 UNK     1       2.370   1.260  -1.678  1.00  0.00     0.068 A 
HETATM    8  C12 UNK     1       2.642   2.081  -0.597  1.00  0.00     0.095 A 
HETATM    9  C15 UNK     1       3.929   2.596  -0.440  1.00  0.00     0.039 A 
HETATM   10  C17 UNK     1       4.924   2.284  -1.366  1.00  0.00     0.003 A 
HETATM   11  C16 UNK     1       4.632   1.455  -2.450  1.00  0.00     0.002 A 
HETATM   12  C14 UNK     1       3.346   0.939  -2.607  1.00  0.00     0.032 A 
BRANCH   8  13
HETATM   13  O2  UNK     1       1.685   2.399   0.320  1.00  0.00    -0.349 OA
BRANCH  13  14
HETATM   14  C18 UNK     1       1.932   2.020   1.672  1.00  0.00     0.171 C 
HETATM   15  C19 UNK     1       0.610   1.767   2.363  1.00  0.00     0.034 C 
ENDBRANCH  13  14
ENDBRANCH   8  13
ENDBRANCH   5   7
ENDBRANCH   3   5
ENDBRANCH   1   3
BRANCH   1  16
HETATM   16  C4  UNK     1      -1.635  -0.417  -1.638  1.00  0.00     0.036 A 
HETATM   17  C5  UNK     1      -0.930  -0.813  -0.506  1.00  0.00     0.067 A 
HETATM   18  C2  UNK     1      -1.635  -1.178   0.643  1.00  0.00     0.092 A 
HETATM   19  C1  UNK     1      -3.030  -1.161   0.698  1.00  0.00     0.004 A 
HETATM   20  O1  UNK     1      -0.867  -1.569   1.757  1.00  0.00    -0.275 OA
HETATM   21  C3  UNK     1      -3.689  -1.562   1.948  1.00  0.00    -0.043 A 
HETATM   22  C6  UNK     1      -3.721  -0.760  -0.453  1.00  0.00     0.017 A 
HETATM   23  C8  UNK     1      -2.933  -1.929   2.992  1.00  0.00     0.090 A 
HETATM   24  C9  UNK     1      -5.187  -1.555   2.040  1.00  0.00     0.049 C 
HETATM   25  C11 UNK     1      -1.461  -1.951   2.950  1.00  0.00     0.288 A 
HETATM   26  O3  UNK     1      -0.802  -2.293   3.925  1.00  0.00    -0.260 OA
HETATM   27  C7  UNK     1      -3.028  -0.391  -1.611  1.00  0.00     0.030 A 
ENDBRANCH   1  16
TORSDOF 6
