REMARK  5 active torsions:
REMARK  status: ('A' for Active; 'I' for Inactive)
REMARK    1  A    between atoms: C11_20  and  N1_7 
REMARK    2  A    between atoms: C4_13  and  N1_7 
REMARK    3  A    between atoms: C11_20  and  N2_8 
REMARK    4  A    between atoms: N2_8  and  N3_9 
REMARK       I    between atoms: C13_22  and  N3_9 
REMARK    5  A    between atoms: C12_21  and  C13_22 
ROOT
HETATM    1  N1  UNK     1      -0.178  -0.431  -0.972  1.00  0.00    -0.332 N 
HETATM    2  H8  UNK     1       0.804  -0.265  -0.767  1.00  0.00     0.168 HD
ENDROOT
BRANCH   1   3
HETATM    3  C11 UNK     1      -0.514  -0.169  -2.312  1.00  0.00     0.191 C 
HETATM    4  S2  UNK     1      -1.775  -0.801  -3.220  1.00  0.00    -0.039 SA
BRANCH   3   5
HETATM    5  N2  UNK     1       0.346   0.714  -2.955  1.00  0.00    -0.273 N 
HETATM    6  H9  UNK     1       0.208   0.982  -3.924  1.00  0.00     0.189 HD
BRANCH   5   7
HETATM    7  N3  UNK     1       1.413   1.288  -2.301  1.00  0.00    -0.263 N 
HETATM    8  C13 UNK     1       2.540   1.639  -3.032  1.00  0.00     0.277 C 
HETATM    9  O3  UNK     1       2.619   1.456  -4.248  1.00  0.00    -0.265 OA
HETATM   10  H10 UNK     1       1.275   1.512  -1.322  1.00  0.00     0.190 HD
BRANCH   8  11
HETATM   11  C12 UNK     1       3.621   2.267  -2.260  1.00  0.00     0.075 A 
HETATM   12  S1  UNK     1       5.026   2.720  -3.087  1.00  0.00    -0.072 SA
HETATM   13  C16 UNK     1       5.713   3.308  -1.633  1.00  0.00     0.075 A 
HETATM   14  C15 UNK     1       4.865   3.148  -0.559  1.00  0.00     0.033 A 
HETATM   15 Cl1  UNK     1       7.282   3.998  -1.639  1.00  0.00    -0.076 Cl
HETATM   16  C14 UNK     1       3.635   2.534  -0.935  1.00  0.00     0.027 A 
ENDBRANCH   8  11
ENDBRANCH   5   7
ENDBRANCH   3   5
ENDBRANCH   1   3
BRANCH   1  17
HETATM   17  C4  UNK     1      -0.913  -0.800   0.155  1.00  0.00     0.037 A 
HETATM   18  C6  UNK     1      -2.295  -0.932   0.075  1.00  0.00     0.067 A 
HETATM   19  C2  UNK     1      -3.010  -1.304   1.215  1.00  0.00     0.092 A 
HETATM   20  C1  UNK     1      -2.387  -1.550   2.439  1.00  0.00     0.004 A 
HETATM   21  O1  UNK     1      -4.407  -1.421   1.072  1.00  0.00    -0.275 OA
HETATM   22  C3  UNK     1      -3.219  -1.937   3.587  1.00  0.00    -0.043 A 
HETATM   23  C5  UNK     1      -0.994  -1.412   2.498  1.00  0.00     0.017 A 
HETATM   24  C9  UNK     1      -2.578  -2.207   4.918  1.00  0.00     0.049 C 
HETATM   25  C8  UNK     1      -4.545  -2.042   3.422  1.00  0.00     0.090 A 
HETATM   26  C10 UNK     1      -5.217  -1.786   2.137  1.00  0.00     0.288 A 
HETATM   27  O2  UNK     1      -6.433  -1.892   2.023  1.00  0.00    -0.260 OA
HETATM   28  C7  UNK     1      -0.263  -1.041   1.364  1.00  0.00     0.030 A 
ENDBRANCH   1  17
TORSDOF 5
