REMARK  3 active torsions:
REMARK  status: ('A' for Active; 'I' for Inactive)
REMARK    1  A    between atoms: C1_7  and  N1_4 
REMARK    2  A    between atoms: C11_17  and  C2_8 
REMARK    3  A    between atoms: C12_18  and  C4_10 
ROOT
HETATM    1  O2  UNK     1      -0.001   0.433  -2.496  1.00  0.00    -0.190 OA
HETATM    2  N2  UNK     1       0.203   0.277  -0.271  1.00  0.00    -0.199 NA
HETATM    3  N3  UNK     1      -1.179  -0.172  -2.038  1.00  0.00    -0.105 NA
HETATM    4  C11 UNK     1      -0.983  -0.229  -0.717  1.00  0.00     0.189 A 
HETATM    5  C12 UNK     1       0.766   0.668  -1.393  1.00  0.00     0.212 A 
ENDROOT
BRANCH   4   6
HETATM    6  C2  UNK     1      -1.951  -0.785   0.184  1.00  0.00     0.014 A 
HETATM    7  C10 UNK     1      -1.692  -0.818   1.555  1.00  0.00     0.017 A 
HETATM    8  C8  UNK     1      -2.633  -1.358   2.431  1.00  0.00     0.031 A 
HETATM    9  C1  UNK     1      -3.835  -1.867   1.937  1.00  0.00     0.038 A 
HETATM   10  C7  UNK     1      -4.095  -1.834   0.567  1.00  0.00     0.031 A 
HETATM   11  C9  UNK     1      -3.153  -1.293  -0.309  1.00  0.00     0.017 A 
BRANCH   9  12
HETATM   12  N1  UNK     1      -4.768  -2.404   2.805  1.00  0.00    -0.333 N 
HETATM   13  C13 UNK     1      -5.985  -2.936   2.443  1.00  0.00     0.096 A 
HETATM   14  C18 UNK     1      -6.623  -3.368   3.586  1.00  0.00     0.019 A 
HETATM   15  C19 UNK     1      -5.766  -3.090   4.679  1.00  0.00     0.019 A 
HETATM   16  C14 UNK     1      -4.631  -2.497   4.172  1.00  0.00     0.096 A 
ENDBRANCH   9  12
ENDBRANCH   4   6
BRANCH   5  17
HETATM   17  C4  UNK     1       2.052   1.284  -1.498  1.00  0.00     0.096 A 
HETATM   18  C15 UNK     1       2.859   1.518  -0.269  1.00  0.00     0.303 A 
HETATM   19  O1  UNK     1       4.109   2.107  -0.445  1.00  0.00    -0.274 OA
HETATM   20  O3  UNK     1       2.452   1.217   0.848  1.00  0.00    -0.259 OA
HETATM   21  C5  UNK     1       4.590   2.478  -1.715  1.00  0.00     0.089 A 
HETATM   22  C17 UNK     1       5.851   3.067  -1.784  1.00  0.00     0.038 A 
HETATM   23  C3  UNK     1       3.820   2.259  -2.852  1.00  0.00    -0.001 A 
HETATM   24  C21 UNK     1       6.352   3.446  -3.027  1.00  0.00     0.003 A 
HETATM   25  C20 UNK     1       5.594   3.234  -4.180  1.00  0.00     0.001 A 
HETATM   26  C16 UNK     1       4.330   2.641  -4.095  1.00  0.00     0.014 A 
HETATM   27  C6  UNK     1       2.514   1.637  -2.707  1.00  0.00     0.036 A 
ENDBRANCH   5  17
TORSDOF 3
