REMARK  3 active torsions:
REMARK  status: ('A' for Active; 'I' for Inactive)
REMARK    1  A    between atoms: C3_7  and  O2_2 
REMARK    2  A    between atoms: C9_13  and  O2_2 
REMARK    3  A    between atoms: C5_9  and  O3_3 
ROOT
HETATM    1  O1  UNK     1      -1.891  -0.330  -1.715  1.00  0.00    -0.275 OA
HETATM    2  O4  UNK     1      -3.765  -1.443  -1.017  1.00  0.00    -0.260 OA
HETATM    3  C1  UNK     1      -0.019  -0.028  -0.168  1.00  0.00     0.034 A 
HETATM    4  C2  UNK     1      -0.594   0.148  -1.430  1.00  0.00     0.092 A 
HETATM    5  C3  UNK     1      -0.817  -0.715   0.853  1.00  0.00     0.087 A 
HETATM    6  C4  UNK     1       1.282   0.456   0.021  1.00  0.00     0.053 A 
HETATM    7  C5  UNK     1       1.965   1.101  -1.018  1.00  0.00     0.069 A 
HETATM    8  C6  UNK     1       0.074   0.790  -2.475  1.00  0.00     0.041 A 
HETATM    9  C7  UNK     1      -2.038  -1.174   0.560  1.00  0.00     0.120 A 
HETATM   10  C8  UNK     1       1.361   1.270  -2.263  1.00  0.00     0.039 A 
HETATM   11  C10 UNK     1      -2.646  -1.008  -0.769  1.00  0.00     0.290 A 
ENDROOT
BRANCH   5  12
HETATM   12  O2  UNK     1      -0.314  -0.886   2.128  1.00  0.00    -0.350 OA
BRANCH  12  13
HETATM   13  C9  UNK     1      -0.661   0.208   2.953  1.00  0.00     0.171 C 
HETATM   14  C11 UNK     1      -0.104  -0.025   4.341  1.00  0.00     0.034 C 
ENDBRANCH  12  13
ENDBRANCH   5  12
BRANCH   7  15
HETATM   15  O3  UNK     1       3.228   1.566  -0.811  1.00  0.00    -0.356 OA
HETATM   16  C12 UNK     1       3.870   2.212  -1.908  1.00  0.00     0.210 C 
ENDBRANCH   7  15
TORSDOF 3
