REMARK  3 active torsions:
REMARK  status: ('A' for Active; 'I' for Inactive)
REMARK       I    between atoms: C15_22  and  N1_6 
REMARK    1  A    between atoms: N1_6  and  N2_7 
REMARK    2  A    between atoms: C13_20  and  C4_11 
REMARK    3  A    between atoms: C15_22  and  C8_15 
ROOT
HETATM    1 Cl1  UNK     1      -6.568  -2.744   0.697  1.00  0.00    -0.084 Cl
HETATM    2  O1  UNK     1      -1.534  -1.164   3.298  1.00  0.00    -0.321 OA
HETATM    3  O2  UNK     1      -1.895  -0.525  -0.719  1.00  0.00    -0.286 OA
HETATM    4  C1  UNK     1      -2.874  -1.325   1.276  1.00  0.00     0.050 A 
HETATM    5  C2  UNK     1      -2.690  -1.517   2.647  1.00  0.00     0.089 A 
HETATM    6  C3  UNK     1      -1.788  -0.718   0.485  1.00  0.00     0.198 A 
HETATM    7  C4  UNK     1      -0.565  -0.357   1.235  1.00  0.00     0.056 A 
HETATM    8  C5  UNK     1      -4.073  -1.704   0.667  1.00  0.00     0.042 A 
HETATM    9  C6  UNK     1      -3.705  -2.088   3.415  1.00  0.00     0.040 A 
HETATM   10  C7  UNK     1      -0.528  -0.600   2.549  1.00  0.00     0.159 A 
HETATM   11  C9  UNK     1      -5.086  -2.276   1.438  1.00  0.00     0.035 A 
HETATM   12  C10 UNK     1      -4.903  -2.467   2.809  1.00  0.00     0.026 A 
ENDROOT
BRANCH   7  13
HETATM   13  C13 UNK     1       0.613   0.253   0.617  1.00  0.00     0.156 C 
HETATM   14  N2  UNK     1       0.672   0.526  -0.646  1.00  0.00    -0.183 NA
BRANCH  14  15
HETATM   15  N1  UNK     1       1.842   1.088  -1.036  1.00  0.00    -0.243 N 
HETATM   16  C15 UNK     1       2.022   1.387  -2.380  1.00  0.00     0.272 C 
HETATM   17  O3  UNK     1       1.153   1.157  -3.224  1.00  0.00    -0.266 OA
HETATM   18  H11 UNK     1       2.554   1.240  -0.329  1.00  0.00     0.192 HD
BRANCH  16  19
HETATM   19  C8  UNK     1       3.326   1.969  -2.734  1.00  0.00     0.041 A 
HETATM   20  C12 UNK     1       4.128   2.716  -1.853  1.00  0.00     0.031 A 
HETATM   21  C11 UNK     1       5.289   3.127  -2.470  1.00  0.00    -0.021 A 
HETATM   22  S1  UNK     1       5.375   2.597  -4.096  1.00  0.00    -0.106 SA
HETATM   23  C16 UNK     1       6.398   3.927  -1.906  1.00  0.00     0.056 C 
HETATM   24  C14 UNK     1       3.856   1.816  -3.978  1.00  0.00     0.067 A 
ENDBRANCH  16  19
ENDBRANCH  14  15
ENDBRANCH   7  13
TORSDOF 3
