REMARK  5 active torsions:
REMARK  status: ('A' for Active; 'I' for Inactive)
REMARK    1  A    between atoms: C18_27  and  O4_4 
REMARK    2  A    between atoms: C2_11  and  N1_8 
REMARK       I    between atoms: C7_16  and  N1_8 
REMARK    3  A    between atoms: C14_23  and  N2_9 
REMARK    4  A    between atoms: C3_12  and  C7_16 
REMARK    5  A    between atoms: C10_19  and  C18_27 
ROOT
HETATM    1  O2  UNK     1       1.404   0.085   0.432  1.00  0.00    -0.267 OA
HETATM    2  N1  UNK     1       0.620   0.738  -1.690  1.00  0.00    -0.322 N 
HETATM    3  C7  UNK     1       0.545   0.125  -0.447  1.00  0.00     0.262 C 
HETATM    4  H2  UNK     1      -0.201   0.691  -2.286  1.00  0.00     0.169 HD
ENDROOT
BRANCH   3   5
HETATM    5  C3  UNK     1      -0.751  -0.531  -0.230  1.00  0.00     0.108 A 
HETATM    6  C13 UNK     1      -1.543  -1.093  -1.347  1.00  0.00     0.304 A 
HETATM    7  O1  UNK     1      -2.755  -1.691  -1.014  1.00  0.00    -0.274 OA
HETATM    8  O3  UNK     1      -1.156  -1.038  -2.509  1.00  0.00    -0.259 OA
HETATM    9  C5  UNK     1      -3.209  -1.761   0.317  1.00  0.00     0.089 A 
HETATM   10  C1  UNK     1      -2.449  -1.225   1.352  1.00  0.00     0.001 A 
HETATM   11  C12 UNK     1      -4.436  -2.379   0.551  1.00  0.00     0.041 A 
HETATM   12  C9  UNK     1      -2.933  -1.313   2.659  1.00  0.00     0.050 A 
HETATM   13  C6  UNK     1      -1.177  -0.594   1.037  1.00  0.00     0.037 A 
HETATM   14  C14 UNK     1      -4.162  -1.930   2.910  1.00  0.00     0.103 A 
HETATM   15  C17 UNK     1      -4.911  -2.462   1.858  1.00  0.00     0.039 A 
BRANCH  14  16
HETATM   16  N2  UNK     1      -4.651  -2.018   4.241  1.00  0.00    -0.116 N 
HETATM   17  O6  UNK     1      -5.755  -2.577   4.447  1.00  0.00    -0.532 OA
HETATM   18  O7  UNK     1      -3.964  -1.535   5.173  1.00  0.00    -0.532 OA
ENDBRANCH  14  16
ENDBRANCH   3   5
BRANCH   2  19
HETATM   19  C2  UNK     1       1.711   1.460  -2.233  1.00  0.00     0.042 A 
HETATM   20  C4  UNK     1       1.618   2.012  -3.500  1.00  0.00    -0.035 A 
HETATM   21  C11 UNK     1       2.702   2.721  -4.017  1.00  0.00     0.010 A 
HETATM   22  C16 UNK     1       0.385   1.872  -4.332  1.00  0.00     0.050 C 
HETATM   23  C15 UNK     1       3.864   2.868  -3.260  1.00  0.00     0.018 A 
HETATM   24  C10 UNK     1       3.943   2.306  -1.986  1.00  0.00     0.041 A 
HETATM   25  C8  UNK     1       2.858   1.597  -1.469  1.00  0.00     0.047 A 
BRANCH  24  26
HETATM   26  C18 UNK     1       5.155   2.459  -1.198  1.00  0.00     0.293 C 
HETATM   27  O5  UNK     1       6.292   2.567  -1.676  1.00  0.00    -0.259 OA
BRANCH  26  28
HETATM   28  O4  UNK     1       4.885   2.470   0.143  1.00  0.00    -0.323 OA
HETATM   29  C19 UNK     1       6.002   2.617   1.027  1.00  0.00     0.213 C 
ENDBRANCH  26  28
ENDBRANCH  24  26
ENDBRANCH   2  19
TORSDOF 5
