REMARK  7 active torsions:
REMARK  status: ('A' for Active; 'I' for Inactive)
REMARK    1  A    between atoms: C23_30  and  O4_4 
REMARK    2  A    between atoms: C24_31  and  O4_4 
REMARK    3  A    between atoms: C5_12  and  N1_5 
REMARK    4  A    between atoms: C6_13  and  N2_6 
REMARK    5  A    between atoms: C17_24  and  N3_7 
REMARK       I    between atoms: C9_16  and  N3_7 
REMARK    6  A    between atoms: C5_12  and  C7_14 
REMARK    7  A    between atoms: C6_13  and  C9_16 
ROOT
HETATM    1  N1  UNK     1       1.624   1.631  -0.507  1.00  0.00     0.096 N 
HETATM    2  N2  UNK     1       0.193  -0.133   1.281  1.00  0.00     0.100 N 
HETATM    3  C1  UNK     1       0.159   1.659  -0.419  1.00  0.00     0.303 C 
HETATM    4  C2  UNK     1       2.206   1.206   0.771  1.00  0.00     0.303 C 
HETATM    5  C3  UNK     1      -0.389   0.291   0.002  1.00  0.00     0.303 C 
HETATM    6  C4  UNK     1       1.658  -0.162   1.193  1.00  0.00     0.303 C 
ENDROOT
BRANCH   2   7
HETATM    7  C6  UNK     1      -0.329  -1.438   1.682  1.00  0.00     0.375 C 
BRANCH   7   8
HETATM    8  C9  UNK     1      -1.733  -1.272   2.237  1.00  0.00     0.250 C 
HETATM    9  O2  UNK     1      -2.103  -0.249   2.804  1.00  0.00    -0.271 OA
HETATM   10  N3  UNK     1      -2.484  -2.421   1.998  1.00  0.00    -0.326 N 
HETATM   11  H15 UNK     1      -2.029  -3.192   1.514  1.00  0.00     0.169 HD
BRANCH  10  12
HETATM   12  C17 UNK     1      -3.832  -2.661   2.357  1.00  0.00     0.034 A 
HETATM   13  C19 UNK     1      -4.433  -3.878   2.035  1.00  0.00     0.032 A 
HETATM   14  C21 UNK     1      -5.760  -4.116   2.391  1.00  0.00     0.039 A 
HETATM   15  C23 UNK     1      -6.487  -3.137   3.068  1.00  0.00     0.068 A 
HETATM   16  C22 UNK     1      -5.886  -1.920   3.389  1.00  0.00     0.039 A 
HETATM   17  C20 UNK     1      -4.559  -1.682   3.034  1.00  0.00     0.032 A 
BRANCH  15  18
HETATM   18  O4  UNK     1      -7.782  -3.369   3.416  1.00  0.00    -0.352 OA
BRANCH  18  19
HETATM   19  C24 UNK     1      -8.535  -4.241   2.574  1.00  0.00     0.171 C 
HETATM   20  C25 UNK     1      -9.994  -3.842   2.631  1.00  0.00     0.034 C 
ENDBRANCH  18  19
ENDBRANCH  15  18
ENDBRANCH  10  12
ENDBRANCH   7   8
ENDBRANCH   2   7
BRANCH   1  21
HETATM   21  C5  UNK     1       2.145   2.937  -0.906  1.00  0.00     0.312 C 
BRANCH  21  22
HETATM   22  C7  UNK     1       3.495   2.838  -1.526  1.00  0.00    -0.011 A 
HETATM   23  C10 UNK     1       4.607   2.915  -0.782  1.00  0.00     0.092 A 
HETATM   24  C13 UNK     1       5.963   2.822  -1.350  1.00  0.00     0.288 A 
HETATM   25  O1  UNK     1       6.052   2.648  -2.723  1.00  0.00    -0.275 OA
HETATM   26  O3  UNK     1       6.958   2.896  -0.638  1.00  0.00    -0.260 OA
HETATM   27  C11 UNK     1       4.901   2.564  -3.531  1.00  0.00     0.090 A 
HETATM   28  C8  UNK     1       3.622   2.654  -2.978  1.00  0.00     0.006 A 
HETATM   29  C14 UNK     1       5.110   2.388  -4.900  1.00  0.00     0.045 A 
HETATM   30  C12 UNK     1       2.529   2.561  -3.850  1.00  0.00     0.015 A 
HETATM   31  C16 UNK     1       2.723   2.385  -5.225  1.00  0.00     0.007 A 
HETATM   32  C15 UNK     1       4.012   2.299  -5.749  1.00  0.00    -0.059 A 
HETATM   33  C18 UNK     1       4.211   2.111  -7.215  1.00  0.00     0.048 C 
ENDBRANCH  21  22
ENDBRANCH   1  21
TORSDOF 7
