REMARK  5 active torsions:
REMARK  status: ('A' for Active; 'I' for Inactive)
REMARK    1  A    between atoms: C5_16  and  S1_1 
REMARK    2  A    between atoms: N1_9  and  S1_1 
REMARK    3  A    between atoms: C10_21  and  N2_10 
REMARK       I    between atoms: C11_22  and  N2_10 
REMARK    4  A    between atoms: C19_30  and  N3_11 
REMARK    5  A    between atoms: C11_22  and  C12_23 
ROOT
HETATM    1  O4  UNK     1      -1.469   0.773  -1.037  1.00  0.00    -0.267 OA
HETATM    2  N2  UNK     1       0.535  -0.120  -0.181  1.00  0.00    -0.323 N 
HETATM    3  C11 UNK     1      -0.833   0.112  -0.218  1.00  0.00     0.262 C 
HETATM    4  H13 UNK     1       0.906  -0.713   0.557  1.00  0.00     0.169 HD
ENDROOT
BRANCH   2   5
HETATM    5  C10 UNK     1       1.516   0.357  -1.085  1.00  0.00     0.035 A 
HETATM    6  C8  UNK     1       1.126   1.152  -2.149  1.00  0.00     0.031 A 
HETATM    7  C6  UNK     1       2.092   1.621  -3.039  1.00  0.00     0.027 A 
HETATM    8  C5  UNK     1       3.434   1.288  -2.851  1.00  0.00     0.074 A 
HETATM    9  C7  UNK     1       3.809   0.486  -1.773  1.00  0.00     0.027 A 
HETATM   10  C9  UNK     1       2.843   0.017  -0.883  1.00  0.00     0.031 A 
BRANCH   8  11
HETATM   11  S1  UNK     1       4.643   1.874  -3.965  1.00  0.00     0.243 S 
HETATM   12  O1  UNK     1       5.786   0.974  -3.919  1.00  0.00    -0.206 OA
HETATM   13  O2  UNK     1       3.999   2.160  -5.240  1.00  0.00    -0.206 OA
BRANCH  11  14
HETATM   14  N1  UNK     1       5.074   3.345  -3.232  1.00  0.00    -0.206 NA
HETATM   15  C1  UNK     1       5.901   3.287  -1.995  1.00  0.00     0.107 C 
HETATM   16  C3  UNK     1       5.628   4.615  -1.308  1.00  0.00     0.017 C 
HETATM   17  C4  UNK     1       4.156   4.834  -1.598  1.00  0.00     0.017 C 
HETATM   18  C2  UNK     1       4.010   4.374  -3.042  1.00  0.00     0.107 C 
ENDBRANCH  11  14
ENDBRANCH   8  11
ENDBRANCH   2   5
BRANCH   3  19
HETATM   19  C12 UNK     1      -1.536  -0.549   0.888  1.00  0.00     0.108 A 
HETATM   20  C14 UNK     1      -2.797  -0.927   0.646  1.00  0.00     0.037 A 
HETATM   21  C13 UNK     1      -3.575  -1.590   1.680  1.00  0.00     0.001 A 
HETATM   22  C15 UNK     1      -2.988  -1.821   2.920  1.00  0.00     0.089 A 
HETATM   23  C16 UNK     1      -4.894  -2.003   1.471  1.00  0.00     0.050 A 
HETATM   24  O3  UNK     1      -1.661  -1.421   3.170  1.00  0.00    -0.274 OA
HETATM   25  C18 UNK     1      -3.680  -2.451   3.954  1.00  0.00     0.041 A 
HETATM   26  C17 UNK     1      -0.891  -0.786   2.199  1.00  0.00     0.304 A 
HETATM   27  O5  UNK     1       0.263  -0.440   2.426  1.00  0.00    -0.259 OA
HETATM   28  C20 UNK     1      -4.994  -2.859   3.737  1.00  0.00     0.039 A 
HETATM   29  C19 UNK     1      -5.600  -2.636   2.498  1.00  0.00     0.103 A 
BRANCH  29  30
HETATM   30  N3  UNK     1      -6.940  -3.053   2.282  1.00  0.00    -0.116 N 
HETATM   31  O6  UNK     1      -7.559  -3.618   3.215  1.00  0.00    -0.532 OA
HETATM   32  O7  UNK     1      -7.468  -2.844   1.163  1.00  0.00    -0.532 OA
ENDBRANCH  29  30
ENDBRANCH   3  19
TORSDOF 5
