REMARK  2 active torsions:
REMARK  status: ('A' for Active; 'I' for Inactive)
REMARK       I    between atoms: C10_14  and  N1_4 
REMARK    1  A    between atoms: C2_6  and  N1_4 
REMARK    2  A    between atoms: C10_14  and  C4_8 
ROOT
HETATM    1  O2  UNK     1       0.463   0.324   1.973  1.00  0.00    -0.267 OA
HETATM    2  N1  UNK     1      -1.196  -0.257   0.399  1.00  0.00    -0.322 N 
HETATM    3  C10 UNK     1       0.014   0.269   0.830  1.00  0.00     0.262 C 
HETATM    4  H1  UNK     1      -1.316  -0.388  -0.602  1.00  0.00     0.169 HD
ENDROOT
BRANCH   3   5
HETATM    5  C4  UNK     1       0.802   0.812  -0.284  1.00  0.00     0.108 A 
HETATM    6  C14 UNK     1       0.165   1.378  -1.494  1.00  0.00     0.304 A 
HETATM    7  O1  UNK     1       1.018   1.861  -2.482  1.00  0.00    -0.274 OA
HETATM    8  O3  UNK     1      -1.054   1.422  -1.625  1.00  0.00    -0.259 OA
HETATM    9  C9  UNK     1       2.419   1.815  -2.341  1.00  0.00     0.089 A 
HETATM   10  C16 UNK     1       3.192   2.324  -3.384  1.00  0.00     0.038 A 
HETATM   11  C5  UNK     1       2.998   1.278  -1.196  1.00  0.00    -0.001 A 
HETATM   12  C18 UNK     1       4.580   2.293  -3.273  1.00  0.00     0.003 A 
HETATM   13  C17 UNK     1       5.178   1.757  -2.131  1.00  0.00     0.001 A 
HETATM   14  C15 UNK     1       4.390   1.251  -1.093  1.00  0.00     0.014 A 
HETATM   15  C8  UNK     1       2.132   0.765  -0.145  1.00  0.00     0.037 A 
ENDBRANCH   3   5
BRANCH   2  16
HETATM   16  C2  UNK     1      -2.172  -0.847   1.207  1.00  0.00     0.041 A 
HETATM   17  C1  UNK     1      -3.003  -1.850   0.710  1.00  0.00    -0.029 A 
HETATM   18  C3  UNK     1      -3.971  -2.425   1.534  1.00  0.00    -0.054 A 
HETATM   19  C11 UNK     1      -2.859  -2.316  -0.705  1.00  0.00     0.051 C 
HETATM   20  C13 UNK     1      -4.873  -3.503   1.028  1.00  0.00     0.049 C 
HETATM   21  C7  UNK     1      -4.108  -1.996   2.854  1.00  0.00     0.007 A 
HETATM   22  C12 UNK     1      -3.276  -0.992   3.351  1.00  0.00     0.003 A 
HETATM   23  C6  UNK     1      -2.308  -0.418   2.527  1.00  0.00     0.030 A 
ENDBRANCH   2  16
TORSDOF 2
