REMARK  6 active torsions:
REMARK  status: ('A' for Active; 'I' for Inactive)
REMARK    1  A    between atoms: C1_8  and  O1_5 
REMARK    2  A    between atoms: C4_11  and  O1_5 
REMARK    3  A    between atoms: C3_10  and  O2_6 
REMARK    4  A    between atoms: C2_9  and  C9_16 
REMARK    5  A    between atoms: C4_11  and  C6_13 
REMARK    6  A    between atoms: C10_17  and  C11_18 
ROOT
HETATM    1  N1  UNK     1       0.372   3.138  -1.588  1.00  0.00    -0.191 NA
HETATM    2  C9  UNK     1       2.561   0.477  -1.442  1.00  0.00     0.036 C 
HETATM    3  C10 UNK     1       2.532   1.737  -1.954  1.00  0.00     0.055 C 
HETATM    4  C23 UNK     1       1.332   2.505  -1.746  1.00  0.00     0.100 C 
ENDROOT
BRANCH   3   5
HETATM    5  C11 UNK     1       3.636   2.340  -2.682  1.00  0.00    -0.014 A 
HETATM    6  C16 UNK     1       4.618   3.055  -1.996  1.00  0.00     0.032 A 
HETATM    7  C19 UNK     1       5.677   3.633  -2.696  1.00  0.00     0.011 A 
HETATM    8 Br2  UNK     1       7.008   4.602  -1.767  1.00  0.00    -0.051 Br
HETATM    9  C21 UNK     1       5.755   3.497  -4.082  1.00  0.00     0.019 A 
HETATM   10  C20 UNK     1       4.773   2.782  -4.768  1.00  0.00     0.002 A 
HETATM   11  C17 UNK     1       3.714   2.204  -4.068  1.00  0.00     0.013 A 
ENDBRANCH   3   5
BRANCH   2  12
HETATM   12  C2  UNK     1       1.473  -0.169  -0.694  1.00  0.00    -0.015 A 
HETATM   13  C5  UNK     1       0.533  -0.880  -1.431  1.00  0.00     0.052 A 
HETATM   14  C3  UNK     1      -0.521  -1.513  -0.774  1.00  0.00     0.102 A 
HETATM   15  C1  UNK     1      -0.627  -1.432   0.615  1.00  0.00     0.103 A 
HETATM   16  C7  UNK     1       0.322  -0.716   1.346  1.00  0.00     0.059 A 
HETATM   17  C8  UNK     1       1.376  -0.083   0.688  1.00  0.00     0.024 A 
HETATM   18 Br1  UNK     1       2.633   0.875   1.743  1.00  0.00    -0.050 Br
BRANCH  14  19
HETATM   19  O2  UNK     1      -1.442  -2.209  -1.498  1.00  0.00    -0.353 OA
HETATM   20  C22 UNK     1      -2.583  -1.489  -1.958  1.00  0.00     0.210 C 
ENDBRANCH  14  19
BRANCH  15  21
HETATM   21  O1  UNK     1      -1.652  -2.046   1.268  1.00  0.00    -0.344 OA
BRANCH  21  22
HETATM   22  C4  UNK     1      -2.100  -1.445   2.482  1.00  0.00     0.216 C 
BRANCH  22  23
HETATM   23  C6  UNK     1      -3.554  -1.762   2.677  1.00  0.00    -0.012 A 
HETATM   24  C12 UNK     1      -4.552  -0.932   2.176  1.00  0.00     0.044 A 
HETATM   25 Cl1  UNK     1      -4.172   0.508   1.303  1.00  0.00    -0.084 Cl
HETATM   26  C14 UNK     1      -5.892  -1.259   2.378  1.00  0.00     0.048 A 
HETATM   27  C18 UNK     1      -6.229  -2.416   3.080  1.00  0.00     0.035 A 
HETATM   28  C15 UNK     1      -5.226  -3.245   3.581  1.00  0.00     0.024 A 
HETATM   29 Cl2  UNK     1      -7.883  -2.821   3.330  1.00  0.00    -0.084 Cl
HETATM   30  C13 UNK     1      -3.885  -2.918   3.379  1.00  0.00     0.013 A 
ENDBRANCH  22  23
ENDBRANCH  21  22
ENDBRANCH  15  21
ENDBRANCH   2  12
TORSDOF 6
