REMARK  7 active torsions:
REMARK  status: ('A' for Active; 'I' for Inactive)
REMARK    1  A    between atoms: C20_27  and  O4_4 
REMARK    2  A    between atoms: C5_12  and  N1_5 
REMARK    3  A    between atoms: C6_13  and  N2_6 
REMARK    4  A    between atoms: C18_25  and  N3_7 
REMARK       I    between atoms: C9_16  and  N3_7 
REMARK    5  A    between atoms: C5_12  and  C7_14 
REMARK    6  A    between atoms: C6_13  and  C9_16 
REMARK    7  A    between atoms: C13_20  and  C17_24 
ROOT
HETATM    1  N1  UNK     1       1.575  -0.404  -1.213  1.00  0.00     0.096 N 
HETATM    2  N2  UNK     1      -0.926  -1.713  -0.584  1.00  0.00     0.100 N 
HETATM    3  C1  UNK     1       1.069  -1.514  -2.030  1.00  0.00     0.303 C 
HETATM    4  C2  UNK     1       1.109  -0.534   0.174  1.00  0.00     0.303 C 
HETATM    5  C3  UNK     1      -0.461  -1.582  -1.971  1.00  0.00     0.303 C 
HETATM    6  C4  UNK     1      -0.421  -0.601   0.231  1.00  0.00     0.303 C 
ENDROOT
BRANCH   1   7
HETATM    7  C5  UNK     1       3.034  -0.343  -1.267  1.00  0.00     0.312 C 
BRANCH   7   8
HETATM    8  C7  UNK     1       3.556   0.994  -0.872  1.00  0.00    -0.011 A 
HETATM    9  C10 UNK     1       3.854   1.272   0.405  1.00  0.00     0.092 A 
HETATM   10  C14 UNK     1       4.372   2.579   0.844  1.00  0.00     0.288 A 
HETATM   11  O1  UNK     1       4.547   3.541  -0.138  1.00  0.00    -0.275 OA
HETATM   12  O3  UNK     1       4.635   2.795   2.022  1.00  0.00    -0.260 OA
HETATM   13  C11 UNK     1       4.242   3.279  -1.489  1.00  0.00     0.090 A 
HETATM   14  C8  UNK     1       3.752   2.035  -1.890  1.00  0.00     0.007 A 
HETATM   15  C15 UNK     1       4.457   4.322  -2.392  1.00  0.00     0.039 A 
HETATM   16  C12 UNK     1       3.473   1.855  -3.251  1.00  0.00     0.022 A 
HETATM   17  C13 UNK     1       3.683   2.891  -4.168  1.00  0.00    -0.058 A 
HETATM   18  C16 UNK     1       4.175   4.122  -3.739  1.00  0.00     0.010 A 
BRANCH  17  19
HETATM   19  C17 UNK     1       3.380   2.676  -5.613  1.00  0.00     0.034 C 
HETATM   20  C19 UNK     1       1.941   3.047  -5.965  1.00  0.00     0.010 C 
ENDBRANCH  17  19
ENDBRANCH   7   8
ENDBRANCH   1   7
BRANCH   2  21
HETATM   21  C6  UNK     1      -2.385  -1.775  -0.529  1.00  0.00     0.375 C 
BRANCH  21  22
HETATM   22  C9  UNK     1      -2.815  -2.391   0.791  1.00  0.00     0.250 C 
HETATM   23  N3  UNK     1      -4.052  -1.882   1.180  1.00  0.00    -0.323 N 
HETATM   24  H15 UNK     1      -4.502  -1.207   0.565  1.00  0.00     0.169 HD
HETATM   25  O2  UNK     1      -2.129  -3.211   1.393  1.00  0.00    -0.271 OA
BRANCH  23  26
HETATM   26  C18 UNK     1      -4.790  -2.201   2.344  1.00  0.00     0.068 A 
HETATM   27  C20 UNK     1      -6.024  -1.600   2.592  1.00  0.00     0.095 A 
HETATM   28  C22 UNK     1      -6.740  -1.925   3.744  1.00  0.00     0.039 A 
HETATM   29  C24 UNK     1      -6.222  -2.851   4.649  1.00  0.00     0.003 A 
HETATM   30  C23 UNK     1      -4.988  -3.453   4.402  1.00  0.00     0.002 A 
HETATM   31  C21 UNK     1      -4.272  -3.127   3.249  1.00  0.00     0.032 A 
BRANCH  27  32
HETATM   32  O4  UNK     1      -6.549  -0.692   1.720  1.00  0.00    -0.354 OA
HETATM   33  C25 UNK     1      -6.215   0.678   1.934  1.00  0.00     0.210 C 
ENDBRANCH  27  32
ENDBRANCH  23  26
ENDBRANCH  21  22
ENDBRANCH   2  21
TORSDOF 7
