REMARK  5 active torsions:
REMARK  status: ('A' for Active; 'I' for Inactive)
REMARK    1  A    between atoms: C13_17  and  O2_2 
REMARK    2  A    between atoms: C17_21  and  O2_2 
REMARK    3  A    between atoms: C5_9  and  O3_3 
REMARK    4  A    between atoms: C3_7  and  C4_8 
REMARK    5  A    between atoms: C17_21  and  C18_22 
ROOT
HETATM    1  O1  UNK     1      -2.093  -0.325   1.714  1.00  0.00    -0.306 OA
HETATM    2  O4  UNK     1      -4.218  -3.355   0.009  1.00  0.00    -0.284 OA
HETATM    3  C1  UNK     1      -3.818  -2.020   1.912  1.00  0.00     0.051 A 
HETATM    4  C2  UNK     1      -3.057  -0.979   2.437  1.00  0.00     0.091 A 
HETATM    5  C3  UNK     1      -1.878  -0.709   0.400  1.00  0.00     0.123 A 
HETATM    6  C5  UNK     1      -2.537  -1.703  -0.222  1.00  0.00     0.152 A 
HETATM    7  C6  UNK     1      -3.584  -2.443   0.523  1.00  0.00     0.220 A 
HETATM    8  C7  UNK     1      -3.259  -0.561   3.753  1.00  0.00     0.045 A 
HETATM    9  C8  UNK     1      -4.225  -1.189   4.540  1.00  0.00    -0.059 A 
HETATM   10  C9  UNK     1      -4.787  -2.651   2.697  1.00  0.00     0.019 A 
HETATM   11  C10 UNK     1      -4.988  -2.231   4.012  1.00  0.00     0.008 A 
HETATM   12  C16 UNK     1      -4.442  -0.746   5.947  1.00  0.00     0.048 C 
ENDROOT
BRANCH   5  13
HETATM   13  C4  UNK     1      -0.819   0.073  -0.261  1.00  0.00     0.001 A 
HETATM   14  C11 UNK     1      -1.142   1.235  -0.962  1.00  0.00     0.017 A 
HETATM   15  C14 UNK     1      -0.139   1.975  -1.588  1.00  0.00     0.037 A 
HETATM   16  C13 UNK     1       1.189   1.554  -1.512  1.00  0.00     0.069 A 
HETATM   17  C15 UNK     1       1.513   0.392  -0.811  1.00  0.00     0.037 A 
HETATM   18  C12 UNK     1       0.509  -0.348  -0.186  1.00  0.00     0.017 A 
BRANCH  16  19
HETATM   19  O2  UNK     1       2.167   2.276  -2.123  1.00  0.00    -0.347 OA
BRANCH  19  20
HETATM   20  C17 UNK     1       3.503   1.789  -2.006  1.00  0.00     0.214 C 
BRANCH  20  21
HETATM   21  C18 UNK     1       4.432   2.732  -2.713  1.00  0.00    -0.034 A 
HETATM   22  C19 UNK     1       4.718   2.536  -4.059  1.00  0.00     0.009 A 
HETATM   23  C21 UNK     1       5.581   3.413  -4.717  1.00  0.00     0.001 A 
HETATM   24  C23 UNK     1       6.152   4.480  -4.023  1.00  0.00     0.000 A 
HETATM   25  C22 UNK     1       5.861   4.670  -2.672  1.00  0.00     0.001 A 
HETATM   26  C20 UNK     1       4.998   3.793  -2.015  1.00  0.00     0.009 A 
ENDBRANCH  20  21
ENDBRANCH  19  20
ENDBRANCH  16  19
ENDBRANCH   5  13
BRANCH   6  27
HETATM   27  O3  UNK     1      -2.275  -2.082  -1.521  1.00  0.00    -0.355 OA
HETATM   28  H13 UNK     1      -1.571  -1.525  -1.891  1.00  0.00     0.218 HD
ENDBRANCH   6  27
TORSDOF 5
