REMARK  10 active torsions:
REMARK  status: ('A' for Active; 'I' for Inactive)
REMARK    1  A    between atoms: C1_6  and  O1_1 
REMARK    2  A    between atoms: C5_10  and  O1_1 
REMARK    3  A    between atoms: C13_18  and  O2_2 
REMARK    4  A    between atoms: C2_7  and  O2_2 
REMARK    5  A    between atoms: C11_16  and  O3_3 
REMARK    6  A    between atoms: C8_13  and  O3_3 
REMARK    7  A    between atoms: C14_19  and  O4_4 
REMARK    8  A    between atoms: C3_8  and  C9_14 
REMARK    9  A    between atoms: C5_10  and  C8_13 
REMARK   10  A    between atoms: C10_15  and  C12_17 
ROOT
HETATM    1  N1  UNK     1      -7.028  -2.563   1.476  1.00  0.00    -0.191 NA
HETATM    2  C9  UNK     1      -4.319  -0.763   0.328  1.00  0.00     0.035 C 
HETATM    3  C10 UNK     1      -4.607  -1.624   1.341  1.00  0.00     0.055 C 
HETATM    4  C25 UNK     1      -5.950  -2.138   1.407  1.00  0.00     0.100 C 
ENDROOT
BRANCH   3   5
HETATM    5  C12 UNK     1      -3.640  -2.050   2.341  1.00  0.00    -0.015 A 
HETATM    6  C16 UNK     1      -2.856  -3.181   2.115  1.00  0.00     0.013 A 
HETATM    7  C22 UNK     1      -1.929  -3.590   3.073  1.00  0.00     0.001 A 
HETATM    8  C24 UNK     1      -1.785  -2.867   4.258  1.00  0.00     0.000 A 
HETATM    9  C23 UNK     1      -2.569  -1.736   4.483  1.00  0.00     0.001 A 
HETATM   10  C17 UNK     1      -3.496  -1.327   3.525  1.00  0.00     0.013 A 
ENDBRANCH   3   5
BRANCH   2  11
HETATM   11  C3  UNK     1      -3.021  -0.113   0.099  1.00  0.00    -0.032 A 
HETATM   12  C4  UNK     1      -2.057  -0.739  -0.692  1.00  0.00     0.051 A 
HETATM   13  C2  UNK     1      -0.825  -0.121  -0.909  1.00  0.00     0.102 A 
HETATM   14  C1  UNK     1      -0.557   1.121  -0.334  1.00  0.00     0.102 A 
HETATM   15  C6  UNK     1      -1.521   1.746   0.458  1.00  0.00     0.040 A 
HETATM   16  C7  UNK     1      -2.753   1.129   0.674  1.00  0.00     0.014 A 
BRANCH  13  17
HETATM   17  O2  UNK     1       0.108  -0.742  -1.684  1.00  0.00    -0.349 OA
BRANCH  17  18
HETATM   18  C13 UNK     1       0.560  -2.024  -1.253  1.00  0.00     0.171 C 
HETATM   19  C18 UNK     1       1.985  -2.227  -1.721  1.00  0.00     0.034 C 
ENDBRANCH  17  18
ENDBRANCH  13  17
BRANCH  14  20
HETATM   20  O1  UNK     1       0.642   1.734  -0.539  1.00  0.00    -0.346 OA
BRANCH  20  21
HETATM   21  C5  UNK     1       1.432   2.015   0.615  1.00  0.00     0.202 C 
BRANCH  21  22
HETATM   22  C8  UNK     1       2.728   2.671   0.179  1.00  0.00     0.202 C 
BRANCH  22  23
HETATM   23  O3  UNK     1       3.440   1.777  -0.668  1.00  0.00    -0.346 OA
BRANCH  23  24
HETATM   24  C11 UNK     1       4.224   2.340  -1.640  1.00  0.00     0.102 A 
HETATM   25  C14 UNK     1       3.988   2.067  -2.988  1.00  0.00     0.101 A 
HETATM   26  C19 UNK     1       4.793   2.646  -3.968  1.00  0.00     0.039 A 
HETATM   27  C21 UNK     1       5.835   3.499  -3.601  1.00  0.00     0.003 A 
HETATM   28  C20 UNK     1       6.071   3.771  -2.254  1.00  0.00     0.003 A 
HETATM   29  C15 UNK     1       5.265   3.192  -1.273  1.00  0.00     0.039 A 
BRANCH  25  30
HETATM   30  O4  UNK     1       2.973   1.237  -3.359  1.00  0.00    -0.353 OA
HETATM   31  C26 UNK     1       2.799   1.011  -4.756  1.00  0.00     0.210 C 
ENDBRANCH  25  30
ENDBRANCH  23  24
ENDBRANCH  22  23
ENDBRANCH  21  22
ENDBRANCH  20  21
ENDBRANCH  14  20
ENDBRANCH   2  11
TORSDOF 10
