REMARK  1 active torsions:
REMARK  status: ('A' for Active; 'I' for Inactive)
REMARK    1  A    between atoms: C1_4  and  C2_5 
ROOT
HETATM    1 Br1  UNK     1      -4.652  -1.907   3.519  1.00  0.00    -0.051 Br
HETATM    2  O1  UNK     1      -0.247   0.840   0.412  1.00  0.00    -0.309 OA
HETATM    3  O2  UNK     1      -2.057  -2.379  -1.309  1.00  0.00    -0.287 OA
HETATM    4  C1  UNK     1       0.132   0.374  -0.838  1.00  0.00     0.090 A 
HETATM    5  C3  UNK     1      -1.911  -0.924   0.548  1.00  0.00     0.049 A 
HETATM    6  C4  UNK     1      -1.251   0.183   1.077  1.00  0.00     0.090 A 
HETATM    7  C5  UNK     1      -0.431  -0.677  -1.456  1.00  0.00     0.093 A 
HETATM    8  C6  UNK     1      -1.519  -1.415  -0.782  1.00  0.00     0.187 A 
HETATM    9  C10 UNK     1      -2.927  -1.553   1.270  1.00  0.00     0.037 A 
HETATM   10  C11 UNK     1      -1.605   0.670   2.336  1.00  0.00     0.039 A 
HETATM   11  C14 UNK     1      -3.279  -1.065   2.529  1.00  0.00     0.012 A 
HETATM   12  C15 UNK     1      -2.619   0.044   3.061  1.00  0.00     0.022 A 
ENDROOT
BRANCH   4  13
HETATM   13  C2  UNK     1       1.216   1.155  -1.466  1.00  0.00    -0.002 A 
HETATM   14  C7  UNK     1       2.182   1.780  -0.674  1.00  0.00     0.021 A 
HETATM   15  C8  UNK     1       3.207   2.517  -1.268  1.00  0.00    -0.061 A 
HETATM   16  C12 UNK     1       3.268   2.632  -2.657  1.00  0.00     0.007 A 
HETATM   17  C16 UNK     1       4.238   3.181  -0.419  1.00  0.00     0.048 C 
HETATM   18  C13 UNK     1       2.305   2.010  -3.451  1.00  0.00     0.001 A 
HETATM   19  C9  UNK     1       1.281   1.273  -2.857  1.00  0.00     0.014 A 
ENDBRANCH   4  13
TORSDOF 1
