REMARK  6 active torsions:
REMARK  status: ('A' for Active; 'I' for Inactive)
REMARK    1  A    between atoms: C3_8  and  O1_1 
REMARK    2  A    between atoms: C6_11  and  O1_1 
REMARK    3  A    between atoms: C1_6  and  O2_2 
REMARK    4  A    between atoms: C2_7  and  O3_3 
REMARK    5  A    between atoms: C1_6  and  C2_7 
REMARK    6  A    between atoms: C2_7  and  C3_8 
ROOT
HETATM    1  O4  UNK     1       1.819   0.940  -2.868  1.00  0.00    -0.275 OA
HETATM    2  O5  UNK     1       2.863   2.009  -4.603  1.00  0.00    -0.260 OA
HETATM    3  C6  UNK     1       0.541  -0.331   0.329  1.00  0.00     0.077 A 
HETATM    4  C7  UNK     1       1.243   0.455   1.241  1.00  0.00    -0.028 A 
HETATM    5  C8  UNK     1       0.734  -0.168  -1.038  1.00  0.00     0.075 A 
HETATM    6  C9  UNK     1       2.354   1.591  -0.584  1.00  0.00    -0.001 A 
HETATM    7  C10 UNK     1       1.642   0.794  -1.477  1.00  0.00     0.092 A 
HETATM    8  C11 UNK     1       2.150   1.417   0.787  1.00  0.00     0.023 A 
HETATM    9  C12 UNK     1       1.040   0.286   2.711  1.00  0.00     0.051 C 
HETATM   10  C13 UNK     1       3.284   2.574  -1.111  1.00  0.00     0.020 A 
HETATM   11  C14 UNK     1       3.447   2.706  -2.430  1.00  0.00     0.083 A 
HETATM   12  C15 UNK     1       2.704   1.875  -3.395  1.00  0.00     0.288 A 
ENDROOT
BRANCH   3  13
HETATM   13  O1  UNK     1      -0.349  -1.274   0.766  1.00  0.00    -0.348 OA
BRANCH  13  14
HETATM   14  C3  UNK     1      -1.701  -1.123   0.342  1.00  0.00     0.210 C 
BRANCH  14  15
HETATM   15  C2  UNK     1      -2.638  -1.731   1.389  1.00  0.00     0.175 C 
BRANCH  15  16
HETATM   16  C1  UNK     1      -4.144  -1.596   1.063  1.00  0.00     0.078 C 
HETATM   17  C4  UNK     1      -4.503  -2.366  -0.215  1.00  0.00     0.048 C 
HETATM   18  C5  UNK     1      -5.021  -2.086   2.220  1.00  0.00     0.048 C 
BRANCH  16  19
HETATM   19  O2  UNK     1      -4.438  -0.215   0.836  1.00  0.00    -0.388 OA
HETATM   20  H10 UNK     1      -4.311   0.264   1.673  1.00  0.00     0.210 HD
ENDBRANCH  16  19
ENDBRANCH  15  16
BRANCH  15  21
HETATM   21  O3  UNK     1      -2.362  -1.080   2.636  1.00  0.00    -0.390 OA
HETATM   22  H11 UNK     1      -2.475  -0.123   2.508  1.00  0.00     0.210 HD
ENDBRANCH  15  21
ENDBRANCH  14  15
ENDBRANCH  13  14
ENDBRANCH   3  13
TORSDOF 6
