REMARK  3 active torsions:
REMARK  status: ('A' for Active; 'I' for Inactive)
REMARK    1  A    between atoms: C6_14  and  S1_1 
REMARK    2  A    between atoms: N1_7  and  S1_1 
REMARK       I    between atoms: C5_13  and  N2_8 
REMARK    3  A    between atoms: C5_13  and  C7_15 
ROOT
HETATM    1  O3  UNK     1       2.811  -1.280   0.882  1.00  0.00    -0.267 OA
HETATM    2  N1  UNK     1      -1.812  -0.126   2.226  1.00  0.00    -0.203 NA
HETATM    3  N2  UNK     1       0.913  -0.035   1.389  1.00  0.00    -0.345 N 
HETATM    4  C1  UNK     1      -0.968  -1.355   2.292  1.00  0.00     0.127 C 
HETATM    5  C2  UNK     1      -1.413   0.749   1.086  1.00  0.00     0.127 C 
HETATM    6  C3  UNK     1       0.492  -0.950   2.453  1.00  0.00     0.141 C 
HETATM    7  C4  UNK     1       0.054   1.148   1.230  1.00  0.00     0.141 C 
HETATM    8  C5  UNK     1       2.081  -0.308   0.682  1.00  0.00     0.260 C 
ENDROOT
BRANCH   8   9
HETATM    9  C7  UNK     1       2.479   0.638  -0.379  1.00  0.00     0.108 A 
HETATM   10  C10 UNK     1       2.007   0.384  -1.605  1.00  0.00     0.037 A 
HETATM   11  C12 UNK     1       2.344   1.259  -2.717  1.00  0.00    -0.001 A 
HETATM   12  C15 UNK     1       3.164   2.358  -2.484  1.00  0.00     0.089 A 
HETATM   13  C17 UNK     1       1.873   1.033  -4.013  1.00  0.00     0.014 A 
HETATM   14  O4  UNK     1       3.658   2.621  -1.191  1.00  0.00    -0.274 OA
HETATM   15  C18 UNK     1       3.524   3.235  -3.505  1.00  0.00     0.038 A 
HETATM   16  C11 UNK     1       3.352   1.802  -0.108  1.00  0.00     0.304 A 
HETATM   17  O5  UNK     1       3.788   2.038   1.014  1.00  0.00    -0.259 OA
HETATM   18  C20 UNK     1       3.050   3.002  -4.794  1.00  0.00     0.003 A 
HETATM   19  C19 UNK     1       2.226   1.903  -5.048  1.00  0.00     0.001 A 
ENDBRANCH   8   9
BRANCH   2  20
HETATM   20  S1  UNK     1      -3.497  -0.384   2.399  1.00  0.00     0.243 S 
HETATM   21  O1  UNK     1      -4.193   0.860   2.149  1.00  0.00    -0.206 OA
HETATM   22  O2  UNK     1      -3.735  -1.143   3.608  1.00  0.00    -0.206 OA
BRANCH  20  23
HETATM   23  C6  UNK     1      -3.787  -1.450   1.022  1.00  0.00     0.074 A 
HETATM   24  C8  UNK     1      -3.680  -2.821   1.192  1.00  0.00     0.025 A 
HETATM   25  C13 UNK     1      -3.907  -3.664   0.103  1.00  0.00     0.002 A 
HETATM   26  C16 UNK     1      -4.239  -3.124  -1.139  1.00  0.00     0.000 A 
HETATM   27  C14 UNK     1      -4.343  -1.741  -1.294  1.00  0.00     0.002 A 
HETATM   28  C9  UNK     1      -4.115  -0.899  -0.206  1.00  0.00     0.025 A 
ENDBRANCH  20  23
ENDBRANCH   2  20
TORSDOF 3
