REMARK  6 active torsions:
REMARK  status: ('A' for Active; 'I' for Inactive)
REMARK    1  A    between atoms: C15_20  and  O4_4 
REMARK    2  A    between atoms: C6_11  and  N1_5 
REMARK       I    between atoms: C8_13  and  N1_5 
REMARK    3  A    between atoms: C1_6  and  C4_9 
REMARK    4  A    between atoms: C4_9  and  C8_13 
REMARK    5  A    between atoms: C6_11  and  C7_12 
REMARK    6  A    between atoms: C12_17  and  C7_12 
ROOT
HETATM    1  O1  UNK     1       0.349   1.654  -1.761  1.00  0.00    -0.274 OA
HETATM    2  O3  UNK     1      -1.432   1.545  -0.358  1.00  0.00    -0.259 OA
HETATM    3  C1  UNK     1       0.711   1.227   0.633  1.00  0.00     0.033 A 
HETATM    4  C2  UNK     1       2.044   1.128   0.445  1.00  0.00    -0.036 A 
HETATM    5  C3  UNK     1       2.604   1.334  -0.907  1.00  0.00     0.005 A 
HETATM    6  C5  UNK     1       1.735   1.589  -1.964  1.00  0.00     0.092 A 
HETATM    7  C9  UNK     1      -0.216   1.487  -0.507  1.00  0.00     0.295 A 
HETATM    8  C10 UNK     1       3.022   0.798   1.546  1.00  0.00     0.050 C 
HETATM    9  C11 UNK     1       3.977   1.301  -1.201  1.00  0.00     0.017 A 
HETATM   10  C13 UNK     1       2.182   1.795  -3.272  1.00  0.00     0.074 A 
HETATM   11  C14 UNK     1       4.442   1.506  -2.505  1.00  0.00     0.037 A 
HETATM   12  C15 UNK     1       3.545   1.751  -3.541  1.00  0.00     0.068 A 
ENDROOT
BRANCH   3  13
HETATM   13  C4  UNK     1       0.016   1.103   1.965  1.00  0.00     0.148 C 
BRANCH  13  14
HETATM   14  C8  UNK     1      -0.338  -0.348   2.188  1.00  0.00     0.222 C 
HETATM   15  O2  UNK     1       0.336  -1.268   1.728  1.00  0.00    -0.273 OA
HETATM   16  N1  UNK     1      -1.492  -0.502   2.938  1.00  0.00    -0.360 N 
HETATM   17  H10 UNK     1      -1.958   0.321   3.310  1.00  0.00     0.162 HD
BRANCH  16  18
HETATM   18  C6  UNK     1      -2.048  -1.793   3.273  1.00  0.00     0.127 C 
BRANCH  18  19
HETATM   19  C7  UNK     1      -3.465  -1.979   2.736  1.00  0.00     0.058 C 
BRANCH  19  20
HETATM   20  C12 UNK     1      -3.539  -1.897   1.231  1.00  0.00    -0.057 A 
HETATM   21  C16 UNK     1      -3.757  -0.668   0.627  1.00  0.00     0.007 A 
HETATM   22  C18 UNK     1      -3.825  -0.592  -0.765  1.00  0.00     0.001 A 
HETATM   23  C20 UNK     1      -3.675  -1.746  -1.534  1.00  0.00     0.000 A 
HETATM   24  C19 UNK     1      -3.457  -2.975  -0.913  1.00  0.00     0.001 A 
HETATM   25  C17 UNK     1      -3.388  -3.051   0.478  1.00  0.00     0.007 A 
ENDBRANCH  19  20
ENDBRANCH  18  19
ENDBRANCH  16  18
ENDBRANCH  13  14
ENDBRANCH   3  13
BRANCH  12  26
HETATM   26  O4  UNK     1       3.999   1.950  -4.807  1.00  0.00    -0.361 OA
HETATM   27  H19 UNK     1       4.970   1.885  -4.807  1.00  0.00     0.217 HD
ENDBRANCH  12  26
TORSDOF 6
