REMARK  7 active torsions:
REMARK  status: ('A' for Active; 'I' for Inactive)
REMARK    1  A    between atoms: C13_18  and  O2_2 
REMARK    2  A    between atoms: C7_12  and  O2_2 
REMARK    3  A    between atoms: C17_22  and  O4_4 
REMARK    4  A    between atoms: C18_23  and  O4_4 
REMARK    5  A    between atoms: C3_8  and  C9_14 
REMARK    6  A    between atoms: C10_15  and  C6_11 
REMARK    7  A    between atoms: C13_18  and  C17_22 
ROOT
HETATM    1  O1  UNK     1      -1.999  -0.965  -1.007  1.00  0.00    -0.274 OA
HETATM    2  O3  UNK     1      -4.051  -1.793  -1.511  1.00  0.00    -0.259 OA
HETATM    3  C1  UNK     1      -1.413  -0.456   1.298  1.00  0.00     0.005 A 
HETATM    4  C2  UNK     1      -2.752  -0.915   1.721  1.00  0.00    -0.037 A 
HETATM    5  C3  UNK     1       0.812   0.460   1.713  1.00  0.00    -0.024 A 
HETATM    6  C4  UNK     1      -1.082  -0.498  -0.053  1.00  0.00     0.093 A 
HETATM    7  C5  UNK     1      -0.439   0.039   2.180  1.00  0.00     0.024 A 
HETATM    8  C6  UNK     1      -3.636  -1.330   0.789  1.00  0.00     0.024 A 
HETATM    9  C7  UNK     1       1.113   0.397   0.355  1.00  0.00     0.079 A 
HETATM   10  C8  UNK     1       0.161  -0.083  -0.536  1.00  0.00     0.075 A 
HETATM   11  C11 UNK     1      -3.271  -1.385  -0.656  1.00  0.00     0.295 A 
HETATM   12  C12 UNK     1      -3.042  -0.906   3.202  1.00  0.00     0.050 C 
ENDROOT
BRANCH   9  13
HETATM   13  O2  UNK     1       2.325   0.802  -0.113  1.00  0.00    -0.336 OA
BRANCH  13  14
HETATM   14  C13 UNK     1       2.332   1.870  -1.060  1.00  0.00     0.224 C 
HETATM   15  C16 UNK     1       3.146   3.012  -0.477  1.00  0.00     0.051 C 
BRANCH  14  16
HETATM   16  C17 UNK     1       2.934   1.365  -2.355  1.00  0.00     0.288 C 
HETATM   17  O5  UNK     1       3.376   0.235  -2.521  1.00  0.00    -0.262 OA
BRANCH  16  18
HETATM   18  O4  UNK     1       2.881   2.349  -3.301  1.00  0.00    -0.320 OA
BRANCH  18  19
HETATM   19  C18 UNK     1       3.395   1.995  -4.589  1.00  0.00     0.174 C 
HETATM   20  C19 UNK     1       3.264   3.184  -5.516  1.00  0.00     0.034 C 
ENDBRANCH  18  19
ENDBRANCH  16  18
ENDBRANCH  14  16
ENDBRANCH  13  14
ENDBRANCH   9  13
BRANCH   5  21
HETATM   21  C9  UNK     1       1.816   0.977   2.690  1.00  0.00     0.037 C 
HETATM   22  C14 UNK     1       2.710  -0.130   3.242  1.00  0.00     0.010 C 
ENDBRANCH   5  21
BRANCH   8  23
HETATM   23  C10 UNK     1      -5.052  -1.763   1.075  1.00  0.00     0.041 C 
HETATM   24  C15 UNK     1      -5.129  -3.249   1.352  1.00  0.00     0.010 C 
ENDBRANCH   8  23
TORSDOF 7
