REMARK  2 active torsions:
REMARK  status: ('A' for Active; 'I' for Inactive)
REMARK    1  A    between atoms: C10_14  and  N1_4 
REMARK       I    between atoms: C11_15  and  N1_4 
REMARK    2  A    between atoms: C11_15  and  C5_9 
ROOT
HETATM    1  O1  UNK     1      -0.781  -0.282   0.552  1.00  0.00    -0.304 OA
HETATM    2  O2  UNK     1      -4.183  -1.669  -1.220  1.00  0.00    -0.287 OA
HETATM    3  C1  UNK     1      -2.964  -1.329   0.778  1.00  0.00     0.048 A 
HETATM    4  C2  UNK     1      -1.776  -0.836   1.320  1.00  0.00     0.091 A 
HETATM    5  C3  UNK     1      -2.536  -1.444   3.529  1.00  0.00    -0.059 A 
HETATM    6  C4  UNK     1      -1.561  -0.893   2.697  1.00  0.00     0.045 A 
HETATM    7  C5  UNK     1      -0.982  -0.219  -0.811  1.00  0.00     0.147 A 
HETATM    8  C6  UNK     1      -3.942  -1.881   1.608  1.00  0.00     0.019 A 
HETATM    9  C7  UNK     1      -3.166  -1.256  -0.679  1.00  0.00     0.187 A 
HETATM   10  C8  UNK     1      -3.724  -1.937   2.985  1.00  0.00     0.008 A 
HETATM   11  C9  UNK     1      -2.069  -0.652  -1.461  1.00  0.00     0.098 A 
HETATM   12  C12 UNK     1      -2.310  -1.508   5.002  1.00  0.00     0.048 C 
ENDROOT
BRANCH   7  13
HETATM   13  C11 UNK     1       0.090   0.375  -1.612  1.00  0.00     0.280 C 
HETATM   14  O3  UNK     1      -0.031   0.458  -2.835  1.00  0.00    -0.265 OA
HETATM   15  N1  UNK     1       1.165   0.787  -0.833  1.00  0.00    -0.321 N 
HETATM   16  H5  UNK     1       1.100   0.642   0.173  1.00  0.00     0.169 HD
BRANCH  15  17
HETATM   17  C10 UNK     1       2.367   1.397  -1.268  1.00  0.00     0.035 A 
HETATM   18  C14 UNK     1       2.570   1.648  -2.625  1.00  0.00     0.030 A 
HETATM   19  C16 UNK     1       3.754   2.249  -3.053  1.00  0.00     0.009 A 
HETATM   20  C13 UNK     1       4.734   2.599  -2.124  1.00  0.00    -0.062 A 
HETATM   21  C17 UNK     1       4.530   2.349  -0.767  1.00  0.00     0.009 A 
HETATM   22  C18 UNK     1       5.999   3.241  -2.582  1.00  0.00     0.048 C 
HETATM   23  C15 UNK     1       3.346   1.748  -0.339  1.00  0.00     0.030 A 
ENDBRANCH  15  17
ENDBRANCH   7  13
TORSDOF 2
