REMARK  6 active torsions:
REMARK  status: ('A' for Active; 'I' for Inactive)
REMARK    1  A    between atoms: C1_3  and  N1_2 
REMARK       I    between atoms: C6_8  and  N1_2 
REMARK    2  A    between atoms: C1_3  and  C2_4 
REMARK    3  A    between atoms: C2_4  and  C3_5 
REMARK    4  A    between atoms: C6_8  and  C7_9 
REMARK    5  A    between atoms: C7_9  and  C8_10 
REMARK    6  A    between atoms: C10_12  and  C9_11 
ROOT
HETATM    1  C7  UNK     1      -0.341   0.183  -0.923  1.00  0.00     0.043 C 
HETATM    2  C9  UNK     1       0.297   0.329  -2.104  1.00  0.00     0.029 C 
ENDROOT
BRANCH   1   3
HETATM    3  C6  UNK     1      -1.718  -0.427  -0.985  1.00  0.00     0.252 C 
HETATM    4  O1  UNK     1      -2.236  -0.748  -2.054  1.00  0.00    -0.268 OA
HETATM    5  N1  UNK     1      -2.330  -0.578   0.249  1.00  0.00    -0.353 N 
HETATM    6  H6  UNK     1      -1.882  -0.240   1.094  1.00  0.00     0.163 HD
BRANCH   5   7
HETATM    7  C1  UNK     1      -3.655  -1.137   0.390  1.00  0.00     0.080 C 
HETATM    8  C4  UNK     1      -4.696  -0.029   0.260  1.00  0.00     0.032 C 
BRANCH   7   9
HETATM    9  C2  UNK     1      -3.811  -1.878   1.726  1.00  0.00     0.024 C 
BRANCH   9  10
HETATM   10  C3  UNK     1      -2.769  -2.985   1.908  1.00  0.00    -0.003 C 
HETATM   11  C5  UNK     1      -2.929  -3.683   3.250  1.00  0.00     0.005 C 
ENDBRANCH   9  10
ENDBRANCH   7   9
ENDBRANCH   5   7
ENDBRANCH   1   3
BRANCH   1  12
HETATM   12  C8  UNK     1       0.280   0.577   0.357  1.00  0.00    -0.021 A 
HETATM   13  C11 UNK     1       0.098   1.866   0.828  1.00  0.00     0.012 A 
HETATM   14  C13 UNK     1       0.685   2.238   2.037  1.00  0.00     0.001 A 
HETATM   15  C17 UNK     1       1.444   1.316   2.757  1.00  0.00     0.000 A 
HETATM   16  C14 UNK     1       1.617   0.021   2.268  1.00  0.00     0.001 A 
HETATM   17  C12 UNK     1       1.030  -0.351   1.058  1.00  0.00     0.012 A 
ENDBRANCH   1  12
BRANCH   2  18
HETATM   18  C10 UNK     1       1.653   0.866  -2.287  1.00  0.00    -0.035 A 
HETATM   19  C15 UNK     1       1.827   2.231  -2.464  1.00  0.00     0.011 A 
HETATM   20  C18 UNK     1       3.113   2.742  -2.638  1.00  0.00     0.001 A 
HETATM   21  C20 UNK     1       4.211   1.882  -2.634  1.00  0.00     0.000 A 
HETATM   22  C19 UNK     1       4.023   0.511  -2.455  1.00  0.00     0.001 A 
HETATM   23  C16 UNK     1       2.737   0.000  -2.281  1.00  0.00     0.011 A 
ENDBRANCH   2  18
TORSDOF 6
