REMARK  2 active torsions:
REMARK  status: ('A' for Active; 'I' for Inactive)
REMARK    1  A    between atoms: C8_11  and  O2_2 
REMARK    2  A    between atoms: C2_5  and  C4_7 
ROOT
HETATM    1  O1  UNK     1       0.221   0.561  -2.712  1.00  0.00    -0.275 OA
HETATM    2  O3  UNK     1      -1.639  -0.181  -3.814  1.00  0.00    -0.260 OA
HETATM    3  C1  UNK     1       0.334   0.334  -0.286  1.00  0.00     0.009 A 
HETATM    4  C2  UNK     1      -0.999  -0.288  -0.294  1.00  0.00    -0.007 A 
HETATM    5  C3  UNK     1       0.902   0.739  -1.493  1.00  0.00     0.093 A 
HETATM    6  C5  UNK     1       1.068   0.541   0.888  1.00  0.00     0.018 A 
HETATM    7  C6  UNK     1      -1.622  -0.443  -1.474  1.00  0.00     0.095 A 
HETATM    8  C7  UNK     1       2.162   1.334  -1.556  1.00  0.00     0.075 A 
HETATM    9  C8  UNK     1       2.879   1.533  -0.380  1.00  0.00     0.070 A 
HETATM   10  C9  UNK     1       2.333   1.137   0.841  1.00  0.00     0.038 A 
HETATM   11  C12 UNK     1      -1.036  -0.022  -2.759  1.00  0.00     0.289 A 
ENDROOT
BRANCH   4  12
HETATM   12  C4  UNK     1      -1.733  -0.765   0.875  1.00  0.00    -0.025 A 
HETATM   13  C10 UNK     1      -2.589   0.098   1.554  1.00  0.00     0.012 A 
HETATM   14  C13 UNK     1      -3.290  -0.356   2.671  1.00  0.00     0.001 A 
HETATM   15  C15 UNK     1      -3.132  -1.672   3.105  1.00  0.00     0.000 A 
HETATM   16  C14 UNK     1      -2.273  -2.534   2.423  1.00  0.00     0.001 A 
HETATM   17  C11 UNK     1      -1.572  -2.079   1.305  1.00  0.00     0.012 A 
ENDBRANCH   4  12
BRANCH   9  18
HETATM   18  O2  UNK     1       4.109   2.113  -0.420  1.00  0.00    -0.356 OA
HETATM   19  C16 UNK     1       4.607   2.493  -1.702  1.00  0.00     0.210 C 
ENDBRANCH   9  18
TORSDOF 2
