REMARK  6 active torsions:
REMARK  status: ('A' for Active; 'I' for Inactive)
REMARK    1  A    between atoms: C6_12  and  N1_4 
REMARK    2  A    between atoms: C1_7  and  N2_5 
REMARK    3  A    between atoms: C8_14  and  N2_5 
REMARK    4  A    between atoms: C11_17  and  N3_6 
REMARK    5  A    between atoms: C8_14  and  N3_6 
REMARK    6  A    between atoms: C6_12  and  C7_13 
ROOT
HETATM    1  S1  UNK     1       0.852   2.472   1.387  1.00  0.00    -0.041 SA
HETATM    2  C8  UNK     1       0.742   0.871   0.891  1.00  0.00     0.172 C 
ENDROOT
BRANCH   2   3
HETATM    3  N2  UNK     1       0.013   0.004   1.702  1.00  0.00    -0.362 N 
HETATM    4  H12 UNK     1      -0.410   0.425   2.523  1.00  0.00     0.162 HD
BRANCH   3   5
HETATM    5  C1  UNK     1      -0.254  -1.397   1.468  1.00  0.00     0.087 C 
HETATM    6  C2  UNK     1      -1.528  -1.587   0.643  1.00  0.00     0.055 C 
HETATM    7  C4  UNK     1      -2.792  -1.294   1.457  1.00  0.00     0.275 C 
HETATM    8  N1  UNK     1      -2.836  -2.109   2.679  1.00  0.00     0.092 N 
HETATM    9  C5  UNK     1      -1.666  -1.854   3.530  1.00  0.00     0.275 C 
HETATM   10  C3  UNK     1      -0.363  -2.166   2.787  1.00  0.00     0.055 C 
BRANCH   8  11
HETATM   11  C6  UNK     1      -4.073  -1.857   3.419  1.00  0.00     0.311 C 
BRANCH  11  12
HETATM   12  C7  UNK     1      -5.291  -2.189   2.606  1.00  0.00    -0.030 A 
HETATM   13  C10 UNK     1      -5.825  -3.471   2.660  1.00  0.00     0.009 A 
HETATM   14  C13 UNK     1      -6.957  -3.779   1.905  1.00  0.00     0.001 A 
HETATM   15  C14 UNK     1      -7.547  -2.803   1.103  1.00  0.00     0.000 A 
HETATM   16  C12 UNK     1      -7.005  -1.519   1.054  1.00  0.00     0.001 A 
HETATM   17  C9  UNK     1      -5.873  -1.210   1.809  1.00  0.00     0.009 A 
ENDBRANCH  11  12
ENDBRANCH   8  11
ENDBRANCH   3   5
ENDBRANCH   2   3
BRANCH   2  18
HETATM   18  N3  UNK     1       1.255   0.286  -0.261  1.00  0.00    -0.333 N 
HETATM   19  H15 UNK     1       0.805  -0.584  -0.528  1.00  0.00     0.168 HD
BRANCH  18  20
HETATM   20  C11 UNK     1       2.035   0.812  -1.323  1.00  0.00     0.036 A 
HETATM   21  C15 UNK     1       2.976   1.782  -1.053  1.00  0.00     0.067 A 
HETATM   22  C18 UNK     1       3.733   2.285  -2.113  1.00  0.00     0.092 A 
HETATM   23  C17 UNK     1       3.567   1.839  -3.425  1.00  0.00     0.004 A 
HETATM   24  O1  UNK     1       4.685   3.274  -1.794  1.00  0.00    -0.275 OA
HETATM   25  C19 UNK     1       2.600   0.852  -3.659  1.00  0.00     0.017 A 
HETATM   26  C20 UNK     1       4.408   2.424  -4.478  1.00  0.00    -0.043 A 
HETATM   27  C16 UNK     1       1.834   0.338  -2.606  1.00  0.00     0.030 A 
HETATM   28  C21 UNK     1       5.305   3.363  -4.147  1.00  0.00     0.090 A 
HETATM   29  C22 UNK     1       4.254   1.966  -5.899  1.00  0.00     0.049 C 
HETATM   30  C23 UNK     1       5.492   3.844  -2.767  1.00  0.00     0.288 A 
HETATM   31  O2  UNK     1       6.323   4.705  -2.501  1.00  0.00    -0.260 OA
ENDBRANCH  18  20
ENDBRANCH   2  18
TORSDOF 6
