REMARK  1 active torsions:
REMARK  status: ('A' for Active; 'I' for Inactive)
REMARK    1  A    between atoms: C9_12  and  O2_2 
ROOT
HETATM    1  O1  UNK     1      -1.463  -0.407  -1.131  1.00  0.00    -0.275 OA
HETATM    2  O3  UNK     1      -3.387  -1.392  -0.386  1.00  0.00    -0.260 OA
HETATM    3  C1  UNK     1       0.264   0.213   0.482  1.00  0.00     0.004 A 
HETATM    4  C2  UNK     1      -0.590  -0.309   1.558  1.00  0.00    -0.043 A 
HETATM    5  C3  UNK     1      -0.202   0.147  -0.832  1.00  0.00     0.092 A 
HETATM    6  C4  UNK     1       1.528   0.779   0.696  1.00  0.00     0.017 A 
HETATM    7  C5  UNK     1       0.545   0.620  -1.912  1.00  0.00     0.074 A 
HETATM    8  C6  UNK     1      -1.784  -0.830   1.244  1.00  0.00     0.090 A 
HETATM    9  C7  UNK     1      -0.118  -0.252   2.982  1.00  0.00     0.049 C 
HETATM   10  C8  UNK     1       2.288   1.257  -0.377  1.00  0.00     0.037 A 
HETATM   11  C9  UNK     1       1.797   1.178  -1.679  1.00  0.00     0.068 A 
HETATM   12  C10 UNK     1      -2.289  -0.908  -0.137  1.00  0.00     0.288 A 
ENDROOT
BRANCH  11  13
HETATM   13  O2  UNK     1       2.542   1.645  -2.718  1.00  0.00    -0.361 OA
HETATM   14  H8  UNK     1       3.380   1.996  -2.372  1.00  0.00     0.217 HD
ENDBRANCH  11  13
TORSDOF 1
