REMARK  3 active torsions:
REMARK  status: ('A' for Active; 'I' for Inactive)
REMARK    1  A    between atoms: C4_7  and  N1_3 
REMARK    2  A    between atoms: C4_7  and  C7_10 
REMARK    3  A    between atoms: C16_19  and  C20_23 
ROOT
HETATM    1  O1  UNK     1      -1.088  -1.449   3.136  1.00  0.00    -0.275 OA
HETATM    2  O2  UNK     1       0.532  -0.411   4.372  1.00  0.00    -0.260 OA
HETATM    3  C7  UNK     1      -0.843   0.639   1.243  1.00  0.00    -0.011 A 
HETATM    4  C8  UNK     1      -1.802  -0.452   1.024  1.00  0.00     0.007 A 
HETATM    5  C11 UNK     1      -0.089   0.628   2.352  1.00  0.00     0.092 A 
HETATM    6  C12 UNK     1      -1.894  -1.463   1.980  1.00  0.00     0.090 A 
HETATM    7  C13 UNK     1      -2.638  -0.540  -0.098  1.00  0.00     0.022 A 
HETATM    8  C16 UNK     1      -3.529  -1.608  -0.244  1.00  0.00    -0.058 A 
HETATM    9  C17 UNK     1      -2.779  -2.536   1.849  1.00  0.00     0.039 A 
HETATM   10  C18 UNK     1      -0.175  -0.433   3.370  1.00  0.00     0.288 A 
HETATM   11  C19 UNK     1      -3.600  -2.605   0.728  1.00  0.00     0.010 A 
ENDROOT
BRANCH   3  12
HETATM   12  C4  UNK     1      -0.721   1.735   0.241  1.00  0.00     0.312 C 
BRANCH  12  13
HETATM   13  N1  UNK     1       0.277   1.435  -0.785  1.00  0.00     0.097 N 
HETATM   14  C1  UNK     1       0.023   2.216  -2.002  1.00  0.00     0.277 C 
HETATM   15  C3  UNK     1       0.945   1.738  -3.129  1.00  0.00     0.069 C 
HETATM   16  C6  UNK     1       2.383   1.614  -2.696  1.00  0.00    -0.049 A 
HETATM   17  C10 UNK     1       3.396   1.496  -3.655  1.00  0.00     0.007 A 
HETATM   18  C5  UNK     1       2.708   1.555  -1.330  1.00  0.00    -0.024 A 
HETATM   19  C15 UNK     1       4.726   1.346  -3.261  1.00  0.00     0.001 A 
HETATM   20  C14 UNK     1       5.051   1.309  -1.907  1.00  0.00     0.001 A 
HETATM   21  C9  UNK     1       4.048   1.416  -0.944  1.00  0.00     0.009 A 
HETATM   22  C2  UNK     1       1.633   1.709  -0.278  1.00  0.00     0.311 C 
ENDBRANCH  12  13
ENDBRANCH   3  12
BRANCH   8  23
HETATM   23  C20 UNK     1      -4.409  -1.682  -1.447  1.00  0.00     0.034 C 
HETATM   24  C21 UNK     1      -3.758  -2.446  -2.596  1.00  0.00     0.010 C 
ENDBRANCH   8  23
TORSDOF 3
