REMARK  5 active torsions:
REMARK  status: ('A' for Active; 'I' for Inactive)
REMARK    1  A    between atoms: C13_19  and  O2_2 
REMARK    2  A    between atoms: C20_26  and  O2_2 
REMARK    3  A    between atoms: C14_20  and  O3_3 
REMARK    4  A    between atoms: C21_27  and  O3_3 
REMARK    5  A    between atoms: C1_7  and  C6_12 
ROOT
HETATM    1  N1  UNK     1       0.683  -0.557   1.686  1.00  0.00    -0.323 N 
HETATM    2  N2  UNK     1      -0.146   2.204   0.590  1.00  0.00     0.102 N 
HETATM    3  C1  UNK     1       1.260   1.856   0.800  1.00  0.00     0.309 C 
HETATM    4  C2  UNK     1       1.558   0.501   1.411  1.00  0.00     0.054 A 
HETATM    5  C3  UNK     1      -0.747  -0.607   1.613  1.00  0.00     0.049 A 
HETATM    6  C4  UNK     1      -0.966   1.937   1.758  1.00  0.00     0.312 C 
HETATM    7  C5  UNK     1      -1.540   0.553   1.659  1.00  0.00    -0.000 A 
HETATM    8  C7  UNK     1       2.837   0.085   1.770  1.00  0.00     0.029 A 
HETATM    9  C8  UNK     1       1.462  -1.627   2.115  1.00  0.00     0.097 A 
HETATM   10  C9  UNK     1      -1.385  -1.861   1.530  1.00  0.00     0.070 A 
HETATM   11  C10 UNK     1      -2.944   0.427   1.628  1.00  0.00     0.050 A 
HETATM   12  C11 UNK     1       2.777  -1.248   2.194  1.00  0.00     0.020 A 
HETATM   13  C13 UNK     1      -2.777  -1.964   1.495  1.00  0.00     0.104 A 
HETATM   14  C14 UNK     1      -3.558  -0.820   1.546  1.00  0.00     0.102 A 
HETATM   15  H4  UNK     1      -0.532   1.739  -0.231  1.00  0.00     0.317 HD
ENDROOT
BRANCH   3  16
HETATM   16  C6  UNK     1       1.981   2.049  -0.510  1.00  0.00     0.054 A 
HETATM   17  C12 UNK     1       1.630   1.164  -1.649  1.00  0.00     0.195 A 
HETATM   18  O4  UNK     1       0.780   0.289  -1.556  1.00  0.00    -0.287 OA
HETATM   19  C16 UNK     1       2.367   1.394  -2.906  1.00  0.00     0.048 A 
HETATM   20  C17 UNK     1       3.326   2.405  -2.954  1.00  0.00     0.089 A 
HETATM   21  C18 UNK     1       2.110   0.612  -4.035  1.00  0.00     0.018 A 
HETATM   22  O1  UNK     1       3.618   3.202  -1.877  1.00  0.00    -0.321 OA
HETATM   23  C19 UNK     1       4.034   2.640  -4.133  1.00  0.00     0.038 A 
HETATM   24  C15 UNK     1       2.926   2.976  -0.713  1.00  0.00     0.156 A 
HETATM   25  C23 UNK     1       3.780   1.862  -5.262  1.00  0.00     0.003 A 
HETATM   26  C22 UNK     1       2.820   0.850  -5.213  1.00  0.00     0.001 A 
ENDBRANCH   3  16
BRANCH  14  27
HETATM   27  O3  UNK     1      -4.916  -0.901   1.538  1.00  0.00    -0.349 OA
BRANCH  27  28
HETATM   28  C21 UNK     1      -5.598  -0.237   0.476  1.00  0.00     0.171 C 
HETATM   29  C25 UNK     1      -6.875  -0.988   0.165  1.00  0.00     0.034 C 
ENDBRANCH  27  28
ENDBRANCH  14  27
BRANCH  13  30
HETATM   30  O2  UNK     1      -3.351  -3.196   1.399  1.00  0.00    -0.349 OA
BRANCH  30  31
HETATM   31  C20 UNK     1      -3.025  -3.972   0.248  1.00  0.00     0.171 C 
HETATM   32  C24 UNK     1      -4.191  -4.879  -0.082  1.00  0.00     0.034 C 
ENDBRANCH  30  31
ENDBRANCH  13  30
TORSDOF 5
