REMARK  8 active torsions:
REMARK  status: ('A' for Active; 'I' for Inactive)
REMARK    1  A    between atoms: C6_10  and  S1_1 
REMARK    2  A    between atoms: C9_13  and  S1_1 
REMARK    3  A    between atoms: C1_5  and  C2_6 
REMARK    4  A    between atoms: C1_5  and  C3_7 
REMARK    5  A    between atoms: C2_6  and  C4_8 
REMARK    6  A    between atoms: C3_7  and  C5_9 
REMARK    7  A    between atoms: C4_8  and  C6_10 
REMARK    8  A    between atoms: C8_12  and  C9_13 
ROOT
HETATM    1  O1  UNK     1      -3.952  -1.084   0.247  1.00  0.00    -0.274 OA
HETATM    2  O3  UNK     1      -2.913  -0.582  -1.726  1.00  0.00    -0.259 OA
HETATM    3  C8  UNK     1      -1.510  -1.015   0.134  1.00  0.00     0.097 A 
HETATM    4  C10 UNK     1      -2.615  -1.548   2.223  1.00  0.00    -0.001 A 
HETATM    5  C11 UNK     1      -1.414  -1.333   1.430  1.00  0.00     0.036 A 
HETATM    6  C12 UNK     1      -3.857  -1.418   1.612  1.00  0.00     0.089 A 
HETATM    7  C13 UNK     1      -2.821  -0.872  -0.538  1.00  0.00     0.303 A 
HETATM    8  C14 UNK     1      -2.562  -1.880   3.579  1.00  0.00     0.014 A 
HETATM    9  C15 UNK     1      -5.045  -1.611   2.315  1.00  0.00     0.038 A 
HETATM   10  C16 UNK     1      -3.745  -2.077   4.297  1.00  0.00     0.001 A 
HETATM   11  C17 UNK     1      -4.983  -1.943   3.666  1.00  0.00     0.003 A 
ENDROOT
BRANCH   3  12
HETATM   12  C9  UNK     1      -0.241  -0.818  -0.583  1.00  0.00     0.225 C 
HETATM   13  O2  UNK     1       0.336  -1.737  -1.147  1.00  0.00    -0.280 OA
BRANCH  12  14
HETATM   14  S1  UNK     1       0.328   0.838  -0.536  1.00  0.00    -0.087 SA
BRANCH  14  15
HETATM   15  C6  UNK     1       1.862   0.677  -1.496  1.00  0.00     0.082 C 
BRANCH  15  16
HETATM   16  C4  UNK     1       2.591   2.016  -1.572  1.00  0.00     0.010 C 
BRANCH  16  17
HETATM   17  C2  UNK     1       3.891   1.945  -2.382  1.00  0.00     0.001 C 
BRANCH  17  18
HETATM   18  C1  UNK     1       4.614   3.289  -2.489  1.00  0.00     0.000 C 
BRANCH  18  19
HETATM   19  C3  UNK     1       5.938   3.147  -3.244  1.00  0.00    -0.000 C 
BRANCH  19  20
HETATM   20  C5  UNK     1       6.682   4.480  -3.319  1.00  0.00    -0.005 C 
HETATM   21  C7  UNK     1       8.013   4.337  -4.039  1.00  0.00     0.005 C 
ENDBRANCH  19  20
ENDBRANCH  18  19
ENDBRANCH  17  18
ENDBRANCH  16  17
ENDBRANCH  15  16
ENDBRANCH  14  15
ENDBRANCH  12  14
ENDBRANCH   3  12
TORSDOF 8
