REMARK  8 active torsions:
REMARK  status: ('A' for Active; 'I' for Inactive)
REMARK    1  A    between atoms: C5_14  and  O2_2 
REMARK    2  A    between atoms: C7_16  and  O2_2 
REMARK    3  A    between atoms: C1_10  and  O3_3 
REMARK    4  A    between atoms: C2_11  and  O4_4 
REMARK    5  A    between atoms: C3_12  and  O5_5 
REMARK    6  A    between atoms: C6_15  and  O6_6 
REMARK    7  A    between atoms: C9_18  and  O8_8 
REMARK    8  A    between atoms: C4_13  and  C6_15 
ROOT
HETATM    1  O1  UNK     1       2.141   0.516  -0.297  1.00  0.00    -0.348 OA
HETATM    2  C1  UNK     1       2.607   1.963  -2.752  1.00  0.00     0.183 C 
HETATM    3  C2  UNK     1       3.305   2.335  -1.439  1.00  0.00     0.180 C 
HETATM    4  C3  UNK     1       2.084   0.520  -2.740  1.00  0.00     0.205 C 
HETATM    5  C4  UNK     1       2.472   1.906  -0.221  1.00  0.00     0.179 C 
HETATM    6  C5  UNK     1       1.354   0.168  -1.440  1.00  0.00     0.298 C 
ENDROOT
BRANCH   6   7
HETATM    7  O2  UNK     1       0.072   0.787  -1.422  1.00  0.00    -0.315 OA
BRANCH   7   8
HETATM    8  C7  UNK     1      -0.916   0.126  -0.747  1.00  0.00     0.106 A 
HETATM    9  C9  UNK     1      -2.070  -0.283  -1.415  1.00  0.00     0.101 A 
HETATM   10  C12 UNK     1      -3.073  -0.956  -0.721  1.00  0.00     0.077 A 
HETATM   11  C11 UNK     1      -2.901  -1.208   0.639  1.00  0.00     0.092 A 
HETATM   12  C10 UNK     1      -1.754  -0.806   1.319  1.00  0.00     0.001 A 
HETATM   13  O7  UNK     1      -3.933  -1.890   1.314  1.00  0.00    -0.275 OA
HETATM   14  C8  UNK     1      -0.753  -0.132   0.615  1.00  0.00     0.054 A 
HETATM   15  C13 UNK     1      -1.640  -1.101   2.737  1.00  0.00     0.020 A 
HETATM   16  C14 UNK     1      -2.622  -1.749   3.369  1.00  0.00     0.083 A 
HETATM   17  C15 UNK     1      -3.845  -2.185   2.671  1.00  0.00     0.288 A 
HETATM   18  O9  UNK     1      -4.739  -2.778   3.265  1.00  0.00    -0.260 OA
BRANCH   9  19
HETATM   19  O8  UNK     1      -2.229  -0.030  -2.744  1.00  0.00    -0.358 OA
HETATM   20  H15 UNK     1      -3.087  -0.386  -3.034  1.00  0.00     0.217 HD
ENDBRANCH   9  19
ENDBRANCH   7   8
ENDBRANCH   6   7
BRANCH   4  21
HETATM   21  O5  UNK     1       3.177  -0.381  -2.910  1.00  0.00    -0.388 OA
HETATM   22  H10 UNK     1       2.811  -1.280  -2.973  1.00  0.00     0.210 HD
ENDBRANCH   4  21
BRANCH   2  23
HETATM   23  O3  UNK     1       1.528   2.864  -2.990  1.00  0.00    -0.390 OA
HETATM   24  H8  UNK     1       0.846   2.712  -2.315  1.00  0.00     0.210 HD
ENDBRANCH   2  23
BRANCH   5  25
HETATM   25  C6  UNK     1       3.201   2.123   1.101  1.00  0.00     0.198 C 
BRANCH  25  26
HETATM   26  O6  UNK     1       2.350   1.710   2.153  1.00  0.00    -0.398 OA
HETATM   27  H11 UNK     1       1.557   2.271   2.130  1.00  0.00     0.209 HD
ENDBRANCH  25  26
ENDBRANCH   5  25
BRANCH   3  28
HETATM   28  O4  UNK     1       4.581   1.696  -1.421  1.00  0.00    -0.390 OA
HETATM   29  H9  UNK     1       5.094   2.042  -2.170  1.00  0.00     0.210 HD
ENDBRANCH   3  28
TORSDOF 8
