REMARK  4 active torsions:
REMARK  status: ('A' for Active; 'I' for Inactive)
REMARK    1  A    between atoms: C12_17  and  O2_2 
REMARK       I    between atoms: C10_15  and  N1_5 
REMARK    2  A    between atoms: C3_8  and  N1_5 
REMARK    3  A    between atoms: C10_15  and  C5_10 
REMARK    4  A    between atoms: C5_10  and  C8_13 
ROOT
HETATM    1  O3  UNK     1       1.688   0.155  -0.024  1.00  0.00    -0.273 OA
HETATM    2  N1  UNK     1       0.048  -0.488  -1.583  1.00  0.00    -0.327 N 
HETATM    3  C10 UNK     1       1.313  -0.029  -1.177  1.00  0.00     0.226 C 
HETATM    4  H6  UNK     1      -0.104  -0.592  -2.584  1.00  0.00     0.169 HD
ENDROOT
BRANCH   2   5
HETATM    5  C3  UNK     1      -1.043  -0.831  -0.784  1.00  0.00     0.037 A 
HETATM    6  C6  UNK     1      -0.952  -0.736   0.600  1.00  0.00     0.067 A 
HETATM    7  C2  UNK     1      -2.056  -1.084   1.381  1.00  0.00     0.092 A 
HETATM    8  C1  UNK     1      -3.255  -1.526   0.821  1.00  0.00     0.004 A 
HETATM    9  O1  UNK     1      -1.903  -0.966   2.777  1.00  0.00    -0.275 OA
HETATM   10  C4  UNK     1      -4.366  -1.871   1.718  1.00  0.00    -0.043 A 
HETATM   11  C7  UNK     1      -3.326  -1.615  -0.576  1.00  0.00     0.017 A 
HETATM   12  C11 UNK     1      -4.192  -1.750   3.042  1.00  0.00     0.090 A 
HETATM   13  C13 UNK     1      -5.668  -2.350   1.147  1.00  0.00     0.049 C 
HETATM   14  C15 UNK     1      -2.934  -1.284   3.648  1.00  0.00     0.288 A 
HETATM   15  O4  UNK     1      -2.812  -1.186   4.864  1.00  0.00    -0.260 OA
HETATM   16  C9  UNK     1      -2.228  -1.270  -1.372  1.00  0.00     0.030 A 
ENDBRANCH   2   5
BRANCH   3  17
HETATM   17  C5  UNK     1       2.212   0.229  -2.376  1.00  0.00     0.144 C 
BRANCH  17  18
HETATM   18  C8  UNK     1       3.254   1.287  -2.126  1.00  0.00    -0.016 A 
HETATM   19  C12 UNK     1       2.979   2.620  -2.398  1.00  0.00     0.074 A 
HETATM   20  C16 UNK     1       3.956   3.586  -2.161  1.00  0.00     0.037 A 
HETATM   21  C18 UNK     1       5.200   3.211  -1.654  1.00  0.00     0.003 A 
HETATM   22  C17 UNK     1       5.466   1.869  -1.383  1.00  0.00     0.001 A 
HETATM   23  C14 UNK     1       4.489   0.902  -1.621  1.00  0.00     0.010 A 
BRANCH  19  24
HETATM   24  O2  UNK     1       1.769   3.004  -2.893  1.00  0.00    -0.355 OA
HETATM   25  C19 UNK     1       0.758   3.338  -1.945  1.00  0.00     0.210 C 
ENDBRANCH  19  24
ENDBRANCH  17  18
ENDBRANCH   3  17
TORSDOF 4
