REMARK  1 active torsions:
REMARK  status: ('A' for Active; 'I' for Inactive)
REMARK       I    between atoms: C7_12  and  N1_5 
REMARK    1  A    between atoms: C10_15  and  C7_12 
ROOT
HETATM    1  F1  UNK     1      -5.848  -2.279   2.220  1.00  0.00    -0.206 F 
HETATM    2  O1  UNK     1      -1.458  -0.276  -1.912  1.00  0.00    -0.267 OA
HETATM    3  N1  UNK     1      -0.915  -0.303   0.379  1.00  0.00    -0.309 N 
HETATM    4  C1  UNK     1       0.115  -0.057   1.423  1.00  0.00     0.089 C 
HETATM    5  C2  UNK     1       0.172  -1.219   2.415  1.00  0.00     0.030 C 
HETATM    6  C3  UNK     1      -1.158  -1.412   3.117  1.00  0.00     0.043 C 
HETATM    7  C4  UNK     1      -2.310  -1.362   2.148  1.00  0.00    -0.028 A 
HETATM    8  C5  UNK     1      -2.186  -0.827   0.845  1.00  0.00     0.044 A 
HETATM    9  C6  UNK     1      -0.095   1.300   2.104  1.00  0.00     0.033 C 
HETATM   10  C7  UNK     1      -0.663  -0.097  -0.989  1.00  0.00     0.264 C 
HETATM   11  C8  UNK     1      -3.553  -1.846   2.600  1.00  0.00     0.051 A 
HETATM   12  C9  UNK     1      -3.342  -0.786   0.044  1.00  0.00     0.033 A 
HETATM   13  C11 UNK     1      -4.673  -1.813   1.778  1.00  0.00     0.117 A 
HETATM   14  C12 UNK     1      -4.568  -1.280   0.501  1.00  0.00     0.044 A 
ENDROOT
BRANCH  10  15
HETATM   15  C10 UNK     1       0.696   0.350  -1.369  1.00  0.00     0.108 A 
HETATM   16  C13 UNK     1       0.893   1.673  -1.412  1.00  0.00     0.037 A 
HETATM   17  C15 UNK     1       2.196   2.209  -1.774  1.00  0.00    -0.001 A 
HETATM   18  C16 UNK     1       3.228   1.325  -2.074  1.00  0.00     0.089 A 
HETATM   19  C17 UNK     1       2.447   3.582  -1.833  1.00  0.00     0.014 A 
HETATM   20  O2  UNK     1       3.014  -0.067  -2.027  1.00  0.00    -0.274 OA
HETATM   21  C18 UNK     1       4.499   1.773  -2.429  1.00  0.00     0.038 A 
HETATM   22  C14 UNK     1       1.779  -0.609  -1.684  1.00  0.00     0.304 A 
HETATM   23  O3  UNK     1       1.602  -1.822  -1.645  1.00  0.00    -0.259 OA
HETATM   24  C20 UNK     1       4.740   3.144  -2.485  1.00  0.00     0.003 A 
HETATM   25  C19 UNK     1       3.717   4.046  -2.187  1.00  0.00     0.001 A 
ENDBRANCH  10  15
TORSDOF 1
