REMARK  3 active torsions:
REMARK  status: ('A' for Active; 'I' for Inactive)
REMARK    1  A    between atoms: C5_11  and  N1_6 
REMARK       I    between atoms: C6_12  and  N1_6 
REMARK    2  A    between atoms: C2_8  and  C6_12 
REMARK    3  A    between atoms: C5_11  and  C7_13 
ROOT
HETATM    1 Br1  UNK     1       5.695   3.452  -1.728  1.00  0.00    -0.051 Br
HETATM    2  O1  UNK     1       0.434   0.520  -2.464  1.00  0.00    -0.274 OA
HETATM    3  O4  UNK     1      -1.332  -0.637  -1.590  1.00  0.00    -0.259 OA
HETATM    4  C1  UNK     1       2.198   1.312  -0.990  1.00  0.00     0.000 A 
HETATM    5  C2  UNK     1       0.327   0.085  -0.060  1.00  0.00     0.108 A 
HETATM    6  C3  UNK     1       1.654   1.196  -2.265  1.00  0.00     0.089 A 
HETATM    7  C4  UNK     1       1.486   0.725   0.135  1.00  0.00     0.037 A 
HETATM    8  C8  UNK     1       3.410   1.989  -0.833  1.00  0.00     0.033 A 
HETATM    9  C9  UNK     1      -0.270  -0.052  -1.408  1.00  0.00     0.304 A 
HETATM   10  C10 UNK     1       2.285   1.735  -3.384  1.00  0.00     0.039 A 
HETATM   11  C11 UNK     1       4.055   2.536  -1.946  1.00  0.00     0.011 A 
HETATM   12  C12 UNK     1       3.493   2.409  -3.219  1.00  0.00     0.022 A 
ENDROOT
BRANCH   5  13
HETATM   13  C6  UNK     1      -0.315  -0.472   1.136  1.00  0.00     0.258 C 
HETATM   14  O3  UNK     1      -0.167   0.056   2.237  1.00  0.00    -0.267 OA
HETATM   15  N1  UNK     1      -1.062  -1.605   0.868  1.00  0.00    -0.351 N 
HETATM   16  H4  UNK     1      -1.110  -1.974  -0.077  1.00  0.00     0.163 HD
BRANCH  15  17
HETATM   17  C5  UNK     1      -1.784  -2.332   1.887  1.00  0.00     0.187 C 
BRANCH  17  18
HETATM   18  C7  UNK     1      -3.217  -1.902   2.052  1.00  0.00     0.070 A 
HETATM   19  C13 UNK     1      -3.903  -1.430   3.116  1.00  0.00     0.036 A 
HETATM   20  C14 UNK     1      -5.216  -1.206   2.637  1.00  0.00     0.027 A 
HETATM   21  C15 UNK     1      -5.204  -1.568   1.310  1.00  0.00     0.142 A 
HETATM   22  O2  UNK     1      -3.969  -1.999   0.943  1.00  0.00    -0.325 OA
ENDBRANCH  17  18
ENDBRANCH  15  17
ENDBRANCH   5  13
TORSDOF 3
