REMARK  5 active torsions:
REMARK  status: ('A' for Active; 'I' for Inactive)
REMARK    1  A    between atoms: C11_18  and  O1_2 
REMARK       I    between atoms: C12_19  and  N1_7 
REMARK    2  A    between atoms: C9_16  and  N1_7 
REMARK    3  A    between atoms: C1_8  and  C7_14 
REMARK    4  A    between atoms: C11_18  and  C8_15 
REMARK    5  A    between atoms: C12_19  and  C13_20 
ROOT
HETATM    1  S1  UNK     1      -2.283  -0.793  -0.662  1.00  0.00    -0.075 SA
HETATM    2  C1  UNK     1      -5.276  -2.328   1.701  1.00  0.00    -0.010 C 
HETATM    3  C2  UNK     1      -4.334  -2.883   2.792  1.00  0.00     0.009 C 
HETATM    4  C3  UNK     1      -4.522  -2.127   0.367  1.00  0.00     0.051 C 
HETATM    5  C4  UNK     1      -3.173  -1.919   3.084  1.00  0.00     0.041 C 
HETATM    6  C5  UNK     1      -2.555  -1.396   1.826  1.00  0.00    -0.026 A 
HETATM    7  C6  UNK     1      -3.193  -1.479   0.603  1.00  0.00    -0.008 A 
HETATM    8  C8  UNK     1      -1.291  -0.743   1.709  1.00  0.00     0.080 A 
HETATM    9  C9  UNK     1      -1.019  -0.364   0.412  1.00  0.00     0.094 A 
ENDROOT
BRANCH   9  10
HETATM   10  N1  UNK     1       0.058   0.278  -0.136  1.00  0.00    -0.316 N 
HETATM   11  C12 UNK     1       0.234   0.618  -1.484  1.00  0.00     0.262 C 
HETATM   12  O3  UNK     1      -0.523   0.416  -2.425  1.00  0.00    -0.267 OA
HETATM   13  H13 UNK     1       0.798   0.504   0.524  1.00  0.00     0.169 HD
BRANCH  11  14
HETATM   14  C13 UNK     1       1.519   1.306  -1.729  1.00  0.00     0.108 A 
HETATM   15  C14 UNK     1       2.066   1.125  -2.937  1.00  0.00     0.037 A 
HETATM   16  C16 UNK     1       3.330   1.761  -3.273  1.00  0.00    -0.001 A 
HETATM   17  C18 UNK     1       3.958   2.556  -2.320  1.00  0.00     0.089 A 
HETATM   18  C19 UNK     1       3.936   1.600  -4.522  1.00  0.00     0.014 A 
HETATM   19  O4  UNK     1       3.378   2.743  -1.050  1.00  0.00    -0.274 OA
HETATM   20  C20 UNK     1       5.170   3.193  -2.578  1.00  0.00     0.038 A 
HETATM   21  C17 UNK     1       2.169   2.148  -0.700  1.00  0.00     0.304 A 
HETATM   22  O5  UNK     1       1.672   2.315   0.409  1.00  0.00    -0.259 OA
HETATM   23  C22 UNK     1       5.768   3.027  -3.825  1.00  0.00     0.003 A 
HETATM   24  C21 UNK     1       5.153   2.232  -4.795  1.00  0.00     0.001 A 
ENDBRANCH  11  14
ENDBRANCH   9  10
BRANCH   8  25
HETATM   25  C11 UNK     1      -0.379  -0.485   2.796  1.00  0.00     0.296 C 
HETATM   26  O2  UNK     1      -0.737  -0.295   3.968  1.00  0.00    -0.259 OA
BRANCH  25  27
HETATM   27  O1  UNK     1       0.946  -0.467   2.420  1.00  0.00    -0.322 OA
HETATM   28  C15 UNK     1       1.907  -0.216   3.452  1.00  0.00     0.213 C 
ENDBRANCH  25  27
ENDBRANCH   8  25
BRANCH   2  29
HETATM   29  C7  UNK     1      -6.478  -3.250   1.502  1.00  0.00     0.000 C 
HETATM   30  C10 UNK     1      -7.438  -2.690   0.470  1.00  0.00     0.005 C 
ENDBRANCH   2  29
TORSDOF 5
