REMARK  5 active torsions:
REMARK  status: ('A' for Active; 'I' for Inactive)
REMARK    1  A    between atoms: C5_11  and  N1_4 
REMARK    2  A    between atoms: C6_12  and  N2_5 
REMARK    3  A    between atoms: C5_11  and  C7_13 
REMARK    4  A    between atoms: C6_12  and  C8_14 
REMARK    5  A    between atoms: C14_20  and  C20_26 
ROOT
HETATM    1  N1  UNK     1      -1.695  -1.358  -0.405  1.00  0.00     0.096 N 
HETATM    2  N2  UNK     1      -0.225   0.239  -2.315  1.00  0.00     0.097 N 
HETATM    3  C1  UNK     1      -1.820  -1.590  -1.849  1.00  0.00     0.303 C 
HETATM    4  C2  UNK     1      -0.367  -0.819  -0.086  1.00  0.00     0.303 C 
HETATM    5  C3  UNK     1      -1.553  -0.301  -2.634  1.00  0.00     0.303 C 
HETATM    6  C4  UNK     1      -0.099   0.470  -0.871  1.00  0.00     0.303 C 
ENDROOT
BRANCH   2   7
HETATM    7  C6  UNK     1       0.027   1.470  -3.061  1.00  0.00     0.334 C 
BRANCH   7   8
HETATM    8  C8  UNK     1       1.502   1.686  -3.170  1.00  0.00     0.095 A 
HETATM    9  C10 UNK     1       2.369   1.256  -4.144  1.00  0.00     0.078 A 
HETATM   10  O1  UNK     1       3.617   1.696  -3.818  1.00  0.00    -0.294 OA
HETATM   11  C16 UNK     1       2.237   0.475  -5.378  1.00  0.00     0.079 C 
HETATM   12  C14 UNK     1       3.422   2.372  -2.653  1.00  0.00     0.180 A 
HETATM   13  N3  UNK     1       2.183   2.401  -2.218  1.00  0.00    -0.224 NA
BRANCH  12  14
HETATM   14  C20 UNK     1       4.604   2.952  -2.077  1.00  0.00     0.023 A 
HETATM   15  C21 UNK     1       5.038   2.586  -0.804  1.00  0.00    -0.048 A 
HETATM   16  C24 UNK     1       6.189   3.163  -0.267  1.00  0.00     0.007 A 
HETATM   17  C25 UNK     1       4.297   1.579   0.017  1.00  0.00     0.049 C 
HETATM   18  C27 UNK     1       6.906   4.105  -1.005  1.00  0.00     0.001 A 
HETATM   19  C26 UNK     1       6.472   4.471  -2.279  1.00  0.00     0.001 A 
HETATM   20  C23 UNK     1       5.321   3.894  -2.815  1.00  0.00     0.016 A 
ENDBRANCH  12  14
ENDBRANCH   7   8
ENDBRANCH   2   7
BRANCH   1  21
HETATM   21  C5  UNK     1      -1.949  -2.588   0.343  1.00  0.00     0.312 C 
BRANCH  21  22
HETATM   22  C7  UNK     1      -2.370  -2.316   1.745  1.00  0.00    -0.011 A 
HETATM   23  C11 UNK     1      -1.468  -2.214   2.732  1.00  0.00     0.092 A 
HETATM   24  C15 UNK     1      -1.836  -1.946   4.132  1.00  0.00     0.288 A 
HETATM   25  O2  UNK     1      -3.188  -1.800   4.404  1.00  0.00    -0.275 OA
HETATM   26  O3  UNK     1      -0.983  -1.859   5.009  1.00  0.00    -0.260 OA
HETATM   27  C12 UNK     1      -4.159  -1.902   3.388  1.00  0.00     0.090 A 
HETATM   28  C9  UNK     1      -3.795  -2.157   2.065  1.00  0.00     0.006 A 
HETATM   29  C17 UNK     1      -5.489  -1.738   3.777  1.00  0.00     0.045 A 
HETATM   30  C13 UNK     1      -4.820  -2.244   1.114  1.00  0.00     0.015 A 
HETATM   31  C18 UNK     1      -6.159  -2.082   1.488  1.00  0.00     0.007 A 
HETATM   32  C19 UNK     1      -6.493  -1.828   2.818  1.00  0.00    -0.059 A 
HETATM   33  C22 UNK     1      -7.921  -1.655   3.210  1.00  0.00     0.048 C 
ENDBRANCH  21  22
ENDBRANCH   1  21
TORSDOF 5
