REMARK  4 active torsions:
REMARK  status: ('A' for Active; 'I' for Inactive)
REMARK    1  A    between atoms: C6_8  and  O1_1 
REMARK    2  A    between atoms: C1_3  and  C5_7 
REMARK    3  A    between atoms: C4_6  and  C9_11 
REMARK    4  A    between atoms: C10_12  and  C5_7 
ROOT
HETATM    1  O2  UNK     1      -0.084  -0.398   1.181  1.00  0.00    -0.288 OA
HETATM    2  C5  UNK     1      -0.013  -0.333  -0.041  1.00  0.00     0.182 C 
ENDROOT
BRANCH   2   3
HETATM    3  C1  UNK     1       0.976   0.573  -0.674  1.00  0.00     0.014 A 
HETATM    4  C2  UNK     1       0.697   1.102  -1.918  1.00  0.00     0.018 A 
HETATM    5  C7  UNK     1       1.626   1.955  -2.514  1.00  0.00     0.037 A 
HETATM    6  C6  UNK     1       2.815   2.261  -1.852  1.00  0.00     0.068 A 
HETATM    7  C8  UNK     1       3.075   1.715  -0.596  1.00  0.00     0.037 A 
HETATM    8  C3  UNK     1       2.146   0.862  -0.000  1.00  0.00     0.018 A 
BRANCH   6   9
HETATM    9  O1  UNK     1       3.721   3.095  -2.432  1.00  0.00    -0.356 OA
HETATM   10  C16 UNK     1       3.391   3.620  -3.718  1.00  0.00     0.210 C 
ENDBRANCH   6   9
ENDBRANCH   2   3
BRANCH   2  11
HETATM   11  C10 UNK     1      -0.867  -1.160  -0.939  1.00  0.00     0.056 C 
HETATM   12  C9  UNK     1      -2.102  -1.542  -0.544  1.00  0.00     0.015 C 
BRANCH  12  13
HETATM   13  C4  UNK     1      -2.714  -1.211   0.733  1.00  0.00    -0.036 A 
HETATM   14  C11 UNK     1      -3.101  -2.229   1.605  1.00  0.00     0.011 A 
HETATM   15  C13 UNK     1      -3.688  -1.911   2.831  1.00  0.00     0.001 A 
HETATM   16  C15 UNK     1      -3.887  -0.577   3.184  1.00  0.00     0.000 A 
HETATM   17  C14 UNK     1      -3.500   0.441   2.311  1.00  0.00     0.001 A 
HETATM   18  C12 UNK     1      -2.914   0.123   1.086  1.00  0.00     0.011 A 
ENDBRANCH  12  13
ENDBRANCH   2  11
TORSDOF 4
