REMARK  4 active torsions:
REMARK  status: ('A' for Active; 'I' for Inactive)
REMARK    1  A    between atoms: C7_11  and  O2_2 
REMARK    2  A    between atoms: C12_16  and  O3_3 
REMARK    3  A    between atoms: C1_5  and  C2_6 
REMARK    4  A    between atoms: C2_6  and  C4_8 
ROOT
HETATM    1  O1  UNK     1      -0.384   0.099  -2.489  1.00  0.00    -0.275 OA
HETATM    2  O4  UNK     1      -2.408  -0.692  -3.197  1.00  0.00    -0.260 OA
HETATM    3  C1  UNK     1      -1.332  -0.136   0.166  1.00  0.00    -0.036 A 
HETATM    4  C3  UNK     1       0.026   0.361  -0.095  1.00  0.00     0.038 A 
HETATM    5  C5  UNK     1       0.457   0.463  -1.418  1.00  0.00     0.095 A 
HETATM    6  C6  UNK     1      -2.110  -0.474  -0.871  1.00  0.00     0.090 A 
HETATM    7  C7  UNK     1       0.923   0.741   0.913  1.00  0.00     0.082 A 
HETATM    8  C8  UNK     1       1.732   0.924  -1.753  1.00  0.00     0.075 A 
HETATM    9  C10 UNK     1       2.203   1.206   0.592  1.00  0.00     0.074 A 
HETATM   10  C11 UNK     1      -1.669  -0.372  -2.273  1.00  0.00     0.288 A 
HETATM   11  C12 UNK     1       2.607   1.297  -0.739  1.00  0.00     0.071 A 
ENDROOT
BRANCH   3  12
HETATM   12  C2  UNK     1      -1.879  -0.278   1.559  1.00  0.00     0.039 C 
BRANCH  12  13
HETATM   13  C4  UNK     1      -1.586  -1.657   2.136  1.00  0.00     0.000 C 
HETATM   14  C9  UNK     1      -2.123  -1.781   3.553  1.00  0.00     0.005 C 
ENDBRANCH  12  13
ENDBRANCH   3  12
BRANCH   7  15
HETATM   15  O2  UNK     1       0.622   0.689   2.242  1.00  0.00    -0.360 OA
HETATM   16  H11 UNK     1       1.381   0.994   2.767  1.00  0.00     0.217 HD
ENDBRANCH   7  15
BRANCH  11  17
HETATM   17  O3  UNK     1       3.854   1.750  -1.044  1.00  0.00    -0.361 OA
HETATM   18  H12 UNK     1       4.323   1.962  -0.219  1.00  0.00     0.217 HD
ENDBRANCH  11  17
TORSDOF 4
