REMARK  5 active torsions:
REMARK  status: ('A' for Active; 'I' for Inactive)
REMARK    1  A    between atoms: C13_19  and  N1_5 
REMARK    2  A    between atoms: C4_10  and  N1_5 
REMARK    3  A    between atoms: C13_19  and  N2_6 
REMARK    4  A    between atoms: C9_15  and  N2_6 
REMARK    5  A    between atoms: C12_18  and  C9_15 
ROOT
HETATM    1  O1  UNK     1      -3.386  -1.645   0.190  1.00  0.00    -0.275 OA
HETATM    2  O2  UNK     1      -5.176  -2.942   0.777  1.00  0.00    -0.260 OA
HETATM    3  C1  UNK     1      -1.876  -0.834   1.930  1.00  0.00     0.004 A 
HETATM    4  C2  UNK     1      -2.247  -0.917   0.587  1.00  0.00     0.092 A 
HETATM    5  C3  UNK     1      -2.700  -1.525   2.932  1.00  0.00    -0.043 A 
HETATM    6  C4  UNK     1      -0.385   0.441  -0.096  1.00  0.00     0.036 A 
HETATM    7  C5  UNK     1      -1.520  -0.292  -0.427  1.00  0.00     0.067 A 
HETATM    8  C6  UNK     1      -0.730  -0.092   2.243  1.00  0.00     0.017 A 
HETATM    9  C7  UNK     1       0.009   0.541   1.237  1.00  0.00     0.030 A 
HETATM   10  C8  UNK     1      -3.778  -2.209   2.525  1.00  0.00     0.090 A 
HETATM   11  C10 UNK     1      -2.328  -1.455   4.384  1.00  0.00     0.049 C 
HETATM   12  C11 UNK     1      -4.183  -2.306   1.112  1.00  0.00     0.288 A 
ENDROOT
BRANCH   6  13
HETATM   13  N1  UNK     1       0.356   1.073  -1.094  1.00  0.00    -0.333 N 
HETATM   14  H5  UNK     1       1.046   1.710  -0.708  1.00  0.00     0.168 HD
BRANCH  13  15
HETATM   15  C13 UNK     1       0.515   0.818  -2.468  1.00  0.00     0.172 C 
HETATM   16  S2  UNK     1      -0.225  -0.381  -3.384  1.00  0.00    -0.041 SA
BRANCH  15  17
HETATM   17  N2  UNK     1       1.359   1.692  -3.142  1.00  0.00    -0.362 N 
HETATM   18  H11 UNK     1       1.484   1.521  -4.135  1.00  0.00     0.162 HD
BRANCH  17  19
HETATM   19  C9  UNK     1       2.079   2.820  -2.581  1.00  0.00     0.168 C 
BRANCH  19  20
HETATM   20  C12 UNK     1       3.440   2.376  -2.139  1.00  0.00     0.000 A 
HETATM   21  S1  UNK     1       3.864   2.529  -0.497  1.00  0.00    -0.105 SA
HETATM   22  C16 UNK     1       5.415   1.869  -0.797  1.00  0.00     0.050 A 
HETATM   23  C15 UNK     1       5.591   1.545  -2.124  1.00  0.00     0.008 A 
HETATM   24  C14 UNK     1       4.437   1.842  -2.905  1.00  0.00     0.017 A 
ENDBRANCH  19  20
ENDBRANCH  17  19
ENDBRANCH  15  17
ENDBRANCH  13  15
ENDBRANCH   6  13
TORSDOF 5
