REMARK  7 active torsions:
REMARK  status: ('A' for Active; 'I' for Inactive)
REMARK    1  A    between atoms: C5_14  and  N1_7 
REMARK    2  A    between atoms: C6_15  and  N2_8 
REMARK    3  A    between atoms: C18_27  and  N3_9 
REMARK       I    between atoms: C9_18  and  N3_9 
REMARK    4  A    between atoms: C5_14  and  C7_16 
REMARK    5  A    between atoms: C6_15  and  C9_18 
REMARK    6  A    between atoms: C13_22  and  C17_26 
REMARK    7  A    between atoms: C19_28  and  C23_32 
ROOT
HETATM    1  N1  UNK     1       1.976  -0.224  -1.268  1.00  0.00     0.096 N 
HETATM    2  N2  UNK     1       0.109  -1.573   0.479  1.00  0.00     0.100 N 
HETATM    3  C1  UNK     1       0.576  -0.427  -1.660  1.00  0.00     0.303 C 
HETATM    4  C2  UNK     1       2.415  -1.291  -0.361  1.00  0.00     0.303 C 
HETATM    5  C3  UNK     1      -0.331  -0.504  -0.427  1.00  0.00     0.303 C 
HETATM    6  C4  UNK     1       1.508  -1.367   0.872  1.00  0.00     0.303 C 
ENDROOT
BRANCH   2   7
HETATM    7  C6  UNK     1      -0.755  -1.644   1.656  1.00  0.00     0.375 C 
BRANCH   7   8
HETATM    8  C9  UNK     1      -2.028  -2.394   1.303  1.00  0.00     0.250 C 
HETATM    9  O2  UNK     1      -2.061  -3.278   0.453  1.00  0.00    -0.271 OA
HETATM   10  N3  UNK     1      -3.091  -1.930   2.076  1.00  0.00    -0.325 N 
HETATM   11  H15 UNK     1      -2.890  -1.193   2.747  1.00  0.00     0.169 HD
BRANCH  10  12
HETATM   12  C18 UNK     1      -4.436  -2.370   2.048  1.00  0.00     0.049 A 
HETATM   13  C19 UNK     1      -5.392  -1.803   2.891  1.00  0.00     0.074 A 
HETATM   14  C22 UNK     1      -6.712  -2.251   2.848  1.00  0.00     0.018 A 
HETATM   15  C25 UNK     1      -7.076  -3.266   1.963  1.00  0.00     0.001 A 
HETATM   16  C24 UNK     1      -6.120  -3.833   1.121  1.00  0.00     0.002 A 
HETATM   17  C21 UNK     1      -4.800  -3.385   1.163  1.00  0.00     0.030 A 
BRANCH  13  18
HETATM   18  C23 UNK     1      -5.030  -0.715   3.849  1.00  0.00     0.419 C 
HETATM   19  F1  UNK     1      -6.084  -0.275   4.596  1.00  0.00    -0.166 F 
HETATM   20  F2  UNK     1      -4.077  -1.081   4.754  1.00  0.00    -0.166 F 
HETATM   21  F3  UNK     1      -4.536   0.391   3.221  1.00  0.00    -0.166 F 
ENDBRANCH  13  18
ENDBRANCH  10  12
ENDBRANCH   7   8
ENDBRANCH   2   7
BRANCH   1  22
HETATM   22  C5  UNK     1       2.840  -0.154  -2.445  1.00  0.00     0.312 C 
BRANCH  22  23
HETATM   23  C7  UNK     1       2.801   1.186  -3.092  1.00  0.00    -0.011 A 
HETATM   24  C10 UNK     1       1.910   1.465  -4.054  1.00  0.00     0.092 A 
HETATM   25  C14 UNK     1       1.833   2.775  -4.723  1.00  0.00     0.288 A 
HETATM   26  O1  UNK     1       2.740   3.739  -4.312  1.00  0.00    -0.275 OA
HETATM   27  O3  UNK     1       1.002   2.994  -5.598  1.00  0.00    -0.260 OA
HETATM   28  C11 UNK     1       3.688   3.475  -3.303  1.00  0.00     0.090 A 
HETATM   29  C8  UNK     1       3.750   2.229  -2.678  1.00  0.00     0.007 A 
HETATM   30  C15 UNK     1       4.552   4.520  -2.970  1.00  0.00     0.039 A 
HETATM   31  C12 UNK     1       4.722   2.046  -1.686  1.00  0.00     0.022 A 
HETATM   32  C13 UNK     1       5.595   3.084  -1.341  1.00  0.00    -0.058 A 
HETATM   33  C16 UNK     1       5.510   4.319  -1.982  1.00  0.00     0.010 A 
BRANCH  32  34
HETATM   34  C17 UNK     1       6.623   2.868  -0.280  1.00  0.00     0.034 C 
HETATM   35  C20 UNK     1       6.107   3.228   1.110  1.00  0.00     0.010 C 
ENDBRANCH  32  34
ENDBRANCH  22  23
ENDBRANCH   1  22
TORSDOF 7
