REMARK  2 active torsions:
REMARK  status: ('A' for Active; 'I' for Inactive)
REMARK    1  A    between atoms: C18_23  and  O3_4 
REMARK    2  A    between atoms: C7_12  and  O3_4 
ROOT
HETATM    1 Cl1  UNK     1       4.183   0.392   2.176  1.00  0.00    -0.084 Cl
HETATM    2  O1  UNK     1      -1.389   0.034   0.072  1.00  0.00    -0.306 OA
HETATM    3  O2  UNK     1       2.040   2.248  -2.992  1.00  0.00    -0.275 OA
HETATM    4  O4  UNK     1       0.385   2.259  -4.568  1.00  0.00    -0.260 OA
HETATM    5  C1  UNK     1      -0.444  -0.412  -0.799  1.00  0.00     0.088 A 
HETATM    6  C2  UNK     1       0.434   0.466  -1.468  1.00  0.00     0.017 A 
HETATM    7  C3  UNK     1      -1.535  -2.218  -0.042  1.00  0.00     0.003 A 
HETATM    8  C4  UNK     1      -2.054  -1.062   0.534  1.00  0.00     0.119 A 
HETATM    9  C5  UNK     1       1.752   0.904  -0.977  1.00  0.00     0.013 A 
HETATM   10  C6  UNK     1      -0.493  -1.785  -0.903  1.00  0.00     0.052 A 
HETATM   11  C7  UNK     1      -3.104  -1.049   1.450  1.00  0.00     0.103 A 
HETATM   12  C8  UNK     1       2.512   1.779  -1.752  1.00  0.00     0.090 A 
HETATM   13  C9  UNK     1      -2.097  -3.456   0.315  1.00  0.00     0.014 A 
HETATM   14  C10 UNK     1       0.016   0.933  -2.657  1.00  0.00     0.097 A 
HETATM   15  C11 UNK     1       2.287   0.480   0.247  1.00  0.00     0.039 A 
HETATM   16  C12 UNK     1      -3.647  -2.292   1.791  1.00  0.00     0.040 A 
HETATM   17  C13 UNK     1      -3.155  -3.475   1.235  1.00  0.00     0.004 A 
HETATM   18  C14 UNK     1       3.767   2.232  -1.345  1.00  0.00     0.040 A 
HETATM   19  C15 UNK     1       0.807   1.858  -3.489  1.00  0.00     0.289 A 
HETATM   20  C16 UNK     1       3.544   0.926   0.668  1.00  0.00     0.035 A 
HETATM   21  C17 UNK     1       4.283   1.801  -0.127  1.00  0.00     0.026 A 
ENDROOT
BRANCH  11  22
HETATM   22  O3  UNK     1      -3.587   0.104   1.995  1.00  0.00    -0.349 OA
BRANCH  22  23
HETATM   23  C18 UNK     1      -2.672   0.897   2.746  1.00  0.00     0.171 C 
HETATM   24  C19 UNK     1      -3.435   1.652   3.813  1.00  0.00     0.034 C 
ENDBRANCH  22  23
ENDBRANCH  11  22
TORSDOF 2
