REMARK  2 active torsions:
REMARK  status: ('A' for Active; 'I' for Inactive)
REMARK    1  A    between atoms: C7_9  and  O1_1 
REMARK    2  A    between atoms: C12_14  and  C9_11 
ROOT
HETATM    1  O2  UNK     1      -0.043   0.113   2.022  1.00  0.00    -0.287 OA
HETATM    2  C1  UNK     1       0.361  -2.912  -0.795  1.00  0.00     0.047 C 
HETATM    3  C2  UNK     1      -0.777  -1.913  -0.970  1.00  0.00     0.047 C 
HETATM    4  C3  UNK     1       0.634  -3.169   0.663  1.00  0.00    -0.010 A 
HETATM    5  C4  UNK     1      -0.513  -0.664  -0.185  1.00  0.00    -0.006 C 
HETATM    6  C5  UNK     1       0.449  -2.160   1.623  1.00  0.00     0.024 A 
HETATM    7  C6  UNK     1      -0.037  -0.814   1.222  1.00  0.00     0.189 C 
HETATM    8  C7  UNK     1       1.134  -4.413   1.069  1.00  0.00     0.075 A 
HETATM    9  C8  UNK     1       0.742  -2.406   2.969  1.00  0.00     0.016 A 
HETATM   10  C9  UNK     1      -0.680   0.570  -0.679  1.00  0.00     0.022 C 
HETATM   11  C10 UNK     1       1.422  -4.656   2.413  1.00  0.00     0.037 A 
HETATM   12  C11 UNK     1       1.224  -3.655   3.361  1.00  0.00     0.004 A 
ENDROOT
BRANCH  10  13
HETATM   13  C12 UNK     1      -0.434   1.826   0.048  1.00  0.00    -0.036 A 
HETATM   14  C13 UNK     1      -1.470   2.419   0.752  1.00  0.00     0.011 A 
HETATM   15  C16 UNK     1      -1.237   3.609   1.441  1.00  0.00     0.001 A 
HETATM   16  C18 UNK     1       0.030   4.192   1.418  1.00  0.00     0.000 A 
HETATM   17  C17 UNK     1       1.064   3.584   0.705  1.00  0.00     0.001 A 
HETATM   18  C14 UNK     1       0.830   2.394   0.015  1.00  0.00     0.011 A 
ENDBRANCH  10  13
BRANCH   8  19
HETATM   19  O1  UNK     1       1.346  -5.417   0.170  1.00  0.00    -0.355 OA
HETATM   20  C15 UNK     1       2.632  -5.476  -0.442  1.00  0.00     0.210 C 
ENDBRANCH   8  19
TORSDOF 2
