REMARK  6 active torsions:
REMARK  status: ('A' for Active; 'I' for Inactive)
REMARK    1  A    between atoms: C10_17  and  O1_2 
REMARK    2  A    between atoms: C12_19  and  O1_2 
REMARK       I    between atoms: C11_18  and  N1_7 
REMARK    3  A    between atoms: C9_16  and  N1_7 
REMARK    4  A    between atoms: C10_17  and  C8_15 
REMARK    5  A    between atoms: C11_18  and  C13_20 
REMARK    6  A    between atoms: C12_19  and  C14_21 
ROOT
HETATM    1  S1  UNK     1      -2.635  -1.225  -1.139  1.00  0.00    -0.075 SA
HETATM    2  C1  UNK     1      -5.155  -1.610   2.820  1.00  0.00     0.005 C 
HETATM    3  C2  UNK     1      -6.274  -2.128   1.912  1.00  0.00     0.001 C 
HETATM    4  C3  UNK     1      -3.795  -2.266   2.577  1.00  0.00     0.041 C 
HETATM    5  C4  UNK     1      -6.158  -1.724   0.439  1.00  0.00     0.005 C 
HETATM    6  C5  UNK     1      -3.122  -1.788   1.328  1.00  0.00    -0.026 A 
HETATM    7  C6  UNK     1      -5.018  -2.410  -0.314  1.00  0.00     0.046 C 
HETATM    8  C7  UNK     1      -3.677  -1.860   0.062  1.00  0.00    -0.008 A 
HETATM    9  C8  UNK     1      -1.817  -1.197   1.287  1.00  0.00     0.080 A 
HETATM   10  C9  UNK     1      -1.434  -0.846   0.012  1.00  0.00     0.094 A 
ENDROOT
BRANCH  10  11
HETATM   11  N1  UNK     1      -0.288  -0.267  -0.462  1.00  0.00    -0.316 N 
HETATM   12  C11 UNK     1      -0.001   0.050  -1.796  1.00  0.00     0.262 C 
HETATM   13  O3  UNK     1      -0.698  -0.123  -2.788  1.00  0.00    -0.267 OA
HETATM   14  H11 UNK     1       0.400  -0.040   0.251  1.00  0.00     0.169 HD
BRANCH  12  15
HETATM   15  C13 UNK     1       1.333   0.668  -1.955  1.00  0.00     0.108 A 
HETATM   16  C15 UNK     1       1.467   1.533  -2.967  1.00  0.00     0.037 A 
HETATM   17  C16 UNK     1       2.741   2.193  -3.204  1.00  0.00    -0.001 A 
HETATM   18  C18 UNK     1       3.813   1.909  -2.363  1.00  0.00     0.089 A 
HETATM   19  C20 UNK     1       2.926   3.103  -4.248  1.00  0.00     0.014 A 
HETATM   20  O4  UNK     1       3.666   0.997  -1.300  1.00  0.00    -0.274 OA
HETATM   21  C21 UNK     1       5.060   2.506  -2.537  1.00  0.00     0.038 A 
HETATM   22  C17 UNK     1       2.459   0.351  -1.048  1.00  0.00     0.304 A 
HETATM   23  O5  UNK     1       2.340  -0.442  -0.120  1.00  0.00    -0.259 OA
HETATM   24  C23 UNK     1       5.236   3.412  -3.580  1.00  0.00     0.003 A 
HETATM   25  C22 UNK     1       4.172   3.710  -4.434  1.00  0.00     0.001 A 
ENDBRANCH  12  15
ENDBRANCH  10  11
BRANCH   9  26
HETATM   26  C10 UNK     1      -0.958  -0.971   2.424  1.00  0.00     0.296 C 
HETATM   27  O2  UNK     1      -0.956  -1.682   3.439  1.00  0.00    -0.259 OA
BRANCH  26  28
HETATM   28  O1  UNK     1      -0.125   0.118   2.286  1.00  0.00    -0.317 OA
BRANCH  28  29
HETATM   29  C12 UNK     1       0.755   0.399   3.380  1.00  0.00     0.178 C 
BRANCH  29  30
HETATM   30  C14 UNK     1       1.585   1.628   3.040  1.00  0.00     0.022 C 
HETATM   31  C19 UNK     1       2.557   1.979   4.152  1.00  0.00     0.007 C 
ENDBRANCH  29  30
ENDBRANCH  28  29
ENDBRANCH  26  28
ENDBRANCH   9  26
TORSDOF 6
