REMARK  4 active torsions:
REMARK  status: ('A' for Active; 'I' for Inactive)
REMARK    1  A    between atoms: C6_11  and  O2_2 
REMARK    2  A    between atoms: C10_15  and  O4_4 
REMARK    3  A    between atoms: C15_20  and  O5_5 
REMARK    4  A    between atoms: C2_7  and  C5_10 
ROOT
HETATM    1  O1  UNK     1       0.389   0.366   2.806  1.00  0.00    -0.321 OA
HETATM    2  O3  UNK     1      -0.013  -1.172  -0.951  1.00  0.00    -0.286 OA
HETATM    3  C1  UNK     1      -0.101   0.714   0.455  1.00  0.00     0.082 A 
HETATM    4  C2  UNK     1       0.526  -1.561   1.335  1.00  0.00     0.048 A 
HETATM    5  C3  UNK     1       0.040   1.182   1.761  1.00  0.00     0.094 A 
HETATM    6  C4  UNK     1       0.129  -0.715   0.176  1.00  0.00     0.200 A 
HETATM    7  C6  UNK     1      -0.460   1.592  -0.572  1.00  0.00     0.085 A 
HETATM    8  C7  UNK     1       0.622  -0.959   2.530  1.00  0.00     0.159 A 
HETATM    9  C8  UNK     1      -0.178   2.530   2.048  1.00  0.00     0.074 A 
HETATM   10  C9  UNK     1      -0.677   2.939  -0.282  1.00  0.00     0.074 A 
HETATM   11  C10 UNK     1      -0.536   3.408   1.025  1.00  0.00     0.071 A 
ENDROOT
BRANCH   4  12
HETATM   12  C5  UNK     1       0.823  -2.995   1.188  1.00  0.00    -0.020 A 
HETATM   13  C11 UNK     1      -0.192  -3.941   1.343  1.00  0.00     0.015 A 
HETATM   14  C13 UNK     1       0.089  -5.300   1.203  1.00  0.00     0.037 A 
HETATM   15  C15 UNK     1       1.387  -5.716   0.907  1.00  0.00     0.065 A 
HETATM   16  C14 UNK     1       2.403  -4.773   0.751  1.00  0.00     0.037 A 
HETATM   17  C12 UNK     1       2.122  -3.414   0.891  1.00  0.00     0.015 A 
BRANCH  15  18
HETATM   18  O5  UNK     1       1.662  -7.042   0.769  1.00  0.00    -0.361 OA
HETATM   19  H10 UNK     1       0.844  -7.549   0.910  1.00  0.00     0.217 HD
ENDBRANCH  15  18
ENDBRANCH   4  12
BRANCH   7  20
HETATM   20  O2  UNK     1      -0.610   1.188  -1.864  1.00  0.00    -0.360 OA
HETATM   21  H8  UNK     1      -0.414   0.243  -1.952  1.00  0.00     0.217 HD
ENDBRANCH   7  20
BRANCH  11  22
HETATM   22  O4  UNK     1      -0.749   4.724   1.301  1.00  0.00    -0.361 OA
HETATM   23  H9  UNK     1      -0.989   5.184   0.478  1.00  0.00     0.217 HD
ENDBRANCH  11  22
TORSDOF 4
