REMARK  1 active torsions:
REMARK  status: ('A' for Active; 'I' for Inactive)
REMARK    1  A    between atoms: C7_11  and  C8_12 
ROOT
HETATM    1  O3  UNK     1       3.035   0.463   0.440  1.00  0.00    -0.287 OA
HETATM    2  C1  UNK     1      -0.252   1.749  -0.628  1.00  0.00     0.047 C 
HETATM    3  C2  UNK     1       0.045   1.785  -2.122  1.00  0.00     0.044 C 
HETATM    4  C3  UNK     1       0.705   0.841   0.082  1.00  0.00    -0.006 C 
HETATM    5  C4  UNK     1       1.490   2.122  -2.378  1.00  0.00    -0.044 A 
HETATM    6  C5  UNK     1       2.496   1.718  -1.485  1.00  0.00     0.021 A 
HETATM    7  C6  UNK     1       2.155   0.958  -0.254  1.00  0.00     0.189 C 
HETATM    8  C7  UNK     1       0.329  -0.064   0.995  1.00  0.00     0.025 C 
HETATM    9  C11 UNK     1       1.851   2.802  -3.549  1.00  0.00     0.008 A 
HETATM   10  C12 UNK     1       3.838   2.008  -1.757  1.00  0.00     0.016 A 
HETATM   11  C16 UNK     1       3.189   3.094  -3.815  1.00  0.00     0.001 A 
HETATM   12  C18 UNK     1       4.180   2.699  -2.919  1.00  0.00     0.001 A 
ENDROOT
BRANCH   8  13
HETATM   13  C8  UNK     1      -1.051  -0.309   1.443  1.00  0.00     0.000 A 
HETATM   14  C14 UNK     1      -1.531   0.398   2.544  1.00  0.00     0.038 A 
HETATM   15  C17 UNK     1      -2.832   0.187   2.998  1.00  0.00     0.035 A 
HETATM   16  C15 UNK     1      -3.661  -0.728   2.347  1.00  0.00     0.036 A 
HETATM   17 Cl1  UNK     1      -3.419   1.056   4.363  1.00  0.00    -0.084 Cl
HETATM   18  C10 UNK     1      -3.192  -1.432   1.234  1.00  0.00     0.002 A 
HETATM   19  C9  UNK     1      -1.877  -1.231   0.797  1.00  0.00     0.090 A 
HETATM   20  C13 UNK     1      -4.066  -2.423   0.527  1.00  0.00     0.212 C 
HETATM   21  O1  UNK     1      -1.347  -1.895  -0.280  1.00  0.00    -0.325 OA
HETATM   22  C19 UNK     1      -2.172  -2.974  -0.733  1.00  0.00     0.345 C 
HETATM   23  O2  UNK     1      -3.563  -2.668  -0.786  1.00  0.00    -0.362 OA
ENDBRANCH   8  13
TORSDOF 1
