REMARK  3 active torsions:
REMARK  status: ('A' for Active; 'I' for Inactive)
REMARK    1  A    between atoms: C3_9  and  N1_6 
REMARK    2  A    between atoms: C1_7  and  C3_9 
REMARK    3  A    between atoms: C10_16  and  C2_8 
ROOT
HETATM    1  O2  UNK     1      -1.080   0.586   2.283  1.00  0.00    -0.303 OA
HETATM    2  O3  UNK     1       1.049   2.480   1.577  1.00  0.00    -0.265 OA
HETATM    3  O4  UNK     1      -1.326  -2.322  -0.609  1.00  0.00    -0.287 OA
HETATM    4  N1  UNK     1       1.311   1.140  -0.355  1.00  0.00    -0.331 N 
HETATM    5  C2  UNK     1       0.678  -0.058  -0.905  1.00  0.00     0.161 A 
HETATM    6  C5  UNK     1      -0.321  -0.333   0.169  1.00  0.00     0.060 A 
HETATM    7  C7  UNK     1       0.754   1.539   0.861  1.00  0.00     0.279 A 
HETATM    8  C9  UNK     1      -0.303   0.559   1.162  1.00  0.00     0.156 A 
HETATM    9  C11 UNK     1      -1.267  -1.452   0.247  1.00  0.00     0.196 A 
HETATM   10  C12 UNK     1      -2.142  -1.448   1.443  1.00  0.00     0.049 A 
HETATM   11  C13 UNK     1      -2.004  -0.430   2.399  1.00  0.00     0.090 A 
HETATM   12  C16 UNK     1      -3.097  -2.451   1.619  1.00  0.00     0.025 A 
HETATM   13  C17 UNK     1      -2.821  -0.418   3.530  1.00  0.00     0.039 A 
HETATM   14  C20 UNK     1      -3.912  -2.434   2.753  1.00  0.00    -0.061 A 
HETATM   15  C21 UNK     1      -3.775  -1.421   3.704  1.00  0.00     0.009 A 
HETATM   16  C23 UNK     1      -4.935  -3.502   2.949  1.00  0.00     0.048 C 
ENDROOT
BRANCH   5  17
HETATM   17  C10 UNK     1       0.044   0.197  -2.229  1.00  0.00    -0.030 A 
HETATM   18  C14 UNK     1      -0.042  -0.829  -3.171  1.00  0.00     0.012 A 
HETATM   19  C18 UNK     1      -0.634  -0.591  -4.411  1.00  0.00     0.043 A 
HETATM   20  C22 UNK     1      -1.141   0.674  -4.711  1.00  0.00     0.116 A 
HETATM   21  C19 UNK     1      -1.055   1.700  -3.769  1.00  0.00     0.043 A 
HETATM   22  F1  UNK     1      -1.711   0.902  -5.901  1.00  0.00    -0.206 F 
HETATM   23  C15 UNK     1      -0.463   1.462  -2.529  1.00  0.00     0.012 A 
ENDBRANCH   5  17
BRANCH   4  24
HETATM   24  C3  UNK     1       2.402   1.840  -1.005  1.00  0.00     0.159 C 
BRANCH  24  25
HETATM   25  C1  UNK     1       3.749   1.301  -0.563  1.00  0.00     0.139 C 
HETATM   26  O1  UNK     1       3.910   1.490   0.853  1.00  0.00    -0.384 OA
HETATM   27  C8  UNK     1       5.256   1.922   1.103  1.00  0.00     0.168 C 
HETATM   28  C6  UNK     1       6.014   1.779  -0.200  1.00  0.00     0.029 C 
HETATM   29  C4  UNK     1       4.926   2.001  -1.220  1.00  0.00     0.035 C 
ENDBRANCH  24  25
ENDBRANCH   4  24
TORSDOF 3
