REMARK  6 active torsions:
REMARK  status: ('A' for Active; 'I' for Inactive)
REMARK    1  A    between atoms: C12_21  and  O3_3 
REMARK    2  A    between atoms: C20_29  and  O3_3 
REMARK    3  A    between atoms: C7_16  and  N1_8 
REMARK    4  A    between atoms: C14_23  and  N2_9 
REMARK    5  A    between atoms: C1_10  and  C4_13 
REMARK    6  A    between atoms: C12_21  and  C3_12 
ROOT
HETATM    1  O1  UNK     1       1.093   0.109  -2.660  1.00  0.00    -0.292 OA
HETATM    2  O2  UNK     1       2.255   2.585   0.508  1.00  0.00    -0.274 OA
HETATM    3  O4  UNK     1       0.277   2.170   1.563  1.00  0.00    -0.259 OA
HETATM    4  C1  UNK     1      -0.696   0.326  -0.423  1.00  0.00     0.104 C 
HETATM    5  C2  UNK     1       0.631   1.057  -0.508  1.00  0.00     0.066 A 
HETATM    6  C3  UNK     1      -1.062  -0.329  -1.745  1.00  0.00     0.081 C 
HETATM    7  C5  UNK     1       1.428   0.905  -1.577  1.00  0.00     0.104 A 
HETATM    8  C6  UNK     1       2.721   1.577  -1.657  1.00  0.00     0.033 A 
HETATM    9  C7  UNK     1      -0.193  -0.423  -2.774  1.00  0.00     0.155 C 
HETATM   10  C8  UNK     1       1.013   1.968   0.603  1.00  0.00     0.298 A 
HETATM   11  C9  UNK     1       3.102   2.400  -0.601  1.00  0.00     0.092 A 
HETATM   12  C13 UNK     1       3.603   1.437  -2.736  1.00  0.00     0.017 A 
HETATM   13  C16 UNK     1       4.322   3.076  -0.590  1.00  0.00     0.038 A 
HETATM   14  C18 UNK     1       4.830   2.109  -2.740  1.00  0.00     0.001 A 
HETATM   15  C19 UNK     1       5.189   2.927  -1.669  1.00  0.00     0.003 A 
ENDROOT
BRANCH   4  16
HETATM   16  C4  UNK     1      -0.658  -0.701   0.671  1.00  0.00    -0.042 A 
HETATM   17  C10 UNK     1      -1.533  -0.594   1.746  1.00  0.00     0.044 A 
HETATM   18  C14 UNK     1      -1.496  -1.548   2.763  1.00  0.00     0.103 A 
HETATM   19  C17 UNK     1      -0.584  -2.601   2.699  1.00  0.00     0.036 A 
HETATM   20  C15 UNK     1       0.291  -2.701   1.617  1.00  0.00     0.003 A 
HETATM   21  C11 UNK     1       0.254  -1.748   0.600  1.00  0.00     0.008 A 
BRANCH  18  22
HETATM   22  N2  UNK     1      -2.388  -1.447   3.863  1.00  0.00    -0.116 N 
HETATM   23  O6  UNK     1      -2.335  -2.318   4.764  1.00  0.00    -0.532 OA
HETATM   24  O7  UNK     1      -3.198  -0.490   3.898  1.00  0.00    -0.532 OA
ENDBRANCH  18  22
ENDBRANCH   4  16
BRANCH   6  25
HETATM   25  C12 UNK     1      -2.440  -0.839  -1.863  1.00  0.00     0.294 C 
HETATM   26  O5  UNK     1      -2.745  -1.779  -2.572  1.00  0.00    -0.259 OA
BRANCH  25  27
HETATM   27  O3  UNK     1      -3.241  -0.090  -1.068  1.00  0.00    -0.318 OA
BRANCH  27  28
HETATM   28  C20 UNK     1      -4.622  -0.467  -1.075  1.00  0.00     0.174 C 
HETATM   29  C21 UNK     1      -5.388   0.452  -0.147  1.00  0.00     0.034 C 
ENDBRANCH  27  28
ENDBRANCH  25  27
ENDBRANCH   6  25
BRANCH   9  30
HETATM   30  N1  UNK     1      -0.431  -1.006  -3.986  1.00  0.00    -0.379 N 
HETATM   31  H8  UNK     1       0.305  -1.011  -4.680  1.00  0.00     0.158 HD
HETATM   32  H9  UNK     1      -1.329  -1.425  -4.190  1.00  0.00     0.158 HD
ENDBRANCH   9  30
TORSDOF 6
