REMARK  7 active torsions:
REMARK  status: ('A' for Active; 'I' for Inactive)
REMARK    1  A    between atoms: C3_14  and  O1_1 
REMARK    2  A    between atoms: C7_18  and  O1_1 
REMARK    3  A    between atoms: C5_16  and  N1_8 
REMARK    4  A    between atoms: N1_8  and  N2_9 
REMARK    5  A    between atoms: C9_20  and  N3_10 
REMARK    6  A    between atoms: C14_25  and  N4_11 
REMARK    7  A    between atoms: C10_21  and  C7_18 
ROOT
HETATM    1  N2  UNK     1       0.594   1.095  -0.780  1.00  0.00    -0.182 NA
HETATM    2  C10 UNK     1      -0.267   0.124  -0.722  1.00  0.00     0.052 C 
HETATM    3  C17 UNK     1      -0.361  -0.796  -1.915  1.00  0.00     0.070 C 
ENDROOT
BRANCH   1   4
HETATM    4  N1  UNK     1       1.332   1.202  -1.899  1.00  0.00    -0.276 N 
HETATM    5  H9  UNK     1       0.937   0.954  -2.794  1.00  0.00     0.189 HD
BRANCH   4   6
HETATM    6  C5  UNK     1       2.629   1.738  -1.850  1.00  0.00     0.083 A 
HETATM    7  C12 UNK     1       3.177   2.090  -0.612  1.00  0.00     0.036 A 
HETATM    8  C15 UNK     1       4.463   2.624  -0.536  1.00  0.00     0.038 A 
HETATM    9  C14 UNK     1       5.210   2.810  -1.699  1.00  0.00     0.105 A 
HETATM   10  C13 UNK     1       4.671   2.462  -2.938  1.00  0.00     0.074 A 
HETATM   11  C9  UNK     1       3.385   1.928  -3.013  1.00  0.00     0.133 A 
BRANCH   9  12
HETATM   12  N4  UNK     1       6.520   3.354  -1.622  1.00  0.00    -0.116 N 
HETATM   13  O6  UNK     1       6.985   3.660  -0.498  1.00  0.00    -0.532 OA
HETATM   14  O7  UNK     1       7.175   3.513  -2.680  1.00  0.00    -0.532 OA
ENDBRANCH   9  12
BRANCH  11  15
HETATM   15  N3  UNK     1       2.859   1.580  -4.289  1.00  0.00    -0.113 N 
HETATM   16  O4  UNK     1       3.567   1.764  -5.306  1.00  0.00    -0.532 OA
HETATM   17  O5  UNK     1       1.703   1.099  -4.356  1.00  0.00    -0.532 OA
ENDBRANCH  11  15
ENDBRANCH   4   6
ENDBRANCH   1   4
BRANCH   2  18
HETATM   18  C7  UNK     1      -1.178  -0.183   0.449  1.00  0.00     0.231 C 
BRANCH  18  19
HETATM   19  O1  UNK     1      -2.535  -0.110   0.014  1.00  0.00    -0.345 OA
BRANCH  19  20
HETATM   20  C3  UNK     1      -3.436  -0.896   0.665  1.00  0.00     0.071 A 
HETATM   21  C4  UNK     1      -3.238  -1.220   2.005  1.00  0.00     0.075 A 
HETATM   22  C2  UNK     1      -4.175  -2.026   2.650  1.00  0.00     0.092 A 
HETATM   23  C1  UNK     1      -5.301  -2.512   1.991  1.00  0.00    -0.002 A 
HETATM   24  O2  UNK     1      -3.947  -2.337   4.006  1.00  0.00    -0.275 OA
HETATM   25  C6  UNK     1      -5.491  -2.182   0.647  1.00  0.00     0.017 A 
HETATM   26  C11 UNK     1      -6.236  -3.347   2.725  1.00  0.00     0.020 A 
HETATM   27  C8  UNK     1      -4.560  -1.375  -0.013  1.00  0.00     0.038 A 
HETATM   28  C16 UNK     1      -6.014  -3.637   4.009  1.00  0.00     0.083 A 
HETATM   29  C18 UNK     1      -4.829  -3.134   4.729  1.00  0.00     0.288 A 
HETATM   30  O3  UNK     1      -4.639  -3.408   5.909  1.00  0.00    -0.260 OA
ENDBRANCH  19  20
ENDBRANCH  18  19
ENDBRANCH   2  18
TORSDOF 7
