REMARK  1 active torsions:
REMARK  status: ('A' for Active; 'I' for Inactive)
REMARK    1  A    between atoms: C12_17  and  C8_13 
ROOT
HETATM    1  O1  UNK     1       1.014   0.576   0.368  1.00  0.00    -0.309 OA
HETATM    2  O2  UNK     1      -1.571  -0.282  -2.663  1.00  0.00    -0.287 OA
HETATM    3  C1  UNK     1      -1.125  -0.344  -0.325  1.00  0.00     0.054 A 
HETATM    4  C2  UNK     1      -2.335  -0.948   0.026  1.00  0.00    -0.044 A 
HETATM    5  C3  UNK     1      -0.188  -0.019   0.655  1.00  0.00     0.091 A 
HETATM    6  C4  UNK     1      -1.664  -0.901   2.350  1.00  0.00    -0.059 A 
HETATM    7  C5  UNK     1      -2.601  -1.225   1.368  1.00  0.00     0.014 A 
HETATM    8  C6  UNK     1      -0.457  -0.297   1.996  1.00  0.00     0.045 A 
HETATM    9  C7  UNK     1      -0.817  -0.038  -1.731  1.00  0.00     0.188 A 
HETATM   10  C8  UNK     1       1.307   0.865  -0.956  1.00  0.00     0.111 A 
HETATM   11  C9  UNK     1       0.489   0.601  -1.985  1.00  0.00     0.093 A 
HETATM   12  C10 UNK     1      -3.386  -1.329  -0.965  1.00  0.00     0.049 C 
HETATM   13  C11 UNK     1      -1.953  -1.200   3.783  1.00  0.00     0.048 C 
ENDROOT
BRANCH  10  14
HETATM   14  C12 UNK     1       2.643   1.511  -1.145  1.00  0.00     0.237 C 
HETATM   15 Cl1  UNK     1       2.407   3.107  -1.897  1.00  0.00    -0.076 Cl
HETATM   16 Cl2  UNK     1       3.446   1.705   0.433  1.00  0.00    -0.076 Cl
HETATM   17 Cl3  UNK     1       3.656   0.495  -2.199  1.00  0.00    -0.076 Cl
ENDBRANCH  10  14
TORSDOF 1
