REMARK  4 active torsions:
REMARK  status: ('A' for Active; 'I' for Inactive)
REMARK    1  A    between atoms: C11_16  and  N1_5 
REMARK       I    between atoms: C14_19  and  N1_5 
REMARK    2  A    between atoms: C1_6  and  C11_16 
REMARK    3  A    between atoms: C11_16  and  C12_17 
REMARK    4  A    between atoms: C14_19  and  C15_20 
ROOT
HETATM    1  O1  UNK     1       1.152  -1.270   1.364  1.00  0.00    -0.267 OA
HETATM    2  N1  UNK     1       0.774   0.793   0.345  1.00  0.00    -0.351 N 
HETATM    3  C14 UNK     1       0.407  -0.433   0.866  1.00  0.00     0.258 C 
HETATM    4  H19 UNK     1       0.058   1.431   0.013  1.00  0.00     0.163 HD
ENDROOT
BRANCH   2   5
HETATM    5  C11 UNK     1       2.139   1.257   0.323  1.00  0.00     0.093 C 
BRANCH   5   6
HETATM    6  C1  UNK     1       2.593   1.445  -1.127  1.00  0.00    -0.019 C 
HETATM    7  C5  UNK     1       1.757   2.551  -1.813  1.00  0.00     0.016 C 
HETATM    8  C2  UNK     1       2.210   2.742  -3.271  1.00  0.00    -0.013 C 
HETATM    9  C8  UNK     1       3.695   3.139  -3.291  1.00  0.00     0.009 C 
HETATM   10  C9  UNK     1       2.028   1.420  -4.034  1.00  0.00     0.009 C 
HETATM   11  C3  UNK     1       4.544   2.040  -2.631  1.00  0.00    -0.013 C 
HETATM   12  C10 UNK     1       4.351   0.722  -3.398  1.00  0.00     0.009 C 
HETATM   13  C6  UNK     1       4.085   1.852  -1.175  1.00  0.00     0.016 C 
HETATM   14  C4  UNK     1       2.869   0.312  -3.378  1.00  0.00    -0.013 C 
HETATM   15  C7  UNK     1       2.414   0.128  -1.919  1.00  0.00     0.016 C 
ENDBRANCH   5   6
BRANCH   5  16
HETATM   16  C12 UNK     1       2.302   2.561   1.112  1.00  0.00     0.021 C 
HETATM   17  C13 UNK     1       1.875   2.419   2.567  1.00  0.00     0.007 C 
ENDBRANCH   5  16
ENDBRANCH   2   5
BRANCH   3  18
HETATM   18  C15 UNK     1      -1.044  -0.679   0.777  1.00  0.00     0.108 A 
HETATM   19  C16 UNK     1      -1.573  -1.453   1.732  1.00  0.00     0.037 A 
HETATM   20  C18 UNK     1      -2.997  -1.753   1.728  1.00  0.00     0.001 A 
HETATM   21  C19 UNK     1      -3.794  -1.222   0.719  1.00  0.00     0.089 A 
HETATM   22  C20 UNK     1      -3.591  -2.556   2.704  1.00  0.00     0.038 A 
HETATM   23  O2  UNK     1      -3.231  -0.407  -0.283  1.00  0.00    -0.274 OA
HETATM   24  C21 UNK     1      -5.163  -1.470   0.658  1.00  0.00     0.040 A 
HETATM   25  C17 UNK     1      -1.873  -0.103  -0.306  1.00  0.00     0.304 A 
HETATM   26  O3  UNK     1      -1.392   0.607  -1.183  1.00  0.00    -0.259 OA
HETATM   27  C23 UNK     1      -5.748  -2.273   1.635  1.00  0.00     0.026 A 
HETATM   28  C22 UNK     1      -4.964  -2.814   2.657  1.00  0.00     0.035 A 
HETATM   29 Cl1  UNK     1      -5.693  -3.804   3.862  1.00  0.00    -0.084 Cl
ENDBRANCH   3  18
TORSDOF 4
