REMARK  7 active torsions:
REMARK  status: ('A' for Active; 'I' for Inactive)
REMARK    1  A    between atoms: C14_20  and  O1_1 
REMARK    2  A    between atoms: C3_9  and  O1_1 
REMARK    3  A    between atoms: C2_8  and  N1_6 
REMARK       I    between atoms: C6_12  and  N1_6 
REMARK    4  A    between atoms: C1_7  and  C2_8 
REMARK    5  A    between atoms: C1_7  and  C3_9 
REMARK    6  A    between atoms: C4_10  and  C6_12 
REMARK    7  A    between atoms: C14_20  and  C15_21 
ROOT
HETATM    1  O3  UNK     1      -1.987   0.581  -2.244  1.00  0.00    -0.267 OA
HETATM    2  N1  UNK     1       0.059  -0.512  -2.016  1.00  0.00    -0.357 N 
HETATM    3  C6  UNK     1      -1.189  -0.090  -1.594  1.00  0.00     0.257 C 
HETATM    4  H7  UNK     1       0.636  -1.088  -1.411  1.00  0.00     0.162 HD
ENDROOT
BRANCH   3   5
HETATM    5  C4  UNK     1      -1.510  -0.533  -0.232  1.00  0.00     0.108 A 
HETATM    6  C7  UNK     1      -2.806  -0.737   0.034  1.00  0.00     0.037 A 
HETATM    7  C5  UNK     1      -3.223  -1.176   1.356  1.00  0.00    -0.001 A 
HETATM    8  C10 UNK     1      -4.564  -1.401   1.678  1.00  0.00     0.014 A 
HETATM    9  C8  UNK     1      -2.255  -1.378   2.335  1.00  0.00     0.089 A 
HETATM   10  C12 UNK     1      -4.914  -1.823   2.964  1.00  0.00     0.001 A 
HETATM   11  C13 UNK     1      -3.928  -2.020   3.933  1.00  0.00     0.003 A 
HETATM   12  C11 UNK     1      -2.589  -1.798   3.621  1.00  0.00     0.038 A 
HETATM   13  O2  UNK     1      -0.893  -1.162   2.049  1.00  0.00    -0.274 OA
HETATM   14  C9  UNK     1      -0.463  -0.742   0.794  1.00  0.00     0.304 A 
HETATM   15  O4  UNK     1       0.725  -0.555   0.554  1.00  0.00    -0.259 OA
ENDBRANCH   3   5
BRANCH   2  16
HETATM   16  C2  UNK     1       0.595  -0.202  -3.322  1.00  0.00     0.125 C 
BRANCH  16  17
HETATM   17  C1  UNK     1       1.383   1.101  -3.334  1.00  0.00     0.046 C 
BRANCH  17  18
HETATM   18  C3  UNK     1       2.585   1.073  -2.398  1.00  0.00     0.180 C 
BRANCH  18  19
HETATM   19  O1  UNK     1       3.245   2.330  -2.464  1.00  0.00    -0.321 OA
BRANCH  19  20
HETATM   20  C14 UNK     1       4.355   2.465  -1.672  1.00  0.00     0.258 C 
HETATM   21  O5  UNK     1       4.809   1.604  -0.930  1.00  0.00    -0.265 OA
BRANCH  20  22
HETATM   22  C15 UNK     1       4.936   3.847  -1.858  1.00  0.00     0.106 C 
HETATM   23  C16 UNK     1       6.163   4.074  -0.992  1.00  0.00     0.015 C 
ENDBRANCH  20  22
ENDBRANCH  19  20
ENDBRANCH  18  19
ENDBRANCH  17  18
ENDBRANCH  16  17
ENDBRANCH   2  16
TORSDOF 7
