REMARK  7 active torsions:
REMARK  status: ('A' for Active; 'I' for Inactive)
REMARK    1  A    between atoms: C12_17  and  O3_3 
REMARK    2  A    between atoms: C19_24  and  O3_3 
REMARK    3  A    between atoms: C11_16  and  O4_4 
REMARK    4  A    between atoms: C12_17  and  C3_8 
REMARK    5  A    between atoms: C15_20  and  C5_10 
REMARK    6  A    between atoms: C17_22  and  C8_13 
REMARK    7  A    between atoms: C15_20  and  C18_23 
ROOT
HETATM    1  C3  UNK     1      -1.622  -0.536  -1.463  1.00  0.00     0.000 A 
HETATM    2  C8  UNK     1       0.234  -0.382  -3.002  1.00  0.00    -0.035 A 
HETATM    3  C9  UNK     1      -0.456  -1.075  -2.008  1.00  0.00     0.023 A 
HETATM    4  C11 UNK     1      -2.098   0.695  -1.914  1.00  0.00     0.076 A 
HETATM    5  C14 UNK     1      -0.242   0.850  -3.453  1.00  0.00     0.014 A 
HETATM    6  C16 UNK     1      -1.408   1.388  -2.909  1.00  0.00     0.038 A 
ENDROOT
BRANCH   2   7
HETATM    7  C17 UNK     1       1.466  -0.950  -3.577  1.00  0.00     0.015 C 
HETATM    8  C18 UNK     1       2.571  -1.238  -2.874  1.00  0.00     0.056 C 
BRANCH   8   9
HETATM    9  C15 UNK     1       2.623  -0.988  -1.393  1.00  0.00     0.182 C 
HETATM   10  O5  UNK     1       2.824  -1.923  -0.603  1.00  0.00    -0.288 OA
BRANCH   9  11
HETATM   11  C5  UNK     1       2.463   0.375  -0.911  1.00  0.00     0.017 A 
HETATM   12  C13 UNK     1       2.881   1.446  -1.702  1.00  0.00     0.018 A 
HETATM   13  C10 UNK     1       2.736   2.755  -1.240  1.00  0.00     0.040 A 
HETATM   14  C2  UNK     1       2.175   2.989   0.016  1.00  0.00     0.102 A 
HETATM   15  C1  UNK     1       1.732   1.918   0.795  1.00  0.00     0.103 A 
HETATM   16  O2  UNK     1       2.078   4.294   0.423  1.00  0.00    -0.346 OA
HETATM   17  O1  UNK     1       1.143   2.085   2.021  1.00  0.00    -0.346 OA
HETATM   18  C7  UNK     1       1.889   0.609   0.338  1.00  0.00     0.055 A 
HETATM   19  C4  UNK     1       0.722   3.436   2.231  1.00  0.00     0.202 C 
HETATM   20  C6  UNK     1       1.822   4.398   1.826  1.00  0.00     0.202 C 
ENDBRANCH   9  11
ENDBRANCH   8   9
ENDBRANCH   2   7
BRANCH   1  21
HETATM   21  C12 UNK     1      -2.348  -1.291  -0.400  1.00  0.00     0.217 C 
BRANCH  21  22
HETATM   22  O3  UNK     1      -2.111  -0.677   0.860  1.00  0.00    -0.347 OA
BRANCH  22  23
HETATM   23  C19 UNK     1      -2.680  -1.272   1.955  1.00  0.00     0.069 A 
HETATM   24  C20 UNK     1      -3.449  -2.426   1.801  1.00  0.00     0.037 A 
HETATM   25  C23 UNK     1      -4.029  -3.032   2.915  1.00  0.00     0.003 A 
HETATM   26  C25 UNK     1      -3.840  -2.485   4.184  1.00  0.00     0.000 A 
HETATM   27  C24 UNK     1      -3.071  -1.331   4.338  1.00  0.00     0.003 A 
HETATM   28  C21 UNK     1      -2.492  -0.725   3.224  1.00  0.00     0.037 A 
ENDBRANCH  22  23
ENDBRANCH  21  22
ENDBRANCH   1  21
BRANCH   4  29
HETATM   29  O4  UNK     1      -3.236   1.235  -1.394  1.00  0.00    -0.355 OA
HETATM   30  C22 UNK     1      -3.650   2.497  -1.913  1.00  0.00     0.210 C 
ENDBRANCH   4  29
TORSDOF 7
