REMARK  2 active torsions:
REMARK  status: ('A' for Active; 'I' for Inactive)
REMARK    1  A    between atoms: C1_5  and  N1_4 
REMARK       I    between atoms: C10_14  and  N1_4 
REMARK    2  A    between atoms: C10_14  and  C12_16 
ROOT
HETATM    1  O1  UNK     1       0.173   2.079   1.576  1.00  0.00    -0.267 OA
HETATM    2  N1  UNK     1      -0.696   0.062   0.797  1.00  0.00    -0.348 N 
HETATM    3  C10 UNK     1       0.116   1.176   0.749  1.00  0.00     0.258 C 
HETATM    4  H8  UNK     1      -0.616  -0.655   0.082  1.00  0.00     0.163 HD
ENDROOT
BRANCH   3   5
HETATM    5  C12 UNK     1       0.970   1.203  -0.452  1.00  0.00     0.108 A 
HETATM    6  C13 UNK     1       2.152   1.817  -0.324  1.00  0.00     0.037 A 
HETATM    7  C14 UNK     1       3.065   1.894  -1.454  1.00  0.00    -0.001 A 
HETATM    8  C16 UNK     1       2.687   1.323  -2.665  1.00  0.00     0.089 A 
HETATM    9  C17 UNK     1       4.309   2.524  -1.365  1.00  0.00     0.014 A 
HETATM   10  O2  UNK     1       1.442   0.678  -2.794  1.00  0.00    -0.274 OA
HETATM   11  C18 UNK     1       3.515   1.363  -3.785  1.00  0.00     0.038 A 
HETATM   12  C15 UNK     1       0.548   0.587  -1.730  1.00  0.00     0.304 A 
HETATM   13  O3  UNK     1      -0.535   0.024  -1.852  1.00  0.00    -0.259 OA
HETATM   14  C20 UNK     1       4.753   1.993  -3.688  1.00  0.00     0.003 A 
HETATM   15  C19 UNK     1       5.150   2.572  -2.480  1.00  0.00     0.001 A 
ENDBRANCH   3   5
BRANCH   2  16
HETATM   16  C1  UNK     1      -1.621  -0.187   1.882  1.00  0.00     0.118 C 
HETATM   17  C2  UNK     1      -0.915  -0.918   3.030  1.00  0.00     0.030 C 
HETATM   18  C3  UNK     1      -0.742  -2.400   2.713  1.00  0.00     0.007 C 
HETATM   19  C5  UNK     1      -2.101  -3.070   2.533  1.00  0.00     0.039 C 
HETATM   20  C6  UNK     1      -3.046  -2.289   1.654  1.00  0.00    -0.050 A 
HETATM   21  C4  UNK     1      -2.843  -0.923   1.378  1.00  0.00    -0.029 A 
HETATM   22  C8  UNK     1      -4.189  -2.931   1.152  1.00  0.00     0.007 A 
HETATM   23  C7  UNK     1      -3.780  -0.237   0.589  1.00  0.00     0.010 A 
HETATM   24  C9  UNK     1      -4.907  -0.890   0.089  1.00  0.00     0.001 A 
HETATM   25  C11 UNK     1      -5.111  -2.236   0.371  1.00  0.00     0.001 A 
ENDBRANCH   2  16
TORSDOF 2
