REMARK  4 active torsions:
REMARK  status: ('A' for Active; 'I' for Inactive)
REMARK    1  A    between atoms: C7_16  and  N1_7 
REMARK    2  A    between atoms: C19_28  and  N2_8 
REMARK    3  A    between atoms: C1_10  and  C3_12 
REMARK    4  A    between atoms: C11_20  and  C14_23 
ROOT
HETATM    1  O1  UNK     1       2.837  -0.160  -0.176  1.00  0.00    -0.291 OA
HETATM    2  O3  UNK     1       0.729   2.647  -2.452  1.00  0.00    -0.274 OA
HETATM    3  O4  UNK     1      -0.285   3.422  -0.564  1.00  0.00    -0.259 OA
HETATM    4  N3  UNK     1       1.962   0.591   4.500  1.00  0.00    -0.191 NA
HETATM    5  C1  UNK     1       0.942   1.502   1.197  1.00  0.00     0.133 C 
HETATM    6  C2  UNK     1       1.211   1.593  -0.293  1.00  0.00     0.068 A 
HETATM    7  C4  UNK     1       2.102   0.779  -0.878  1.00  0.00     0.104 A 
HETATM    8  C5  UNK     1       1.941   0.595   1.909  1.00  0.00     0.088 C 
HETATM    9  C6  UNK     1       2.348   0.836  -2.316  1.00  0.00     0.033 A 
HETATM   10  C7  UNK     1       2.809  -0.178   1.217  1.00  0.00     0.160 C 
HETATM   11  C8  UNK     1       0.488   2.624  -1.083  1.00  0.00     0.298 A 
HETATM   12  C10 UNK     1       1.645   1.772  -3.068  1.00  0.00     0.092 A 
HETATM   13  C13 UNK     1       3.250  -0.003  -2.982  1.00  0.00     0.017 A 
HETATM   14  C15 UNK     1       1.812   1.893  -4.447  1.00  0.00     0.038 A 
HETATM   15  C16 UNK     1       1.952   0.593   3.340  1.00  0.00     0.100 C 
HETATM   16  C17 UNK     1       3.430   0.106  -4.365  1.00  0.00     0.001 A 
HETATM   17  C18 UNK     1       2.712   1.053  -5.096  1.00  0.00     0.003 A 
ENDROOT
BRANCH   5  18
HETATM   18  C3  UNK     1      -0.468   1.103   1.490  1.00  0.00     0.068 A 
HETATM   19  O2  UNK     1      -0.824  -0.121   1.053  1.00  0.00    -0.313 OA
HETATM   20  C11 UNK     1      -2.123  -0.278   1.419  1.00  0.00     0.088 A 
HETATM   21  C12 UNK     1      -2.578   0.839   2.080  1.00  0.00     0.040 A 
HETATM   22  C9  UNK     1      -1.488   1.740   2.124  1.00  0.00     0.036 A 
BRANCH  20  23
HETATM   23  C14 UNK     1      -2.720  -1.531   1.049  1.00  0.00     0.031 A 
HETATM   24  C19 UNK     1      -3.375  -1.706  -0.176  1.00  0.00     0.115 A 
HETATM   25  C21 UNK     1      -3.943  -2.937  -0.503  1.00  0.00     0.037 A 
HETATM   26  C23 UNK     1      -3.860  -4.003   0.393  1.00  0.00     0.002 A 
HETATM   27  C22 UNK     1      -3.209  -3.838   1.615  1.00  0.00     0.001 A 
HETATM   28  C20 UNK     1      -2.641  -2.607   1.942  1.00  0.00     0.017 A 
BRANCH  24  29
HETATM   29  N2  UNK     1      -3.477  -0.640  -1.115  1.00  0.00    -0.115 N 
HETATM   30  O5  UNK     1      -4.072  -0.844  -2.198  1.00  0.00    -0.532 OA
HETATM   31  O6  UNK     1      -2.969   0.469  -0.827  1.00  0.00    -0.532 OA
ENDBRANCH  24  29
ENDBRANCH  20  23
ENDBRANCH   5  18
BRANCH  10  32
HETATM   32  N1  UNK     1       3.724  -1.029   1.775  1.00  0.00    -0.379 N 
HETATM   33  H7  UNK     1       4.329  -1.563   1.164  1.00  0.00     0.158 HD
HETATM   34  H8  UNK     1       3.798  -1.129   2.779  1.00  0.00     0.158 HD
ENDBRANCH  10  32
TORSDOF 4
