REMARK  5 active torsions:
REMARK  status: ('A' for Active; 'I' for Inactive)
REMARK    1  A    between atoms: C9_18  and  O2_3 
REMARK    2  A    between atoms: C4_13  and  N1_8 
REMARK       I    between atoms: C8_17  and  N1_8 
REMARK       I    between atoms: C6_15  and  N2_9 
REMARK    3  A    between atoms: C2_11  and  C9_18 
REMARK    4  A    between atoms: C3_12  and  C6_15 
REMARK    5  A    between atoms: C7_16  and  C8_17 
ROOT
HETATM    1  S1  UNK     1      -2.243  -1.103  -0.405  1.00  0.00    -0.065 SA
HETATM    2  C1  UNK     1      -2.419  -1.676   2.093  1.00  0.00    -0.020 A 
HETATM    3  C2  UNK     1      -1.195  -0.963   1.936  1.00  0.00     0.080 A 
HETATM    4  C3  UNK     1      -3.089  -1.822   0.899  1.00  0.00     0.081 A 
HETATM    5  C4  UNK     1      -0.998  -0.608   0.640  1.00  0.00     0.094 A 
HETATM    6  C5  UNK     1      -2.914  -2.198   3.392  1.00  0.00     0.051 C 
ENDROOT
BRANCH   5   7
HETATM    7  N1  UNK     1       0.054   0.092   0.042  1.00  0.00    -0.316 N 
HETATM    8  C8  UNK     1       0.164   0.410  -1.305  1.00  0.00     0.262 C 
HETATM    9  O4  UNK     1      -0.615   0.150  -2.220  1.00  0.00    -0.267 OA
HETATM   10  H4  UNK     1       0.798   0.361   0.678  1.00  0.00     0.169 HD
BRANCH   8  11
HETATM   11  C7  UNK     1       1.397   1.151  -1.593  1.00  0.00     0.108 A 
HETATM   12  C11 UNK     1       1.920   0.978  -2.813  1.00  0.00     0.037 A 
HETATM   13  C10 UNK     1       3.142   1.670  -3.192  1.00  0.00    -0.001 A 
HETATM   14  C12 UNK     1       3.754   2.511  -2.268  1.00  0.00     0.089 A 
HETATM   15  C14 UNK     1       3.722   1.519  -4.454  1.00  0.00     0.014 A 
HETATM   16  O1  UNK     1       3.199   2.689  -0.986  1.00  0.00    -0.274 OA
HETATM   17  C17 UNK     1       4.926   3.202  -2.568  1.00  0.00     0.038 A 
HETATM   18  C13 UNK     1       2.031   2.041  -0.594  1.00  0.00     0.304 A 
HETATM   19  O6  UNK     1       1.555   2.201   0.525  1.00  0.00    -0.259 OA
HETATM   20  C19 UNK     1       5.498   3.046  -3.828  1.00  0.00     0.003 A 
HETATM   21  C18 UNK     1       4.898   2.206  -4.770  1.00  0.00     0.001 A 
ENDBRANCH   8  11
ENDBRANCH   5   7
BRANCH   3  22
HETATM   22  C9  UNK     1      -0.268  -0.648   2.995  1.00  0.00     0.296 C 
HETATM   23  O5  UNK     1      -0.438  -0.969   4.181  1.00  0.00    -0.259 OA
BRANCH  22  24
HETATM   24  O2  UNK     1       0.843   0.051   2.576  1.00  0.00    -0.322 OA
HETATM   25  C20 UNK     1       1.805   0.397   3.578  1.00  0.00     0.213 C 
ENDBRANCH  22  24
ENDBRANCH   3  22
BRANCH   4  26
HETATM   26  C6  UNK     1      -4.336  -2.467   0.635  1.00  0.00     0.260 C 
HETATM   27  O3  UNK     1      -4.394  -3.680   0.338  1.00  0.00    -0.267 OA
HETATM   28  N2  UNK     1      -5.534  -1.700   0.713  1.00  0.00    -0.356 N 
HETATM   29  C15 UNK     1      -6.829  -2.314   0.451  1.00  0.00     0.152 C 
HETATM   30  C16 UNK     1      -5.571  -0.284   1.075  1.00  0.00     0.152 C 
ENDBRANCH   4  26
TORSDOF 5
