REMARK  1 active torsions:
REMARK  status: ('A' for Active; 'I' for Inactive)
REMARK    1  A    between atoms: C8_11  and  O2_2 
ROOT
HETATM    1  O1  UNK     1      -1.761  -0.582  -0.824  1.00  0.00    -0.275 OA
HETATM    2  O3  UNK     1      -3.377  -1.491   0.515  1.00  0.00    -0.260 OA
HETATM    3  C1  UNK     1       0.295   0.262   0.189  1.00  0.00     0.007 A 
HETATM    4  C2  UNK     1      -0.223  -0.132   1.507  1.00  0.00    -0.043 A 
HETATM    5  C3  UNK     1      -0.494   0.023  -0.937  1.00  0.00     0.090 A 
HETATM    6  C4  UNK     1       1.544   0.867  -0.007  1.00  0.00     0.051 A 
HETATM    7  C5  UNK     1      -0.077   0.366  -2.225  1.00  0.00     0.041 A 
HETATM    8  C6  UNK     1      -1.432  -0.705   1.584  1.00  0.00     0.090 A 
HETATM    9  C7  UNK     1       0.601   0.112   2.738  1.00  0.00     0.049 C 
HETATM   10  C8  UNK     1       1.975   1.216  -1.292  1.00  0.00     0.066 A 
HETATM   11  C9  UNK     1       1.165   0.966  -2.399  1.00  0.00     0.039 A 
HETATM   12  C10 UNK     1      -2.275  -0.964   0.405  1.00  0.00     0.288 A 
ENDROOT
BRANCH  10  13
HETATM   13  O2  UNK     1       3.192   1.803  -1.462  1.00  0.00    -0.361 OA
HETATM   14  H8  UNK     1       3.329   1.976  -2.409  1.00  0.00     0.217 HD
ENDBRANCH  10  13
TORSDOF 1
