REMARK  6 active torsions:
REMARK  status: ('A' for Active; 'I' for Inactive)
REMARK    1  A    between atoms: C17_22  and  O2_2 
REMARK    2  A    between atoms: C8_13  and  O2_2 
REMARK    3  A    between atoms: C13_18  and  O3_3 
REMARK    4  A    between atoms: C20_25  and  O3_3 
REMARK    5  A    between atoms: C3_8  and  C4_9 
REMARK    6  A    between atoms: C17_22  and  C20_25 
ROOT
HETATM    1  O1  UNK     1       1.492   1.824  -0.511  1.00  0.00    -0.309 OA
HETATM    2  O4  UNK     1      -1.227  -0.340  -2.638  1.00  0.00    -0.287 OA
HETATM    3  C1  UNK     1      -0.639   0.661  -0.580  1.00  0.00     0.051 A 
HETATM    4  C2  UNK     1       0.331   1.405   0.089  1.00  0.00     0.090 A 
HETATM    5  C3  UNK     1       1.709   1.486  -1.838  1.00  0.00     0.090 A 
HETATM    6  C5  UNK     1      -1.803   0.261   0.081  1.00  0.00     0.055 A 
HETATM    7  C6  UNK     1      -0.416   0.307  -1.990  1.00  0.00     0.187 A 
HETATM    8  C7  UNK     1       0.848   0.780  -2.589  1.00  0.00     0.093 A 
HETATM    9  C8  UNK     1      -1.988   0.612   1.419  1.00  0.00     0.070 A 
HETATM   10  C9  UNK     1       0.143   1.755   1.426  1.00  0.00     0.041 A 
HETATM   11  C10 UNK     1      -1.018   1.358   2.090  1.00  0.00     0.039 A 
ENDROOT
BRANCH   9  12
HETATM   12  O2  UNK     1      -3.120   0.228   2.072  1.00  0.00    -0.342 OA
BRANCH  12  13
HETATM   13  C17 UNK     1      -3.730  -0.991   1.651  1.00  0.00     0.286 C 
BRANCH  13  14
HETATM   14  C20 UNK     1      -4.439  -1.610   2.826  1.00  0.00     0.283 C 
HETATM   15  O5  UNK     1      -4.463  -1.144   3.957  1.00  0.00    -0.263 OA
BRANCH  14  16
HETATM   16  O3  UNK     1      -5.044  -2.765   2.421  1.00  0.00    -0.315 OA
BRANCH  16  17
HETATM   17  C13 UNK     1      -5.171  -3.779   3.423  1.00  0.00     0.123 C 
HETATM   18  C18 UNK     1      -5.889  -4.982   2.831  1.00  0.00     0.040 C 
HETATM   19  C19 UNK     1      -3.789  -4.144   3.944  1.00  0.00     0.040 C 
ENDBRANCH  16  17
ENDBRANCH  14  16
ENDBRANCH  13  14
ENDBRANCH  12  13
ENDBRANCH   9  12
BRANCH   5  20
HETATM   20  C4  UNK     1       2.983   1.993  -2.386  1.00  0.00    -0.002 A 
HETATM   21  C11 UNK     1       3.084   2.321  -3.740  1.00  0.00     0.015 A 
HETATM   22  C15 UNK     1       4.288   2.800  -4.257  1.00  0.00     0.007 A 
HETATM   23  C14 UNK     1       5.394   2.952  -3.422  1.00  0.00    -0.062 A 
HETATM   24  C16 UNK     1       5.297   2.625  -2.070  1.00  0.00     0.007 A 
HETATM   25  C21 UNK     1       6.681   3.464  -3.975  1.00  0.00     0.048 C 
HETATM   26  C12 UNK     1       4.094   2.146  -1.552  1.00  0.00     0.015 A 
ENDBRANCH   5  20
TORSDOF 6
