REMARK  3 active torsions:
REMARK  status: ('A' for Active; 'I' for Inactive)
REMARK    1  A    between atoms: C11_17  and  O2_3 
REMARK    2  A    between atoms: C17_23  and  O2_3 
REMARK    3  A    between atoms: C2_8  and  C5_11 
ROOT
HETATM    1  O1  UNK     1       1.716   0.583   0.785  1.00  0.00    -0.274 OA
HETATM    2  O3  UNK     1       0.394  -0.080   2.518  1.00  0.00    -0.259 OA
HETATM    3  C1  UNK     1       0.919   0.398  -1.497  1.00  0.00    -0.001 A 
HETATM    4  C2  UNK     1      -0.547  -0.280   0.335  1.00  0.00     0.076 A 
HETATM    5  C3  UNK     1       1.919   0.742  -0.598  1.00  0.00     0.092 A 
HETATM    6  C4  UNK     1      -0.337  -0.121  -0.983  1.00  0.00     0.034 A 
HETATM    7  C8  UNK     1       1.153   0.566  -2.864  1.00  0.00     0.017 A 
HETATM    8  C9  UNK     1       0.530   0.073   1.308  1.00  0.00     0.301 A 
HETATM    9  C10 UNK     1       3.145   1.249  -1.022  1.00  0.00     0.075 A 
HETATM   10  C11 UNK     1       3.373   1.414  -2.386  1.00  0.00     0.081 A 
HETATM   11  C12 UNK     1       2.379   1.074  -3.306  1.00  0.00     0.038 A 
ENDROOT
BRANCH   4  12
HETATM   12  C5  UNK     1      -1.792  -0.790   0.851  1.00  0.00     0.115 A 
HETATM   13  S1  UNK     1      -3.036   0.330   1.223  1.00  0.00    -0.067 SA
HETATM   14  C6  UNK     1      -4.055  -0.969   1.722  1.00  0.00     0.035 A 
HETATM   15  C13 UNK     1      -5.369  -0.923   2.214  1.00  0.00     0.021 A 
HETATM   16  C7  UNK     1      -3.365  -2.175   1.567  1.00  0.00     0.075 A 
HETATM   17  C15 UNK     1      -5.990  -2.127   2.554  1.00  0.00     0.002 A 
HETATM   18  C16 UNK     1      -5.325  -3.340   2.409  1.00  0.00     0.002 A 
HETATM   19  C14 UNK     1      -4.017  -3.378   1.918  1.00  0.00     0.033 A 
HETATM   20  N1  UNK     1      -2.076  -2.058   1.069  1.00  0.00    -0.239 NA
ENDBRANCH   4  12
BRANCH  10  21
HETATM   21  O2  UNK     1       4.564   1.906  -2.824  1.00  0.00    -0.279 OA
BRANCH  21  22
HETATM   22  C17 UNK     1       4.597   3.305  -2.944  1.00  0.00     0.260 C 
HETATM   23  O4  UNK     1       3.672   4.067  -2.695  1.00  0.00    -0.265 OA
HETATM   24  C18 UNK     1       5.946   3.747  -3.431  1.00  0.00     0.126 C 
ENDBRANCH  21  22
ENDBRANCH  10  21
TORSDOF 3
