REMARK  4 active torsions:
REMARK  status: ('A' for Active; 'I' for Inactive)
REMARK    1  A    between atoms: C1_10  and  S1_1 
REMARK    2  A    between atoms: N2_9  and  S1_1 
REMARK       I    between atoms: C11_20  and  N1_8 
REMARK    3  A    between atoms: C2_11  and  N1_8 
REMARK       I    between atoms: C17_26  and  N2_9 
REMARK    4  A    between atoms: C11_20  and  C4_13 
ROOT
HETATM    1  O4  UNK     1       1.551   0.612   0.985  1.00  0.00    -0.267 OA
HETATM    2  N1  UNK     1       0.107   0.068  -0.794  1.00  0.00    -0.323 N 
HETATM    3  C11 UNK     1       1.222   0.643  -0.200  1.00  0.00     0.262 C 
HETATM    4  H6  UNK     1      -0.011   0.169  -1.799  1.00  0.00     0.169 HD
ENDROOT
BRANCH   2   5
HETATM    5  C2  UNK     1      -0.911  -0.690  -0.167  1.00  0.00     0.035 A 
HETATM    6  C7  UNK     1      -0.842  -0.919   1.197  1.00  0.00     0.031 A 
HETATM    7  C5  UNK     1      -1.845  -1.667   1.814  1.00  0.00     0.027 A 
HETATM    8  C1  UNK     1      -2.902  -2.174   1.059  1.00  0.00     0.080 A 
HETATM    9  C6  UNK     1      -2.957  -1.933  -0.314  1.00  0.00     0.027 A 
HETATM   10  C8  UNK     1      -1.954  -1.186  -0.932  1.00  0.00     0.031 A 
BRANCH   8  11
HETATM   11  S1  UNK     1      -4.157  -3.110   1.832  1.00  0.00     0.265 S 
HETATM   12  O2  UNK     1      -4.772  -3.984   0.842  1.00  0.00    -0.200 OA
HETATM   13  O3  UNK     1      -3.595  -3.683   3.047  1.00  0.00    -0.200 OA
BRANCH  11  14
HETATM   14  N2  UNK     1      -5.282  -1.892   2.268  1.00  0.00    -0.251 N 
HETATM   15  C17 UNK     1      -5.197  -1.083   3.445  1.00  0.00     0.227 C 
HETATM   16  O6  UNK     1      -4.277  -1.142   4.253  1.00  0.00    -0.273 OA
HETATM   17  C18 UNK     1      -6.355  -0.141   3.606  1.00  0.00     0.118 C 
HETATM   18  H8  UNK     1      -6.107  -1.788   1.663  1.00  0.00     0.181 HD
ENDBRANCH  11  14
ENDBRANCH   8  11
ENDBRANCH   2   5
BRANCH   3  19
HETATM   19  C4  UNK     1       2.061   1.357  -1.170  1.00  0.00     0.108 A 
HETATM   20  C10 UNK     1       3.371   1.400  -0.900  1.00  0.00     0.037 A 
HETATM   21  C3  UNK     1       4.283   2.085  -1.803  1.00  0.00    -0.001 A 
HETATM   22  C13 UNK     1       5.657   2.156  -1.561  1.00  0.00     0.014 A 
HETATM   23  C9  UNK     1       3.771   2.691  -2.946  1.00  0.00     0.089 A 
HETATM   24  C15 UNK     1       6.492   2.826  -2.460  1.00  0.00     0.001 A 
HETATM   25  C16 UNK     1       5.959   3.429  -3.602  1.00  0.00     0.003 A 
HETATM   26  C14 UNK     1       4.590   3.363  -3.851  1.00  0.00     0.038 A 
HETATM   27  O1  UNK     1       2.391   2.641  -3.225  1.00  0.00    -0.274 OA
HETATM   28  C12 UNK     1       1.494   1.993  -2.380  1.00  0.00     0.304 A 
HETATM   29  O5  UNK     1       0.294   1.956  -2.631  1.00  0.00    -0.259 OA
ENDBRANCH   3  19
TORSDOF 4
