REMARK  4 active torsions:
REMARK  status: ('A' for Active; 'I' for Inactive)
REMARK    1  A    between atoms: C1_7  and  O1_1 
REMARK    2  A    between atoms: C1_7  and  C3_9 
REMARK    3  A    between atoms: C3_9  and  C7_13 
REMARK    4  A    between atoms: C7_13  and  C9_15 
ROOT
HETATM    1  C3  UNK     1       0.331   1.151  -0.459  1.00  0.00     0.137 C 
ENDROOT
BRANCH   1   2
HETATM    2  C1  UNK     1       1.787   1.575  -0.586  1.00  0.00     0.174 A 
HETATM    3  C2  UNK     1       2.227   1.779  -2.008  1.00  0.00     0.013 A 
HETATM    4  C5  UNK     1       3.278   0.909  -2.296  1.00  0.00     0.044 A 
HETATM    5  C6  UNK     1       1.757   2.651  -2.974  1.00  0.00     0.013 A 
HETATM    6  N1  UNK     1       3.574   0.139  -1.176  1.00  0.00    -0.324 N 
HETATM    7  C8  UNK     1       3.893   0.867  -3.531  1.00  0.00     0.030 A 
HETATM    8  C4  UNK     1       2.740   0.463  -0.100  1.00  0.00     0.262 A 
HETATM    9  H3  UNK     1       4.307  -0.560  -1.154  1.00  0.00     0.169 HD
HETATM   10  O2  UNK     1       2.762  -0.020   1.022  1.00  0.00    -0.269 OA
HETATM   11  C11 UNK     1       3.422   1.743  -4.510  1.00  0.00     0.002 A 
HETATM   12  C10 UNK     1       2.363   2.627  -4.234  1.00  0.00     0.001 A 
BRANCH   2  13
HETATM   13  O1  UNK     1       2.040   2.743   0.170  1.00  0.00    -0.375 OA
HETATM   14  H6  UNK     1       1.907   2.543   1.111  1.00  0.00     0.211 HD
ENDBRANCH   2  13
ENDBRANCH   1   2
BRANCH   1  15
HETATM   15  C7  UNK     1      -0.088   0.965   0.984  1.00  0.00     0.169 C 
HETATM   16  O3  UNK     1       0.405   1.580   1.925  1.00  0.00    -0.292 OA
BRANCH  15  17
HETATM   17  C9  UNK     1      -1.155  -0.026   1.232  1.00  0.00     0.086 A 
HETATM   18  C12 UNK     1      -2.046  -0.194   0.248  1.00  0.00     0.035 A 
HETATM   19  C13 UNK     1      -3.134  -1.147   0.399  1.00  0.00    -0.001 A 
HETATM   20  C15 UNK     1      -3.230  -1.878   1.579  1.00  0.00     0.089 A 
HETATM   21  C16 UNK     1      -4.087  -1.355  -0.602  1.00  0.00     0.014 A 
HETATM   22  O4  UNK     1      -2.289  -1.697   2.611  1.00  0.00    -0.274 OA
HETATM   23  C17 UNK     1      -4.249  -2.806   1.786  1.00  0.00     0.038 A 
HETATM   24  C14 UNK     1      -1.238  -0.792   2.496  1.00  0.00     0.302 A 
HETATM   25  O5  UNK     1      -0.423  -0.640   3.400  1.00  0.00    -0.259 OA
HETATM   26  C19 UNK     1      -5.194  -3.007   0.784  1.00  0.00     0.003 A 
HETATM   27  C18 UNK     1      -5.114  -2.283  -0.408  1.00  0.00     0.001 A 
ENDBRANCH  15  17
ENDBRANCH   1  15
TORSDOF 4
