REMARK  3 active torsions:
REMARK  status: ('A' for Active; 'I' for Inactive)
REMARK    1  A    between atoms: C5_8  and  N1_2 
REMARK    2  A    between atoms: C10_13  and  C11_14 
REMARK    3  A    between atoms: C12_15  and  C13_16 
ROOT
HETATM    1  N2  UNK     1       4.961   2.461   0.194  1.00  0.00    -0.191 NA
HETATM    2  C11 UNK     1       2.015   0.938   1.084  1.00  0.00     0.034 C 
HETATM    3  C12 UNK     1       2.619   1.376  -0.030  1.00  0.00     0.055 C 
HETATM    4  C19 UNK     1       3.912   1.975   0.095  1.00  0.00     0.100 C 
ENDROOT
BRANCH   3   5
HETATM    5  C13 UNK     1       2.039   1.259  -1.384  1.00  0.00    -0.015 A 
HETATM    6  C15 UNK     1       1.259   2.292  -1.874  1.00  0.00     0.016 A 
HETATM    7  C17 UNK     1       0.711   2.182  -3.152  1.00  0.00     0.043 A 
HETATM    8  C18 UNK     1       0.952   1.042  -3.919  1.00  0.00     0.116 A 
HETATM    9  C16 UNK     1       1.741   0.011  -3.408  1.00  0.00     0.043 A 
HETATM   10  F1  UNK     1       0.427   0.938  -5.147  1.00  0.00    -0.206 F 
HETATM   11  C14 UNK     1       2.288   0.121  -2.129  1.00  0.00     0.016 A 
ENDBRANCH   3   5
BRANCH   2  12
HETATM   12  C10 UNK     1       0.703   0.319   1.197  1.00  0.00    -0.035 A 
HETATM   13  C8  UNK     1      -0.422   1.108   1.436  1.00  0.00     0.013 A 
HETATM   14  C6  UNK     1      -1.679   0.515   1.545  1.00  0.00     0.030 A 
HETATM   15  C5  UNK     1      -1.862  -0.891   1.419  1.00  0.00     0.030 A 
HETATM   16  C7  UNK     1      -0.687  -1.656   1.175  1.00  0.00     0.030 A 
HETATM   17  C9  UNK     1       0.571  -1.063   1.066  1.00  0.00     0.013 A 
BRANCH  15  18
HETATM   18  N1  UNK     1      -3.105  -1.478   1.525  1.00  0.00    -0.381 N 
HETATM   19  C3  UNK     1      -4.341  -0.741   1.774  1.00  0.00     0.123 C 
HETATM   20  C1  UNK     1      -5.439  -1.767   1.502  1.00  0.00     0.021 C 
HETATM   21  C2  UNK     1      -4.785  -3.082   1.891  1.00  0.00     0.021 C 
HETATM   22  C4  UNK     1      -3.348  -2.913   1.402  1.00  0.00     0.123 C 
ENDBRANCH  15  18
ENDBRANCH   2  12
TORSDOF 3
