REMARK  1 active torsions:
REMARK  status: ('A' for Active; 'I' for Inactive)
REMARK       I    between atoms: C8_12  and  N1_4 
REMARK    1  A    between atoms: C11_15  and  C8_12 
ROOT
HETATM    1  O1  UNK     1      -0.883   0.857  -2.112  1.00  0.00    -0.267 OA
HETATM    2  N1  UNK     1       0.876   0.589  -0.567  1.00  0.00    -0.313 N 
HETATM    3  C1  UNK     1       2.282   1.067   1.432  1.00  0.00     0.025 C 
HETATM    4  C2  UNK     1       3.543   1.084   0.592  1.00  0.00     0.042 C 
HETATM    5  C3  UNK     1       1.257   0.148   0.790  1.00  0.00     0.133 C 
HETATM    6  C4  UNK     1       3.225   1.347  -0.856  1.00  0.00    -0.031 A 
HETATM    7  C5  UNK     1       1.944   1.101  -1.403  1.00  0.00     0.043 A 
HETATM    8  C6  UNK     1       4.269   1.816  -1.675  1.00  0.00     0.016 A 
HETATM    9  C7  UNK     1       1.770   1.329  -2.780  1.00  0.00     0.031 A 
HETATM   10  C8  UNK     1      -0.456   0.520  -1.009  1.00  0.00     0.264 C 
HETATM   11  C9  UNK     1       4.062   2.052  -3.028  1.00  0.00    -0.061 A 
HETATM   12  C10 UNK     1       2.814   1.805  -3.581  1.00  0.00     0.009 A 
HETATM   13  C12 UNK     1       5.176   2.553  -3.883  1.00  0.00     0.048 C 
ENDROOT
BRANCH  10  14
HETATM   14  C11 UNK     1      -1.444  -0.008  -0.040  1.00  0.00     0.108 A 
HETATM   15  C13 UNK     1      -1.645  -1.331  -0.062  1.00  0.00     0.037 A 
HETATM   16  C14 UNK     1      -2.597  -1.943   0.852  1.00  0.00    -0.001 A 
HETATM   17  C16 UNK     1      -3.291  -1.132   1.744  1.00  0.00     0.089 A 
HETATM   18  C17 UNK     1      -2.838  -3.319   0.865  1.00  0.00     0.014 A 
HETATM   19  O2  UNK     1      -3.075   0.260   1.762  1.00  0.00    -0.274 OA
HETATM   20  C18 UNK     1      -4.216  -1.655   2.645  1.00  0.00     0.038 A 
HETATM   21  C15 UNK     1      -2.171   0.875   0.900  1.00  0.00     0.304 A 
HETATM   22  O3  UNK     1      -1.990   2.087   0.922  1.00  0.00    -0.259 OA
HETATM   23  C20 UNK     1      -4.451  -3.028   2.651  1.00  0.00     0.003 A 
HETATM   24  C19 UNK     1      -3.763  -3.859   1.763  1.00  0.00     0.001 A 
ENDBRANCH  10  14
TORSDOF 1
