REMARK  1 active torsions:
REMARK  status: ('A' for Active; 'I' for Inactive)
REMARK    1  A    between atoms: C5_7  and  C8_10 
ROOT
HETATM    1  O1  UNK     1       0.207  -0.462  -3.004  1.00  0.00    -0.285 OA
HETATM    2  N1  UNK     1       0.271   0.938   0.198  1.00  0.00    -0.352 N 
HETATM    3  C1  UNK     1       1.469   1.154  -1.750  1.00  0.00     0.043 A 
HETATM    4  C2  UNK     1       1.327   1.590  -0.425  1.00  0.00     0.047 A 
HETATM    5  C3  UNK     1      -0.324   0.058  -0.670  1.00  0.00     0.085 A 
HETATM    6  C4  UNK     1       0.416   0.148  -1.978  1.00  0.00     0.210 A 
HETATM    7  C5  UNK     1      -1.359  -0.766  -0.504  1.00  0.00     0.045 C 
HETATM    8  C6  UNK     1       2.439   1.634  -2.604  1.00  0.00     0.018 A 
HETATM    9  C7  UNK     1       2.183   2.544   0.084  1.00  0.00     0.030 A 
HETATM   10  C9  UNK     1       3.305   2.600  -2.090  1.00  0.00     0.001 A 
HETATM   11  C10 UNK     1       3.179   3.050  -0.760  1.00  0.00     0.002 A 
HETATM   12  H1  UNK     1      -0.029   1.078   1.148  1.00  0.00     0.166 HD
ENDROOT
BRANCH   7  13
HETATM   13  C8  UNK     1      -2.146  -0.927   0.734  1.00  0.00    -0.034 A 
HETATM   14  C11 UNK     1      -1.768  -1.886   1.657  1.00  0.00     0.011 A 
HETATM   15  C13 UNK     1      -2.512  -2.038   2.827  1.00  0.00     0.001 A 
HETATM   16  C15 UNK     1      -3.624  -1.228   3.056  1.00  0.00     0.000 A 
HETATM   17  C14 UNK     1      -3.992  -0.266   2.115  1.00  0.00     0.001 A 
HETATM   18  C12 UNK     1      -3.248  -0.114   0.945  1.00  0.00     0.011 A 
ENDBRANCH   7  13
TORSDOF 1
