REMARK  4 active torsions:
REMARK  status: ('A' for Active; 'I' for Inactive)
REMARK    1  A    between atoms: C10_15  and  O3_3 
REMARK    2  A    between atoms: C5_10  and  N1_5 
REMARK       I    between atoms: C6_11  and  N1_5 
REMARK    3  A    between atoms: C2_7  and  C6_11 
REMARK    4  A    between atoms: C10_15  and  C5_10 
ROOT
HETATM    1  O1  UNK     1       0.096   0.430  -2.096  1.00  0.00    -0.274 OA
HETATM    2  O4  UNK     1      -1.828  -0.547  -1.346  1.00  0.00    -0.259 OA
HETATM    3  C1  UNK     1       1.827   1.049  -0.506  1.00  0.00    -0.001 A 
HETATM    4  C2  UNK     1      -0.212   0.013   0.294  1.00  0.00     0.108 A 
HETATM    5  C3  UNK     1       1.360   0.983  -1.815  1.00  0.00     0.089 A 
HETATM    6  C4  UNK     1       0.989   0.537   0.567  1.00  0.00     0.037 A 
HETATM    7  C7  UNK     1       3.087   1.604  -0.266  1.00  0.00     0.014 A 
HETATM    8  C8  UNK     1      -0.729  -0.068  -1.091  1.00  0.00     0.304 A 
HETATM    9  C9  UNK     1       2.114   1.456  -2.887  1.00  0.00     0.038 A 
HETATM   10  C11 UNK     1       3.854   2.083  -1.332  1.00  0.00     0.001 A 
HETATM   11  C12 UNK     1       3.368   2.009  -2.640  1.00  0.00     0.003 A 
ENDROOT
BRANCH   4  12
HETATM   12  C6  UNK     1      -0.983  -0.476   1.443  1.00  0.00     0.257 C 
HETATM   13  O2  UNK     1      -0.417  -0.915   2.442  1.00  0.00    -0.267 OA
HETATM   14  N1  UNK     1      -2.350  -0.381   1.252  1.00  0.00    -0.355 N 
HETATM   15  H5  UNK     1      -2.720   0.016   0.395  1.00  0.00     0.162 HD
BRANCH  14  16
HETATM   16  C5  UNK     1      -3.314  -0.803   2.243  1.00  0.00     0.148 C 
BRANCH  16  17
HETATM   17  C10 UNK     1      -3.698  -2.260   2.063  1.00  0.00     0.183 C 
BRANCH  17  18
HETATM   18  O3  UNK     1      -4.300  -2.436   0.787  1.00  0.00    -0.399 OA
HETATM   19  H11 UNK     1      -4.535  -3.377   0.710  1.00  0.00     0.209 HD
ENDBRANCH  17  18
ENDBRANCH  16  17
ENDBRANCH  14  16
ENDBRANCH   4  12
TORSDOF 4
