REMARK  7 active torsions:
REMARK  status: ('A' for Active; 'I' for Inactive)
REMARK    1  A    between atoms: C12_19  and  O1_1 
REMARK    2  A    between atoms: C2_9  and  O1_1 
REMARK    3  A    between atoms: C15_22  and  N1_6 
REMARK    4  A    between atoms: C1_8  and  C3_10 
REMARK    5  A    between atoms: C12_19  and  C5_12 
REMARK    6  A    between atoms: C11_18  and  C7_14 
REMARK    7  A    between atoms: C11_18  and  C8_15 
ROOT
HETATM    1  N2  UNK     1      -3.615   0.679   1.089  1.00  0.00    -0.191 NA
HETATM    2  C3  UNK     1      -1.576  -1.512  -0.733  1.00  0.00     0.041 C 
HETATM    3  C7  UNK     1      -1.872  -1.149   0.529  1.00  0.00     0.096 C 
HETATM    4  C23 UNK     1      -2.835  -0.143   0.837  1.00  0.00     0.103 C 
ENDROOT
BRANCH   3   5
HETATM    5  C11 UNK     1      -1.089  -1.814   1.637  1.00  0.00     0.202 C 
HETATM    6  O2  UNK     1      -0.235  -2.676   1.384  1.00  0.00    -0.286 OA
BRANCH   5   7
HETATM    7  C8  UNK     1      -1.326  -1.419   3.016  1.00  0.00     0.015 A 
HETATM    8  C18 UNK     1      -2.295  -2.077   3.773  1.00  0.00     0.015 A 
HETATM    9  C20 UNK     1      -2.523  -1.697   5.096  1.00  0.00     0.001 A 
HETATM   10  C22 UNK     1      -1.781  -0.660   5.662  1.00  0.00     0.000 A 
HETATM   11  C21 UNK     1      -0.812  -0.002   4.904  1.00  0.00     0.001 A 
HETATM   12  C19 UNK     1      -0.585  -0.382   3.581  1.00  0.00     0.015 A 
ENDBRANCH   5   7
ENDBRANCH   3   5
BRANCH   2  13
HETATM   13  C1  UNK     1      -2.178  -0.947  -1.950  1.00  0.00    -0.001 A 
HETATM   14  C2  UNK     1      -1.617   0.164  -2.565  1.00  0.00     0.089 A 
HETATM   15  C6  UNK     1      -2.206   0.681  -3.718  1.00  0.00     0.038 A 
HETATM   16  C10 UNK     1      -3.350   0.083  -4.246  1.00  0.00     0.003 A 
HETATM   17  C9  UNK     1      -3.905  -1.033  -3.620  1.00  0.00     0.001 A 
HETATM   18  C4  UNK     1      -3.316  -1.550  -2.466  1.00  0.00     0.014 A 
BRANCH  14  19
HETATM   19  O1  UNK     1      -0.499   0.768  -2.070  1.00  0.00    -0.274 OA
BRANCH  19  20
HETATM   20  C12 UNK     1       0.699   0.259  -2.576  1.00  0.00     0.298 C 
HETATM   21  O3  UNK     1       0.803  -0.654  -3.381  1.00  0.00    -0.259 OA
BRANCH  20  22
HETATM   22  C5  UNK     1       1.867   0.965  -1.992  1.00  0.00     0.040 A 
HETATM   23  C13 UNK     1       3.022   1.071  -2.738  1.00  0.00     0.020 A 
HETATM   24  C16 UNK     1       4.121   1.733  -2.189  1.00  0.00     0.037 A 
HETATM   25  C15 UNK     1       4.040   2.274  -0.906  1.00  0.00     0.102 A 
HETATM   26  C17 UNK     1       2.861   2.152  -0.171  1.00  0.00     0.037 A 
HETATM   27  C14 UNK     1       1.762   1.490  -0.720  1.00  0.00     0.020 A 
BRANCH  25  28
HETATM   28  N1  UNK     1       5.159   2.946  -0.347  1.00  0.00    -0.116 N 
HETATM   29  O4  UNK     1       6.211   3.042  -1.024  1.00  0.00    -0.532 OA
HETATM   30  O5  UNK     1       5.065   3.425   0.809  1.00  0.00    -0.532 OA
ENDBRANCH  25  28
ENDBRANCH  20  22
ENDBRANCH  19  20
ENDBRANCH  14  19
ENDBRANCH   2  13
TORSDOF 7
