REMARK  6 active torsions:
REMARK  status: ('A' for Active; 'I' for Inactive)
REMARK    1  A    between atoms: C1_8  and  O1_2 
REMARK    2  A    between atoms: C6_13  and  N1_7 
REMARK    3  A    between atoms: C1_8  and  C5_12 
REMARK    4  A    between atoms: C5_12  and  C9_16 
REMARK    5  A    between atoms: C10_17  and  C6_13 
REMARK    6  A    between atoms: C13_20  and  C9_16 
ROOT
HETATM    1  O2  UNK     1       0.088   2.702   0.317  1.00  0.00    -0.269 OA
HETATM    2  N1  UNK     1       2.041   2.051  -0.838  1.00  0.00    -0.310 N 
HETATM    3  C1  UNK     1       1.704   1.151   1.327  1.00  0.00     0.175 A 
HETATM    4  C2  UNK     1       2.989   0.671   0.713  1.00  0.00     0.013 A 
HETATM    5  C3  UNK     1       3.140   1.228  -0.558  1.00  0.00     0.047 A 
HETATM    6  C4  UNK     1       1.132   2.072   0.230  1.00  0.00     0.264 A 
HETATM    7  C7  UNK     1       3.949  -0.182   1.231  1.00  0.00     0.013 A 
HETATM    8  C8  UNK     1       4.242   0.952  -1.349  1.00  0.00     0.030 A 
HETATM    9  C11 UNK     1       5.068  -0.472   0.446  1.00  0.00     0.001 A 
HETATM   10  C12 UNK     1       5.213   0.091  -0.833  1.00  0.00     0.002 A 
ENDROOT
BRANCH   3  11
HETATM   11  O1  UNK     1       1.980   1.936   2.470  1.00  0.00    -0.375 OA
HETATM   12  H7  UNK     1       1.158   2.361   2.764  1.00  0.00     0.211 HD
ENDBRANCH   3  11
BRANCH   3  13
HETATM   13  C5  UNK     1       0.736   0.025   1.661  1.00  0.00     0.137 C 
BRANCH  13  14
HETATM   14  C9  UNK     1      -0.554   0.539   2.266  1.00  0.00     0.169 C 
HETATM   15  O3  UNK     1      -0.631   1.553   2.953  1.00  0.00    -0.292 OA
BRANCH  14  16
HETATM   16  C13 UNK     1      -1.767  -0.257   1.991  1.00  0.00     0.086 A 
HETATM   17  C16 UNK     1      -1.584  -1.571   1.816  1.00  0.00     0.035 A 
HETATM   18  C18 UNK     1      -2.719  -2.438   1.540  1.00  0.00    -0.001 A 
HETATM   19  C21 UNK     1      -3.991  -1.879   1.462  1.00  0.00     0.089 A 
HETATM   20  C23 UNK     1      -2.576  -3.815   1.351  1.00  0.00     0.014 A 
HETATM   21  C24 UNK     1      -5.119  -2.654   1.200  1.00  0.00     0.038 A 
HETATM   22  O4  UNK     1      -4.176  -0.495   1.647  1.00  0.00    -0.274 OA
HETATM   23  C26 UNK     1      -4.967  -4.026   1.012  1.00  0.00     0.003 A 
HETATM   24  C25 UNK     1      -3.699  -4.606   1.088  1.00  0.00     0.001 A 
HETATM   25  C17 UNK     1      -3.110   0.360   1.913  1.00  0.00     0.302 A 
HETATM   26  O5  UNK     1      -3.280   1.564   2.072  1.00  0.00    -0.259 OA
ENDBRANCH  14  16
ENDBRANCH  13  14
ENDBRANCH   3  13
BRANCH   2  27
HETATM   27  C6  UNK     1       1.893   2.783  -2.074  1.00  0.00     0.170 C 
BRANCH  27  28
HETATM   28  C10 UNK     1       1.156   1.988  -3.112  1.00  0.00    -0.040 A 
HETATM   29  C15 UNK     1      -0.229   2.079  -3.193  1.00  0.00     0.010 A 
HETATM   30  C20 UNK     1      -0.914   1.342  -4.159  1.00  0.00     0.024 A 
HETATM   31  C22 UNK     1      -0.209   0.518  -5.036  1.00  0.00     0.034 A 
HETATM   32  C19 UNK     1       1.180   0.431  -4.949  1.00  0.00     0.024 A 
HETATM   33 Cl1  UNK     1      -1.055  -0.392  -6.228  1.00  0.00    -0.084 Cl
HETATM   34  C14 UNK     1       1.865   1.169  -3.983  1.00  0.00     0.010 A 
ENDBRANCH  27  28
ENDBRANCH   2  27
TORSDOF 6
