REMARK  3 active torsions:
REMARK  status: ('A' for Active; 'I' for Inactive)
REMARK    1  A    between atoms: C12_16  and  O2_2 
REMARK    2  A    between atoms: C11_15  and  O4_4 
REMARK    3  A    between atoms: C2_6  and  C4_8 
ROOT
HETATM    1  O1  UNK     1       0.303  -1.292   1.491  1.00  0.00    -0.309 OA
HETATM    2  O3  UNK     1       0.925  -3.435  -1.917  1.00  0.00    -0.287 OA
HETATM    3  C1  UNK     1       0.895  -3.403   0.445  1.00  0.00     0.051 A 
HETATM    4  C2  UNK     1       0.166  -0.719   0.236  1.00  0.00     0.090 A 
HETATM    5  C3  UNK     1       0.666  -2.612   1.570  1.00  0.00     0.090 A 
HETATM    6  C5  UNK     1       0.743  -2.800  -0.888  1.00  0.00     0.187 A 
HETATM    7  C6  UNK     1       0.353  -1.376  -0.920  1.00  0.00     0.093 A 
HETATM    8  C7  UNK     1       1.262  -4.743   0.586  1.00  0.00     0.054 A 
HETATM    9  C8  UNK     1       0.802  -3.160   2.847  1.00  0.00     0.041 A 
HETATM   10  C11 UNK     1       1.397  -5.288   1.864  1.00  0.00     0.066 A 
HETATM   11  C13 UNK     1       1.168  -4.498   2.991  1.00  0.00     0.039 A 
ENDROOT
BRANCH   4  12
HETATM   12  C4  UNK     1      -0.234   0.703   0.265  1.00  0.00     0.001 A 
HETATM   13  C10 UNK     1      -1.009   1.235  -0.768  1.00  0.00     0.014 A 
HETATM   14  C14 UNK     1      -1.387   2.577  -0.740  1.00  0.00     0.004 A 
HETATM   15  C15 UNK     1      -0.991   3.392   0.321  1.00  0.00     0.037 A 
HETATM   16  C12 UNK     1      -0.216   2.864   1.354  1.00  0.00     0.069 A 
HETATM   17  C9  UNK     1       0.162   1.521   1.326  1.00  0.00     0.051 A 
BRANCH  16  18
HETATM   18  O2  UNK     1       0.171   3.659   2.389  1.00  0.00    -0.356 OA
HETATM   19  C16 UNK     1      -0.251   5.021   2.354  1.00  0.00     0.210 C 
ENDBRANCH  16  18
ENDBRANCH   4  12
BRANCH  10  20
HETATM   20  O4  UNK     1       1.753  -6.593   2.011  1.00  0.00    -0.361 OA
HETATM   21  H9  UNK     1       1.872  -6.990   1.131  1.00  0.00     0.217 HD
ENDBRANCH  10  20
TORSDOF 3
