REMARK  3 active torsions:
REMARK  status: ('A' for Active; 'I' for Inactive)
REMARK       I    between atoms: C11_17  and  N2_6 
REMARK    1  A    between atoms: C19_25  and  N2_6 
REMARK    2  A    between atoms: C1_7  and  C10_16 
REMARK    3  A    between atoms: C11_17  and  C6_12 
ROOT
HETATM    1  O1  UNK     1      -3.845   0.813   1.118  1.00  0.00    -0.293 OA
HETATM    2  N1  UNK     1      -0.303  -1.944   2.641  1.00  0.00    -0.362 N 
HETATM    3  C1  UNK     1      -0.989   0.422   1.232  1.00  0.00     0.104 C 
HETATM    4  C2  UNK     1      -2.021  -0.543   1.808  1.00  0.00     0.024 C 
HETATM    5  C3  UNK     1      -1.643  -1.665   2.457  1.00  0.00     0.020 C 
HETATM    6  C4  UNK     1      -2.620  -2.646   3.052  1.00  0.00     0.058 C 
HETATM    7  C5  UNK     1      -3.982  -2.019   3.320  1.00  0.00     0.014 C 
HETATM    8  C6  UNK     1       0.442   0.066   1.638  1.00  0.00     0.045 C 
HETATM    9  C7  UNK     1      -4.484  -1.268   2.100  1.00  0.00     0.084 C 
HETATM   10  C8  UNK     1      -3.477  -0.234   1.649  1.00  0.00     0.158 C 
HETATM   11  C9  UNK     1       0.727  -1.087   2.285  1.00  0.00     0.018 C 
HETATM   12  C13 UNK     1       2.103  -1.549   2.681  1.00  0.00     0.069 C 
HETATM   13  H8  UNK     1      -0.059  -2.797   3.132  1.00  0.00     0.165 HD
ENDROOT
BRANCH   3  14
HETATM   14  C10 UNK     1      -1.100   0.479  -0.268  1.00  0.00     0.029 A 
HETATM   15  C12 UNK     1      -0.847  -0.760  -1.046  1.00  0.00     0.194 A 
HETATM   16  O4  UNK     1      -0.553  -1.818  -0.506  1.00  0.00    -0.287 OA
HETATM   17  C15 UNK     1      -0.968  -0.649  -2.511  1.00  0.00     0.048 A 
HETATM   18  C16 UNK     1      -1.306   0.583  -3.072  1.00  0.00     0.089 A 
HETATM   19  C17 UNK     1      -0.748  -1.759  -3.331  1.00  0.00     0.018 A 
HETATM   20  O2  UNK     1      -1.532   1.705  -2.315  1.00  0.00    -0.321 OA
HETATM   21  C18 UNK     1      -1.426   0.712  -4.456  1.00  0.00     0.038 A 
HETATM   22  C14 UNK     1      -1.415   1.587  -0.952  1.00  0.00     0.154 A 
HETATM   23  C21 UNK     1      -1.207  -0.395  -5.276  1.00  0.00     0.003 A 
HETATM   24  C20 UNK     1      -0.870  -1.627  -4.715  1.00  0.00     0.001 A 
ENDBRANCH   3  14
BRANCH   8  25
HETATM   25  C11 UNK     1       1.481   1.065   1.338  1.00  0.00     0.255 C 
HETATM   26  O3  UNK     1       1.718   1.955   2.150  1.00  0.00    -0.268 OA
HETATM   27  N2  UNK     1       2.076   0.842   0.106  1.00  0.00    -0.323 N 
HETATM   28  H13 UNK     1       1.757   0.041  -0.436  1.00  0.00     0.169 HD
BRANCH  27  29
HETATM   29  C19 UNK     1       3.107   1.599  -0.502  1.00  0.00     0.035 A 
HETATM   30  C22 UNK     1       3.579   1.222  -1.748  1.00  0.00     0.029 A 
HETATM   31  C24 UNK     1       4.594   1.968  -2.347  1.00  0.00     0.002 A 
HETATM   32  C26 UNK     1       5.120   3.081  -1.692  1.00  0.00     0.000 A 
HETATM   33  C25 UNK     1       4.633   3.448  -0.437  1.00  0.00     0.002 A 
HETATM   34  C23 UNK     1       3.618   2.701   0.162  1.00  0.00     0.029 A 
ENDBRANCH  27  29
ENDBRANCH   8  25
TORSDOF 3
