REMARK  4 active torsions:
REMARK  status: ('A' for Active; 'I' for Inactive)
REMARK    1  A    between atoms: C4_9  and  O1_1 
REMARK    2  A    between atoms: C7_12  and  O1_1 
REMARK    3  A    between atoms: C13_18  and  O4_4 
REMARK    4  A    between atoms: C13_18  and  C7_12 
ROOT
HETATM    1  O2  UNK     1      -2.110  -0.782  -0.848  1.00  0.00    -0.275 OA
HETATM    2  O3  UNK     1      -4.269  -1.513  -1.035  1.00  0.00    -0.260 OA
HETATM    3  C1  UNK     1      -1.104  -0.584   1.368  1.00  0.00     0.004 A 
HETATM    4  C2  UNK     1      -1.017  -0.461  -0.019  1.00  0.00     0.092 A 
HETATM    5  C3  UNK     1      -2.365  -1.056   1.956  1.00  0.00    -0.043 A 
HETATM    6  C4  UNK     1       1.256   0.311   0.108  1.00  0.00     0.072 A 
HETATM    7  C5  UNK     1       0.143  -0.020  -0.658  1.00  0.00     0.075 A 
HETATM    8  C6  UNK     1       0.028  -0.245   2.122  1.00  0.00     0.017 A 
HETATM    9  C8  UNK     1       1.199   0.198   1.496  1.00  0.00     0.038 A 
HETATM   10  C9  UNK     1      -3.388  -1.355   1.143  1.00  0.00     0.090 A 
HETATM   11  C10 UNK     1      -2.490  -1.197   3.445  1.00  0.00     0.049 C 
HETATM   12  C11 UNK     1      -3.312  -1.232  -0.323  1.00  0.00     0.288 A 
ENDROOT
BRANCH   6  13
HETATM   13  O1  UNK     1       2.397   0.742  -0.495  1.00  0.00    -0.336 OA
BRANCH  13  14
HETATM   14  C7  UNK     1       2.308   1.930  -1.281  1.00  0.00     0.222 C 
HETATM   15  C12 UNK     1       3.264   2.953  -0.694  1.00  0.00     0.051 C 
BRANCH  14  16
HETATM   16  C13 UNK     1       2.677   1.588  -2.709  1.00  0.00     0.170 C 
HETATM   17  O5  UNK     1       3.032   0.481  -3.092  1.00  0.00    -0.648 OA
BRANCH  16  18
HETATM   18  O4  UNK     1       2.550   2.653  -3.542  1.00  0.00    -0.774 OA
HETATM   19  H12 UNK     1       2.782   2.423  -4.467  1.00  0.00     0.167 HD
ENDBRANCH  16  18
ENDBRANCH  14  16
ENDBRANCH  13  14
ENDBRANCH   6  13
TORSDOF 4
