REMARK  0 active torsions:
REMARK  status: ('A' for Active; 'I' for Inactive)
ROOT
HETATM    1 Cl1  UNK     1      -2.176  -1.240   3.243  1.00  0.00    -0.084 Cl
HETATM    2  O1  UNK     1      -0.420   0.201  -2.188  1.00  0.00    -0.320 OA
HETATM    3  O2  UNK     1       2.080   1.005   0.937  1.00  0.00    -0.286 OA
HETATM    4  N1  UNK     1       3.945   2.218  -1.964  1.00  0.00    -0.191 NA
HETATM    5  C1  UNK     1       0.016   0.130   0.201  1.00  0.00     0.051 A 
HETATM    6  C2  UNK     1      -0.794  -0.121  -0.907  1.00  0.00     0.089 A 
HETATM    7  C3  UNK     1      -2.475  -1.072   0.540  1.00  0.00    -0.038 A 
HETATM    8  C4  UNK     1      -2.041  -0.723  -0.739  1.00  0.00     0.046 A 
HETATM    9  C5  UNK     1      -0.416  -0.220   1.482  1.00  0.00     0.042 A 
HETATM   10  C6  UNK     1      -1.665  -0.821   1.648  1.00  0.00     0.041 A 
HETATM   11  C7  UNK     1       1.332   0.766  -0.002  1.00  0.00     0.207 A 
HETATM   12  C8  UNK     1      -3.818  -1.714   0.681  1.00  0.00     0.050 C 
HETATM   13  C9  UNK     1       1.691   1.095  -1.403  1.00  0.00     0.117 A 
HETATM   14  C10 UNK     1       0.808   0.793  -2.362  1.00  0.00     0.169 A 
HETATM   15  C11 UNK     1       2.931   1.713  -1.712  1.00  0.00     0.105 C 
ENDROOT
TORSDOF 0
