REMARK  4 active torsions:
REMARK  status: ('A' for Active; 'I' for Inactive)
REMARK    1  A    between atoms: C5_10  and  O2_2 
REMARK    2  A    between atoms: C10_15  and  O4_4 
REMARK    3  A    between atoms: C13_18  and  O5_5 
REMARK    4  A    between atoms: C2_7  and  C4_9 
ROOT
HETATM    1  O1  UNK     1      -0.205   0.535   0.718  1.00  0.00    -0.306 OA
HETATM    2  O3  UNK     1      -2.341  -1.895  -1.760  1.00  0.00    -0.284 OA
HETATM    3  C1  UNK     1      -2.104  -0.940   0.384  1.00  0.00     0.051 A 
HETATM    4  C2  UNK     1       0.169   0.339  -0.602  1.00  0.00     0.123 A 
HETATM    5  C3  UNK     1      -1.329  -0.100   1.180  1.00  0.00     0.093 A 
HETATM    6  C5  UNK     1      -0.485  -0.453  -1.471  1.00  0.00     0.152 A 
HETATM    7  C6  UNK     1      -1.704  -1.163  -1.014  1.00  0.00     0.220 A 
HETATM    8  C7  UNK     1      -3.240  -1.561   0.910  1.00  0.00     0.021 A 
HETATM    9  C8  UNK     1      -1.686   0.126   2.510  1.00  0.00     0.074 A 
HETATM   10  C10 UNK     1      -2.820  -0.492   3.038  1.00  0.00     0.068 A 
HETATM   11  C12 UNK     1      -3.595  -1.334   2.240  1.00  0.00     0.037 A 
ENDROOT
BRANCH   4  12
HETATM   12  C4  UNK     1       1.391   1.076  -0.969  1.00  0.00     0.003 A 
HETATM   13  C11 UNK     1       2.642   0.484  -0.791  1.00  0.00     0.014 A 
HETATM   14  C14 UNK     1       3.800   1.181  -1.138  1.00  0.00     0.004 A 
HETATM   15  C15 UNK     1       3.707   2.470  -1.663  1.00  0.00     0.036 A 
HETATM   16  C13 UNK     1       2.457   3.062  -1.841  1.00  0.00     0.066 A 
HETATM   17  C9  UNK     1       1.299   2.365  -1.494  1.00  0.00     0.051 A 
BRANCH  16  18
HETATM   18  O5  UNK     1       2.367   4.319  -2.355  1.00  0.00    -0.361 OA
HETATM   19  H10 UNK     1       3.263   4.649  -2.538  1.00  0.00     0.217 HD
ENDBRANCH  16  18
ENDBRANCH   4  12
BRANCH   6  20
HETATM   20  O2  UNK     1      -0.068  -0.652  -2.769  1.00  0.00    -0.355 OA
HETATM   21  H8  UNK     1       0.737  -0.137  -2.939  1.00  0.00     0.218 HD
ENDBRANCH   6  20
BRANCH  10  22
HETATM   22  O4  UNK     1      -3.170  -0.273   4.336  1.00  0.00    -0.361 OA
HETATM   23  H9  UNK     1      -3.978  -0.778   4.533  1.00  0.00     0.217 HD
ENDBRANCH  10  22
TORSDOF 4
