REMARK  2 active torsions:
REMARK  status: ('A' for Active; 'I' for Inactive)
REMARK    1  A    between atoms: C11_14  and  O2_2 
REMARK    2  A    between atoms: C2_5  and  C4_7 
ROOT
HETATM    1  O1  UNK     1       0.664   0.770  -2.734  1.00  0.00    -0.275 OA
HETATM    2  O3  UNK     1      -1.121   0.080  -3.984  1.00  0.00    -0.260 OA
HETATM    3  C1  UNK     1       0.608   0.465  -0.315  1.00  0.00     0.009 A 
HETATM    4  C2  UNK     1      -0.726  -0.143  -0.434  1.00  0.00    -0.007 A 
HETATM    5  C3  UNK     1       1.261   0.903  -1.466  1.00  0.00     0.093 A 
HETATM    6  C5  UNK     1       1.262   0.627   0.914  1.00  0.00     0.018 A 
HETATM    7  C6  UNK     1      -1.268  -0.255  -1.658  1.00  0.00     0.095 A 
HETATM    8  C7  UNK     1       2.526   1.489  -1.423  1.00  0.00     0.074 A 
HETATM    9  C8  UNK     1       2.531   1.214   0.972  1.00  0.00     0.037 A 
HETATM   10  C11 UNK     1       3.162   1.644  -0.195  1.00  0.00     0.068 A 
HETATM   11  C12 UNK     1      -0.591   0.201  -2.885  1.00  0.00     0.289 A 
ENDROOT
BRANCH   4  12
HETATM   12  C4  UNK     1      -1.541  -0.651   0.666  1.00  0.00    -0.025 A 
HETATM   13  C10 UNK     1      -1.420  -1.980   1.062  1.00  0.00     0.012 A 
HETATM   14  C14 UNK     1      -2.199  -2.464   2.113  1.00  0.00     0.001 A 
HETATM   15  C15 UNK     1      -3.096  -1.617   2.764  1.00  0.00     0.000 A 
HETATM   16  C13 UNK     1      -3.215  -0.286   2.364  1.00  0.00     0.001 A 
HETATM   17  C9  UNK     1      -2.436   0.198   1.313  1.00  0.00     0.012 A 
ENDBRANCH   4  12
BRANCH  10  18
HETATM   18  O2  UNK     1       4.395   2.215  -0.132  1.00  0.00    -0.361 OA
HETATM   19  H10 UNK     1       4.683   2.242   0.797  1.00  0.00     0.217 HD
ENDBRANCH  10  18
TORSDOF 2
