REMARK  3 active torsions:
REMARK  status: ('A' for Active; 'I' for Inactive)
REMARK    1  A    between atoms: C4_11  and  N1_7 
REMARK       I    between atoms: C7_14  and  N1_7 
REMARK    2  A    between atoms: C2_9  and  C7_14 
REMARK    3  A    between atoms: C17_24  and  C6_13 
ROOT
HETATM    1  O2  UNK     1       1.114   0.995   1.755  1.00  0.00    -0.267 OA
HETATM    2  N1  UNK     1      -0.497  -0.011   0.364  1.00  0.00    -0.323 N 
HETATM    3  C7  UNK     1       0.658   0.703   0.652  1.00  0.00     0.262 C 
HETATM    4  H3  UNK     1      -0.726  -0.188  -0.611  1.00  0.00     0.169 HD
ENDROOT
BRANCH   3   5
HETATM    5  C2  UNK     1       1.367   1.123  -0.564  1.00  0.00     0.108 A 
HETATM    6  C10 UNK     1       0.654   1.406  -1.830  1.00  0.00     0.304 A 
HETATM    7  O3  UNK     1      -0.564   1.304  -1.925  1.00  0.00    -0.259 OA
HETATM    8  O1  UNK     1       1.436   1.797  -2.913  1.00  0.00    -0.274 OA
HETATM    9  C3  UNK     1       2.836   1.919  -2.814  1.00  0.00     0.089 A 
HETATM   10  C1  UNK     1       3.485   1.647  -1.615  1.00  0.00    -0.001 A 
HETATM   11  C12 UNK     1       3.533   2.317  -3.953  1.00  0.00     0.038 A 
HETATM   12  C5  UNK     1       2.696   1.236  -0.464  1.00  0.00     0.037 A 
HETATM   13  C9  UNK     1       4.875   1.779  -1.556  1.00  0.00     0.014 A 
HETATM   14  C15 UNK     1       5.588   2.177  -2.690  1.00  0.00     0.001 A 
HETATM   15  C16 UNK     1       4.918   2.446  -3.886  1.00  0.00     0.003 A 
ENDBRANCH   3   5
BRANCH   2  16
HETATM   16  C4  UNK     1      -1.420  -0.568   1.283  1.00  0.00     0.035 A 
HETATM   17  C11 UNK     1      -1.197  -0.416   2.641  1.00  0.00     0.029 A 
HETATM   18  C14 UNK     1      -2.105  -0.964   3.546  1.00  0.00     0.003 A 
HETATM   19  C13 UNK     1      -3.223  -1.656   3.080  1.00  0.00     0.016 A 
HETATM   20  C6  UNK     1      -3.432  -1.799   1.709  1.00  0.00     0.050 A 
HETATM   21  C8  UNK     1      -2.524  -1.251   0.803  1.00  0.00     0.045 A 
BRANCH  20  22
HETATM   22  C17 UNK     1      -4.627  -2.540   1.211  1.00  0.00     0.417 C 
HETATM   23  F1  UNK     1      -5.428  -3.021   2.208  1.00  0.00    -0.166 F 
HETATM   24  F2  UNK     1      -5.451  -1.784   0.427  1.00  0.00    -0.166 F 
HETATM   25  F3  UNK     1      -4.295  -3.625   0.453  1.00  0.00    -0.166 F 
ENDBRANCH  20  22
ENDBRANCH   2  16
TORSDOF 3
