REMARK  3 active torsions:
REMARK  status: ('A' for Active; 'I' for Inactive)
REMARK    1  A    between atoms: C13_18  and  C5_10 
REMARK    2  A    between atoms: C16_21  and  C8_13 
REMARK    3  A    between atoms: C13_18  and  C18_23 
ROOT
HETATM    1  O5  UNK     1       0.020  -0.792   0.327  1.00  0.00    -0.288 OA
HETATM    2  C13 UNK     1      -0.078  -0.440  -0.858  1.00  0.00     0.182 C 
ENDROOT
BRANCH   2   3
HETATM    3  C5  UNK     1       0.786   0.594  -1.403  1.00  0.00     0.017 A 
HETATM    4  C11 UNK     1       0.339   1.391  -2.458  1.00  0.00     0.018 A 
HETATM    5  C10 UNK     1       1.168   2.380  -2.988  1.00  0.00     0.040 A 
HETATM    6  C2  UNK     1       2.446   2.569  -2.463  1.00  0.00     0.102 A 
HETATM    7  C1  UNK     1       2.884   1.790  -1.389  1.00  0.00     0.103 A 
HETATM    8  O2  UNK     1       3.221   3.542  -3.039  1.00  0.00    -0.346 OA
HETATM    9  O1  UNK     1       4.115   1.949  -0.809  1.00  0.00    -0.346 OA
HETATM   10  C6  UNK     1       2.060   0.791  -0.869  1.00  0.00     0.055 A 
HETATM   11  C3  UNK     1       4.720   3.192  -1.175  1.00  0.00     0.202 C 
HETATM   12  C4  UNK     1       4.597   3.417  -2.669  1.00  0.00     0.202 C 
ENDBRANCH   2   3
BRANCH   2  13
HETATM   13  C18 UNK     1      -1.073  -1.102  -1.770  1.00  0.00     0.056 C 
HETATM   14  C16 UNK     1      -2.221  -1.597  -1.285  1.00  0.00     0.015 C 
BRANCH  14  15
HETATM   15  C8  UNK     1      -2.616  -1.551   0.134  1.00  0.00    -0.033 A 
HETATM   16  C12 UNK     1      -2.754  -0.318   0.776  1.00  0.00     0.051 A 
HETATM   17  C7  UNK     1      -3.126  -0.325   2.104  1.00  0.00     0.105 A 
HETATM   18  O3  UNK     1      -3.307   0.772   2.889  1.00  0.00    -0.323 OA
HETATM   19  C9  UNK     1      -3.358  -1.499   2.785  1.00  0.00     0.105 A 
HETATM   20  C17 UNK     1      -3.680   0.157   4.140  1.00  0.00     0.352 A 
HETATM   21  O4  UNK     1      -3.714  -1.283   4.081  1.00  0.00    -0.323 OA
HETATM   22  C15 UNK     1      -3.230  -2.729   2.174  1.00  0.00     0.040 A 
HETATM   23  C14 UNK     1      -2.853  -2.750   0.829  1.00  0.00     0.014 A 
ENDBRANCH  14  15
ENDBRANCH   2  13
TORSDOF 3
