REMARK  4 active torsions:
REMARK  status: ('A' for Active; 'I' for Inactive)
REMARK    1  A    between atoms: C13_20  and  O3_4 
REMARK       I    between atoms: C14_21  and  N1_6 
REMARK    2  A    between atoms: C9_16  and  N1_6 
REMARK    3  A    between atoms: C3_10  and  C8_15 
REMARK    4  A    between atoms: C12_19  and  C14_21 
ROOT
HETATM    1  N2  UNK     1      -0.001   1.389   1.840  1.00  0.00    -0.191 NA
HETATM    2  C8  UNK     1      -0.307   0.202  -1.429  1.00  0.00     0.045 C 
HETATM    3  C12 UNK     1      -0.865   0.063  -0.209  1.00  0.00     0.113 C 
HETATM    4  C19 UNK     1      -0.386   0.796   0.918  1.00  0.00     0.105 C 
ENDROOT
BRANCH   3   5
HETATM    5  C14 UNK     1      -2.018  -0.911  -0.090  1.00  0.00     0.266 C 
HETATM    6  O4  UNK     1      -2.414  -1.530  -1.076  1.00  0.00    -0.267 OA
HETATM    7  N1  UNK     1      -2.537  -1.005   1.197  1.00  0.00    -0.320 N 
HETATM    8  H6  UNK     1      -2.129  -0.434   1.932  1.00  0.00     0.169 HD
BRANCH   7   9
HETATM    9  C9  UNK     1      -3.611  -1.821   1.636  1.00  0.00     0.068 A 
HETATM   10  C13 UNK     1      -4.005  -1.786   2.963  1.00  0.00     0.095 A 
HETATM   11  C16 UNK     1      -5.063  -2.593   3.380  1.00  0.00     0.039 A 
HETATM   12  C18 UNK     1      -5.711  -3.423   2.465  1.00  0.00     0.003 A 
HETATM   13  C17 UNK     1      -5.300  -3.445   1.132  1.00  0.00     0.002 A 
HETATM   14  C15 UNK     1      -4.242  -2.638   0.714  1.00  0.00     0.032 A 
BRANCH  10  15
HETATM   15  O3  UNK     1      -3.384  -0.983   3.873  1.00  0.00    -0.354 OA
HETATM   16  C20 UNK     1      -2.272  -1.537   4.573  1.00  0.00     0.210 C 
ENDBRANCH  10  15
ENDBRANCH   7   9
ENDBRANCH   3   5
BRANCH   2  17
HETATM   17  C3  UNK     1       0.794   1.060  -1.777  1.00  0.00     0.039 A 
HETATM   18  C4  UNK     1       2.194   0.563  -1.694  1.00  0.00     0.197 A 
HETATM   19  C1  UNK     1       3.251   1.519  -2.072  1.00  0.00     0.050 A 
HETATM   20  O2  UNK     1       2.468  -0.575  -1.334  1.00  0.00    -0.286 OA
HETATM   21  C2  UNK     1       2.892   2.805  -2.477  1.00  0.00     0.089 A 
HETATM   22  C5  UNK     1       4.598   1.147  -2.029  1.00  0.00     0.042 A 
HETATM   23  O1  UNK     1       1.587   3.224  -2.539  1.00  0.00    -0.321 OA
HETATM   24  C6  UNK     1       3.876   3.725  -2.839  1.00  0.00     0.040 A 
HETATM   25  C7  UNK     1       0.612   2.324  -2.184  1.00  0.00     0.158 A 
HETATM   26  C11 UNK     1       5.220   3.356  -2.796  1.00  0.00     0.026 A 
HETATM   27  C10 UNK     1       5.580   2.069  -2.392  1.00  0.00     0.035 A 
HETATM   28 Cl1  UNK     1       7.241   1.620  -2.341  1.00  0.00    -0.084 Cl
ENDBRANCH   2  17
TORSDOF 4
