REMARK  8 active torsions:
REMARK  status: ('A' for Active; 'I' for Inactive)
REMARK    1  A    between atoms: C6_11  and  O2_2 
REMARK    2  A    between atoms: C7_12  and  O2_2 
REMARK    3  A    between atoms: C15_20  and  O3_3 
REMARK    4  A    between atoms: C22_27  and  O3_3 
REMARK    5  A    between atoms: C3_8  and  C4_9 
REMARK    6  A    between atoms: C11_16  and  C4_9 
REMARK    7  A    between atoms: C13_18  and  C6_11 
REMARK    8  A    between atoms: C15_20  and  C6_11 
ROOT
HETATM    1  O1  UNK     1       0.198  -0.068  -1.432  1.00  0.00    -0.274 OA
HETATM    2  O4  UNK     1       1.468   0.100  -3.306  1.00  0.00    -0.259 OA
HETATM    3  C1  UNK     1       2.502   0.499   0.111  1.00  0.00    -0.036 A 
HETATM    4  C2  UNK     1       1.200   0.249   0.762  1.00  0.00     0.005 A 
HETATM    5  C3  UNK     1       2.598   0.421  -1.233  1.00  0.00     0.029 A 
HETATM    6  C5  UNK     1       0.091  -0.025  -0.034  1.00  0.00     0.092 A 
HETATM    7  C7  UNK     1      -1.350  -0.252   1.879  1.00  0.00     0.072 A 
HETATM    8  C8  UNK     1       1.002   0.258   2.152  1.00  0.00     0.017 A 
HETATM    9  C9  UNK     1      -1.176  -0.273   0.500  1.00  0.00     0.075 A 
HETATM   10  C10 UNK     1       1.403   0.140  -2.081  1.00  0.00     0.295 A 
HETATM   11  C12 UNK     1       3.660   0.848   1.014  1.00  0.00     0.050 C 
HETATM   12  C14 UNK     1      -0.261   0.012   2.705  1.00  0.00     0.038 A 
ENDROOT
BRANCH   7  13
HETATM   13  O2  UNK     1      -2.575  -0.491   2.419  1.00  0.00    -0.336 OA
BRANCH  13  14
HETATM   14  C6  UNK     1      -3.174  -1.755   2.137  1.00  0.00     0.228 C 
BRANCH  14  15
HETATM   15  C13 UNK     1      -3.447  -2.483   3.453  1.00  0.00     0.038 C 
HETATM   16  C16 UNK     1      -4.378  -1.697   4.365  1.00  0.00     0.008 C 
ENDBRANCH  14  15
BRANCH  14  17
HETATM   17  C15 UNK     1      -4.461  -1.505   1.375  1.00  0.00     0.288 C 
HETATM   18  O5  UNK     1      -4.908  -0.396   1.113  1.00  0.00    -0.262 OA
BRANCH  17  19
HETATM   19  O3  UNK     1      -5.046  -2.697   1.056  1.00  0.00    -0.320 OA
BRANCH  19  20
HETATM   20  C22 UNK     1      -6.290  -2.605   0.354  1.00  0.00     0.174 C 
HETATM   21  C23 UNK     1      -6.804  -4.002   0.077  1.00  0.00     0.034 C 
ENDBRANCH  19  20
ENDBRANCH  17  19
ENDBRANCH  14  17
ENDBRANCH  13  14
ENDBRANCH   7  13
BRANCH   5  22
HETATM   22  C4  UNK     1       3.874   0.590  -2.018  1.00  0.00     0.084 C 
BRANCH  22  23
HETATM   23  C11 UNK     1       3.940   1.918  -2.712  1.00  0.00    -0.054 A 
HETATM   24  C17 UNK     1       3.581   3.073  -2.025  1.00  0.00     0.007 A 
HETATM   25  C19 UNK     1       3.642   4.308  -2.670  1.00  0.00     0.001 A 
HETATM   26  C21 UNK     1       4.062   4.381  -3.998  1.00  0.00     0.000 A 
HETATM   27  C20 UNK     1       4.420   3.219  -4.681  1.00  0.00     0.001 A 
HETATM   28  C18 UNK     1       4.359   1.984  -4.036  1.00  0.00     0.007 A 
ENDBRANCH  22  23
ENDBRANCH   5  22
TORSDOF 8
