REMARK  3 active torsions:
REMARK  status: ('A' for Active; 'I' for Inactive)
REMARK    1  A    between atoms: C3_12  and  N1_9 
REMARK       I    between atoms: C8_17  and  N1_9 
REMARK    2  A    between atoms: C2_11  and  C8_17 
REMARK    3  A    between atoms: C16_25  and  C6_15 
ROOT
HETATM    1  O2  UNK     1      -0.483  -0.510  -2.347  1.00  0.00    -0.267 OA
HETATM    2  N1  UNK     1      -0.628  -0.313  -0.005  1.00  0.00    -0.323 N 
HETATM    3  C8  UNK     1      -0.039  -0.166  -1.253  1.00  0.00     0.262 C 
HETATM    4  H3  UNK     1      -0.134   0.048   0.808  1.00  0.00     0.169 HD
ENDROOT
BRANCH   3   5
HETATM    5  C2  UNK     1       1.272   0.490  -1.174  1.00  0.00     0.108 A 
HETATM    6  C11 UNK     1       2.147   0.354   0.013  1.00  0.00     0.304 A 
HETATM    7  O1  UNK     1       3.367   1.023  -0.031  1.00  0.00    -0.274 OA
HETATM    8  O3  UNK     1       1.819  -0.314   0.987  1.00  0.00    -0.259 OA
HETATM    9  C4  UNK     1       3.754   1.792  -1.145  1.00  0.00     0.089 A 
HETATM   10  C1  UNK     1       2.916   1.906  -2.250  1.00  0.00     0.001 A 
HETATM   11  C12 UNK     1       4.994   2.425  -1.096  1.00  0.00     0.040 A 
HETATM   12  C9  UNK     1       3.335   2.678  -3.337  1.00  0.00     0.038 A 
HETATM   13  C5  UNK     1       1.634   1.219  -2.236  1.00  0.00     0.037 A 
HETATM   14  C15 UNK     1       4.577   3.319  -3.302  1.00  0.00     0.035 A 
HETATM   15 Cl2  UNK     1       5.089   4.269  -4.644  1.00  0.00    -0.084 Cl
HETATM   16  C17 UNK     1       5.405   3.192  -2.184  1.00  0.00     0.026 A 
ENDBRANCH   3   5
BRANCH   2  17
HETATM   17  C3  UNK     1      -1.883  -0.896   0.294  1.00  0.00     0.035 A 
HETATM   18  C10 UNK     1      -2.659  -1.396  -0.737  1.00  0.00     0.031 A 
HETATM   19  C14 UNK     1      -3.896  -1.969  -0.443  1.00  0.00     0.027 A 
HETATM   20  C13 UNK     1      -4.338  -2.035   0.879  1.00  0.00     0.049 A 
HETATM   21 Cl1  UNK     1      -5.875  -2.750   1.204  1.00  0.00    -0.083 Cl
HETATM   22  C6  UNK     1      -3.543  -1.526   1.906  1.00  0.00     0.071 A 
HETATM   23  C7  UNK     1      -2.306  -0.952   1.611  1.00  0.00     0.047 A 
BRANCH  22  24
HETATM   24  C16 UNK     1      -3.981  -1.575   3.334  1.00  0.00     0.419 C 
HETATM   25  F1  UNK     1      -3.077  -1.030   4.199  1.00  0.00    -0.166 F 
HETATM   26  F2  UNK     1      -5.149  -0.909   3.567  1.00  0.00    -0.166 F 
HETATM   27  F3  UNK     1      -4.189  -2.849   3.772  1.00  0.00    -0.166 F 
ENDBRANCH  22  24
ENDBRANCH   2  17
TORSDOF 3
