REMARK  3 active torsions:
REMARK  status: ('A' for Active; 'I' for Inactive)
REMARK    1  A    between atoms: C5_9  and  O2_2 
REMARK    2  A    between atoms: C15_19  and  O4_4 
REMARK    3  A    between atoms: C1_5  and  C4_8 
ROOT
HETATM    1  O1  UNK     1      -1.039  -0.699  -0.549  1.00  0.00    -0.306 OA
HETATM    2  O3  UNK     1      -2.021   0.845   3.091  1.00  0.00    -0.284 OA
HETATM    3  C1  UNK     1      -0.328   0.353   0.006  1.00  0.00     0.123 A 
HETATM    4  C2  UNK     1      -2.469  -0.748   1.411  1.00  0.00     0.051 A 
HETATM    5  C3  UNK     1      -2.085  -1.228   0.161  1.00  0.00     0.090 A 
HETATM    6  C5  UNK     1      -0.601   0.914   1.198  1.00  0.00     0.154 A 
HETATM    7  C6  UNK     1      -1.726   0.377   2.000  1.00  0.00     0.221 A 
HETATM    8  C7  UNK     1      -3.544  -1.327   2.090  1.00  0.00     0.018 A 
HETATM    9  C8  UNK     1      -2.775  -2.293  -0.419  1.00  0.00     0.038 A 
HETATM   10  C11 UNK     1      -4.233  -2.392   1.507  1.00  0.00     0.001 A 
HETATM   11  C12 UNK     1      -3.849  -2.874   0.255  1.00  0.00     0.003 A 
ENDROOT
BRANCH   3  12
HETATM   12  C4  UNK     1       0.767   0.827  -0.860  1.00  0.00     0.001 A 
HETATM   13  C10 UNK     1       0.526   1.823  -1.807  1.00  0.00     0.017 A 
HETATM   14  C14 UNK     1       1.561   2.272  -2.626  1.00  0.00     0.037 A 
HETATM   15  C15 UNK     1       2.838   1.726  -2.499  1.00  0.00     0.068 A 
HETATM   16  C13 UNK     1       3.080   0.730  -1.552  1.00  0.00     0.037 A 
HETATM   17  C9  UNK     1       2.044   0.281  -0.733  1.00  0.00     0.017 A 
BRANCH  15  18
HETATM   18  O4  UNK     1       3.849   2.164  -3.297  1.00  0.00    -0.356 OA
HETATM   19  C17 UNK     1       3.533   3.185  -4.243  1.00  0.00     0.210 C 
ENDBRANCH  15  18
ENDBRANCH   3  12
BRANCH   6  20
HETATM   20  O2  UNK     1       0.107   1.981   1.707  1.00  0.00    -0.350 OA
HETATM   21  C16 UNK     1       1.205   1.535   2.480  1.00  0.00     0.210 C 
ENDBRANCH   6  20
TORSDOF 3
