REMARK  6 active torsions:
REMARK  status: ('A' for Active; 'I' for Inactive)
REMARK    1  A    between atoms: C20_27  and  O3_3 
REMARK    2  A    between atoms: C22_29  and  O3_3 
REMARK    3  A    between atoms: C5_12  and  N1_5 
REMARK    4  A    between atoms: C11_18  and  N2_6 
REMARK       I    between atoms: C12_19  and  N3_7 
REMARK    5  A    between atoms: C12_19  and  C5_12 
REMARK    6  A    between atoms: C11_18  and  C13_20 
ROOT
HETATM    1  N1  UNK     1      -1.300  -1.727   1.048  1.00  0.00     0.100 N 
HETATM    2  N2  UNK     1       0.767  -0.648  -0.660  1.00  0.00     0.096 N 
HETATM    3  C1  UNK     1      -1.628  -0.860  -0.090  1.00  0.00     0.303 C 
HETATM    4  C2  UNK     1       0.030  -1.400   1.575  1.00  0.00     0.303 C 
HETATM    5  C3  UNK     1      -0.564  -0.973  -1.187  1.00  0.00     0.303 C 
HETATM    6  C4  UNK     1       1.094  -1.515   0.478  1.00  0.00     0.303 C 
ENDROOT
BRANCH   2   7
HETATM    7  C11 UNK     1       1.781  -0.760  -1.707  1.00  0.00     0.312 C 
BRANCH   7   8
HETATM    8  C13 UNK     1       1.812   0.438  -2.591  1.00  0.00    -0.011 A 
HETATM    9  C14 UNK     1       2.681   1.574  -2.257  1.00  0.00     0.009 A 
HETATM   10  C16 UNK     1       2.688   2.682  -3.105  1.00  0.00     0.090 A 
HETATM   11  C17 UNK     1       3.512   1.613  -1.129  1.00  0.00     0.051 A 
HETATM   12  O2  UNK     1       1.882   2.721  -4.260  1.00  0.00    -0.275 OA
HETATM   13  C19 UNK     1       3.485   3.803  -2.861  1.00  0.00     0.041 A 
HETATM   14  C18 UNK     1       1.053   1.664  -4.601  1.00  0.00     0.288 A 
HETATM   15  C15 UNK     1       1.056   0.502  -3.697  1.00  0.00     0.092 A 
HETATM   16  O4  UNK     1       0.348   1.687  -5.604  1.00  0.00    -0.260 OA
HETATM   17  C21 UNK     1       4.302   3.822  -1.736  1.00  0.00     0.039 A 
HETATM   18  C20 UNK     1       4.316   2.729  -0.872  1.00  0.00     0.069 A 
BRANCH  18  19
HETATM   19  O3  UNK     1       5.117   2.747   0.230  1.00  0.00    -0.351 OA
BRANCH  19  20
HETATM   20  C22 UNK     1       4.670   2.013   1.369  1.00  0.00     0.171 C 
HETATM   21  C23 UNK     1       5.202   2.676   2.622  1.00  0.00     0.034 C 
ENDBRANCH  19  20
ENDBRANCH  18  19
ENDBRANCH   7   8
ENDBRANCH   2   7
BRANCH   1  22
HETATM   22  C5  UNK     1      -2.315  -1.617   2.094  1.00  0.00     0.374 C 
BRANCH  22  23
HETATM   23  C12 UNK     1      -3.533  -2.445   1.773  1.00  0.00     0.248 C 
HETATM   24  N3  UNK     1      -4.588  -2.384   2.682  1.00  0.00    -0.351 N 
HETATM   25  C6  UNK     1      -5.807  -3.158   2.438  1.00  0.00     0.126 C 
HETATM   26  C7  UNK     1      -4.586  -1.621   3.936  1.00  0.00     0.126 C 
HETATM   27  C8  UNK     1      -7.041  -2.262   2.481  1.00  0.00     0.020 C 
HETATM   28  C10 UNK     1      -7.099  -1.463   3.783  1.00  0.00     0.003 C 
HETATM   29  C9  UNK     1      -5.798  -0.695   4.010  1.00  0.00     0.020 C 
HETATM   30  O1  UNK     1      -3.545  -3.125   0.743  1.00  0.00    -0.271 OA
ENDBRANCH  22  23
ENDBRANCH   1  22
TORSDOF 6
