REMARK  4 active torsions:
REMARK  status: ('A' for Active; 'I' for Inactive)
REMARK       I    between atoms: C10_18  and  N1_7 
REMARK    1  A    between atoms: N1_7  and  N2_8 
REMARK    2  A    between atoms: C1_9  and  C2_10 
REMARK    3  A    between atoms: C10_18  and  C6_14 
REMARK    4  A    between atoms: C12_20  and  C18_26 
ROOT
HETATM    1  N2  UNK     1       0.214   0.425  -0.782  1.00  0.00    -0.183 NA
HETATM    2  C18 UNK     1       0.111   0.338   0.505  1.00  0.00     0.156 C 
ENDROOT
BRANCH   2   3
HETATM    3  C12 UNK     1      -1.023  -0.316   1.159  1.00  0.00     0.056 A 
HETATM    4  C11 UNK     1      -2.148  -0.934   0.423  1.00  0.00     0.198 A 
HETATM    5  C8  UNK     1      -3.201  -1.549   1.252  1.00  0.00     0.052 A 
HETATM    6  O2  UNK     1      -2.203  -0.938  -0.799  1.00  0.00    -0.286 OA
HETATM    7  C13 UNK     1      -4.307  -2.163   0.659  1.00  0.00     0.042 A 
HETATM    8  C9  UNK     1      -3.079  -1.511   2.643  1.00  0.00     0.111 A 
HETATM    9  C16 UNK     1      -5.289  -2.739   1.466  1.00  0.00     0.036 A 
HETATM   10  C17 UNK     1      -5.168  -2.701   2.856  1.00  0.00     0.050 A 
HETATM   11 Cl2  UNK     1      -6.656  -3.498   0.744  1.00  0.00    -0.084 Cl
HETATM   12  C14 UNK     1      -4.063  -2.087   3.446  1.00  0.00     0.070 A 
HETATM   13 Cl1  UNK     1      -3.952  -2.063   5.169  1.00  0.00    -0.081 Cl
HETATM   14  O1  UNK     1      -2.014  -0.923   3.280  1.00  0.00    -0.319 OA
HETATM   15  C15 UNK     1      -1.038  -0.354   2.495  1.00  0.00     0.159 A 
ENDBRANCH   2   3
BRANCH   1  16
HETATM   16  N1  UNK     1       1.333   1.063  -1.204  1.00  0.00    -0.243 N 
HETATM   17  C10 UNK     1       1.538   1.209  -2.567  1.00  0.00     0.272 C 
HETATM   18  O3  UNK     1       0.753   0.786  -3.415  1.00  0.00    -0.266 OA
HETATM   19  H14 UNK     1       1.963   1.432  -0.499  1.00  0.00     0.192 HD
BRANCH  17  20
HETATM   20  C6  UNK     1       2.758   1.936  -2.948  1.00  0.00     0.041 A 
HETATM   21  C5  UNK     1       3.924   2.000  -2.164  1.00  0.00     0.032 A 
HETATM   22  C2  UNK     1       4.896   2.753  -2.784  1.00  0.00    -0.013 A 
HETATM   23  S1  UNK     1       4.371   3.362  -4.296  1.00  0.00    -0.105 SA
HETATM   24  C7  UNK     1       2.838   2.618  -4.124  1.00  0.00     0.067 A 
BRANCH  22  25
HETATM   25  C1  UNK     1       6.260   3.069  -2.306  1.00  0.00     0.017 C 
HETATM   26  C3  UNK     1       7.142   1.813  -2.132  1.00  0.00     0.015 C 
HETATM   27  C4  UNK     1       6.264   3.883  -0.993  1.00  0.00     0.015 C 
ENDBRANCH  22  25
ENDBRANCH  17  20
ENDBRANCH   1  16
TORSDOF 4
