REMARK  4 active torsions:
REMARK  status: ('A' for Active; 'I' for Inactive)
REMARK    1  A    between atoms: C11_17  and  O2_2 
REMARK    2  A    between atoms: C17_23  and  O2_2 
REMARK    3  A    between atoms: C1_7  and  C10_16 
REMARK    4  A    between atoms: C11_17  and  C6_12 
ROOT
HETATM    1  O1  UNK     1       0.587  -1.097  -3.223  1.00  0.00    -0.293 OA
HETATM    2  N1  UNK     1       2.567   2.486  -0.838  1.00  0.00    -0.362 N 
HETATM    3  C1  UNK     1       1.134   0.045  -0.631  1.00  0.00     0.104 C 
HETATM    4  C2  UNK     1       1.477   0.707  -1.961  1.00  0.00     0.024 C 
HETATM    5  C3  UNK     1       2.141   1.882  -2.006  1.00  0.00     0.020 C 
HETATM    6  C4  UNK     1       2.461   2.603  -3.288  1.00  0.00     0.058 C 
HETATM    7  C5  UNK     1       1.560   2.163  -4.436  1.00  0.00     0.014 C 
HETATM    8  C6  UNK     1       1.791   0.743   0.562  1.00  0.00     0.052 C 
HETATM    9  C7  UNK     1       1.529   0.650  -4.548  1.00  0.00     0.084 C 
HETATM   10  C8  UNK     1       1.129   0.008  -3.238  1.00  0.00     0.158 C 
HETATM   11  C9  UNK     1       2.443   1.920   0.421  1.00  0.00     0.018 C 
HETATM   12  C13 UNK     1       3.076   2.709   1.535  1.00  0.00     0.069 C 
HETATM   13  H8  UNK     1       3.064   3.366  -0.914  1.00  0.00     0.165 HD
ENDROOT
BRANCH   3  14
HETATM   14  C10 UNK     1      -0.358  -0.008  -0.445  1.00  0.00     0.029 A 
HETATM   15  C12 UNK     1      -1.013  -1.337  -0.343  1.00  0.00     0.194 A 
HETATM   16  O5  UNK     1      -0.379  -2.382  -0.403  1.00  0.00    -0.287 OA
HETATM   17  C15 UNK     1      -2.477  -1.332  -0.163  1.00  0.00     0.048 A 
HETATM   18  C16 UNK     1      -3.148  -0.111  -0.101  1.00  0.00     0.089 A 
HETATM   19  C18 UNK     1      -3.186  -2.531  -0.056  1.00  0.00     0.018 A 
HETATM   20  O3  UNK     1      -2.503   1.096  -0.200  1.00  0.00    -0.321 OA
HETATM   21  C19 UNK     1      -4.533  -0.082   0.069  1.00  0.00     0.038 A 
HETATM   22  C14 UNK     1      -1.140   1.076  -0.367  1.00  0.00     0.154 A 
HETATM   23  C23 UNK     1      -5.243  -1.278   0.176  1.00  0.00     0.003 A 
HETATM   24  C20 UNK     1      -4.571  -2.500   0.114  1.00  0.00     0.001 A 
ENDBRANCH   3  14
BRANCH   8  25
HETATM   25  C11 UNK     1       1.717   0.041   1.855  1.00  0.00     0.292 C 
HETATM   26  O4  UNK     1       2.540  -0.779   2.217  1.00  0.00    -0.259 OA
BRANCH  25  27
HETATM   27  O2  UNK     1       0.614   0.471   2.512  1.00  0.00    -0.313 OA
BRANCH  27  28
HETATM   28  C17 UNK     1       0.403  -0.124   3.797  1.00  0.00     0.124 C 
HETATM   29  C21 UNK     1      -0.845   0.475   4.427  1.00  0.00     0.040 C 
HETATM   30  C22 UNK     1       0.290  -1.632   3.637  1.00  0.00     0.040 C 
ENDBRANCH  27  28
ENDBRANCH  25  27
ENDBRANCH   8  25
TORSDOF 4
