REMARK  6 active torsions:
REMARK  status: ('A' for Active; 'I' for Inactive)
REMARK    1  A    between atoms: C5_12  and  O3_4 
REMARK    2  A    between atoms: C8_15  and  O3_4 
REMARK    3  A    between atoms: C9_16  and  O5_6 
REMARK    4  A    between atoms: C1_8  and  C5_12 
REMARK    5  A    between atoms: C10_17  and  C16_23 
REMARK    6  A    between atoms: C17_24  and  C18_25 
ROOT
HETATM    1  N1  UNK     1      -2.757  -1.959  -1.243  1.00  0.00    -0.191 NA
HETATM    2  C16 UNK     1      -2.241  -1.167   2.090  1.00  0.00     0.035 C 
HETATM    3  C17 UNK     1      -3.198  -1.715   1.298  1.00  0.00     0.055 C 
HETATM    4  C25 UNK     1      -2.953  -1.849  -0.104  1.00  0.00     0.100 C 
ENDROOT
BRANCH   3   5
HETATM    5  C18 UNK     1      -4.490  -2.191   1.828  1.00  0.00    -0.015 A 
HETATM    6  C19 UNK     1      -4.603  -3.502   2.259  1.00  0.00     0.014 A 
HETATM    7  C21 UNK     1      -5.825  -3.951   2.760  1.00  0.00     0.024 A 
HETATM    8  C24 UNK     1      -6.915  -3.083   2.822  1.00  0.00     0.034 A 
HETATM    9  C22 UNK     1      -6.784  -1.766   2.384  1.00  0.00     0.024 A 
HETATM   10 Cl1  UNK     1      -8.423  -3.638   3.440  1.00  0.00    -0.084 Cl
HETATM   11  C20 UNK     1      -5.562  -1.316   1.883  1.00  0.00     0.014 A 
ENDBRANCH   3   5
BRANCH   2  12
HETATM   12  C10 UNK     1      -0.938  -0.675   1.672  1.00  0.00    -0.032 A 
HETATM   13  C14 UNK     1      -0.788   0.654   1.275  1.00  0.00     0.051 A 
HETATM   14  C9  UNK     1       0.462   1.125   0.875  1.00  0.00     0.102 A 
HETATM   15  C8  UNK     1       1.531   0.257   0.881  1.00  0.00     0.112 A 
HETATM   16  C13 UNK     1       1.413  -1.061   1.268  1.00  0.00     0.041 A 
HETATM   17  C15 UNK     1       0.163  -1.532   1.668  1.00  0.00     0.014 A 
BRANCH  14  18
HETATM   18  O5  UNK     1       0.596   2.425   0.489  1.00  0.00    -0.353 OA
HETATM   19  C23 UNK     1       0.920   3.373   1.504  1.00  0.00     0.210 C 
ENDBRANCH  14  18
BRANCH  15  20
HETATM   20  O3  UNK     1       2.789   0.717   0.482  1.00  0.00    -0.274 OA
BRANCH  20  21
HETATM   21  C5  UNK     1       3.011   0.562  -0.881  1.00  0.00     0.296 C 
HETATM   22  O4  UNK     1       2.242   0.084  -1.705  1.00  0.00    -0.262 OA
BRANCH  21  23
HETATM   23  C1  UNK     1       4.380   1.083  -1.208  1.00  0.00     0.253 C 
HETATM   24  O1  UNK     1       4.653   0.822  -2.579  1.00  0.00    -0.331 OA
HETATM   25  C3  UNK     1       4.243   1.816  -3.426  1.00  0.00     0.103 A 
HETATM   26  C4  UNK     1       3.784   3.056  -2.983  1.00  0.00     0.102 A 
HETATM   27  C6  UNK     1       4.294   1.540  -4.794  1.00  0.00     0.040 A 
HETATM   28  O2  UNK     1       3.724   3.394  -1.658  1.00  0.00    -0.345 OA
HETATM   29  C7  UNK     1       3.338   4.007  -3.901  1.00  0.00     0.039 A 
HETATM   30  C2  UNK     1       4.550   2.551  -0.852  1.00  0.00     0.218 C 
HETATM   31  C12 UNK     1       3.381   3.727  -5.267  1.00  0.00     0.003 A 
HETATM   32  C11 UNK     1       3.863   2.497  -5.713  1.00  0.00     0.003 A 
ENDBRANCH  21  23
ENDBRANCH  20  21
ENDBRANCH  15  20
ENDBRANCH   2  12
TORSDOF 6
