REMARK  0 active torsions:
REMARK  status: ('A' for Active; 'I' for Inactive)
ROOT
HETATM    1  O1  UNK     1       1.818   0.913   0.706  1.00  0.00    -0.322 OA
HETATM    2  O2  UNK     1       0.016   0.489  -2.931  1.00  0.00    -0.287 OA
HETATM    3  C1  UNK     1      -0.101   0.166  -0.588  1.00  0.00     0.048 A 
HETATM    4  C2  UNK     1       0.571   0.340   0.623  1.00  0.00     0.089 A 
HETATM    5  C3  UNK     1      -1.957  -0.835   0.582  1.00  0.00    -0.061 A 
HETATM    6  C4  UNK     1      -1.367  -0.422  -0.614  1.00  0.00     0.025 A 
HETATM    7  C5  UNK     1      -0.021  -0.074   1.816  1.00  0.00     0.039 A 
HETATM    8  C6  UNK     1      -1.286  -0.662   1.793  1.00  0.00     0.009 A 
HETATM    9  C7  UNK     1       0.547   0.612  -1.835  1.00  0.00     0.186 A 
HETATM   10  C8  UNK     1      -3.310  -1.464   0.565  1.00  0.00     0.048 C 
HETATM   11  C9  UNK     1       1.884   1.220  -1.691  1.00  0.00     0.080 A 
HETATM   12  C10 UNK     1       2.406   1.323  -0.466  1.00  0.00     0.146 A 
ENDROOT
TORSDOF 0
