REMARK  1 active torsions:
REMARK  status: ('A' for Active; 'I' for Inactive)
REMARK    1  A    between atoms: C2_6  and  C4_8 
ROOT
HETATM    1 Cl1  UNK     1      -4.711  -1.950   3.351  1.00  0.00    -0.084 Cl
HETATM    2  O1  UNK     1      -0.267   0.756   0.610  1.00  0.00    -0.309 OA
HETATM    3  O2  UNK     1      -2.186  -2.235  -1.383  1.00  0.00    -0.287 OA
HETATM    4  C1  UNK     1      -2.007  -0.938   0.584  1.00  0.00     0.050 A 
HETATM    5  C2  UNK     1       0.112   0.373  -0.668  1.00  0.00     0.090 A 
HETATM    6  C3  UNK     1      -1.309   0.094   1.209  1.00  0.00     0.090 A 
HETATM    7  C5  UNK     1      -1.615  -1.340  -0.775  1.00  0.00     0.187 A 
HETATM    8  C6  UNK     1      -0.486  -0.600  -1.374  1.00  0.00     0.093 A 
HETATM    9  C7  UNK     1      -3.062  -1.576   1.242  1.00  0.00     0.042 A 
HETATM   10  C8  UNK     1      -1.662   0.496   2.497  1.00  0.00     0.040 A 
HETATM   11  C11 UNK     1      -3.412  -1.173   2.531  1.00  0.00     0.035 A 
HETATM   12  C12 UNK     1      -2.714  -0.139   3.157  1.00  0.00     0.026 A 
ENDROOT
BRANCH   5  13
HETATM   13  C4  UNK     1       1.239   1.153  -1.219  1.00  0.00    -0.002 A 
HETATM   14  C10 UNK     1       2.217   1.670  -0.366  1.00  0.00     0.015 A 
HETATM   15  C14 UNK     1       3.281   2.407  -0.886  1.00  0.00     0.020 A 
HETATM   16  C15 UNK     1       3.371   2.628  -2.261  1.00  0.00     0.011 A 
HETATM   17 Br1  UNK     1       4.813   3.625  -2.965  1.00  0.00    -0.051 Br
HETATM   18  C13 UNK     1       2.396   2.112  -3.115  1.00  0.00     0.020 A 
HETATM   19  C9  UNK     1       1.331   1.376  -2.595  1.00  0.00     0.015 A 
ENDBRANCH   5  13
TORSDOF 1
