REMARK  4 active torsions:
REMARK  status: ('A' for Active; 'I' for Inactive)
REMARK    1  A    between atoms: C14_19  and  O1_1 
REMARK    2  A    between atoms: C4_9  and  O1_1 
REMARK    3  A    between atoms: C2_7  and  C6_11 
REMARK    4  A    between atoms: C13_18  and  C14_19 
ROOT
HETATM    1  O2  UNK     1      -3.456  -2.120   2.694  1.00  0.00    -0.286 OA
HETATM    2  C1  UNK     1      -2.774  -1.017  -0.517  1.00  0.00     0.013 A 
HETATM    3  C2  UNK     1      -1.795  -0.756   1.559  1.00  0.00     0.060 A 
HETATM    4  C3  UNK     1      -3.586  -1.739   0.347  1.00  0.00     0.028 A 
HETATM    5  C4  UNK     1      -1.697  -0.428   0.255  1.00  0.00     0.105 A 
HETATM    6  C5  UNK     1      -3.015  -1.611   1.684  1.00  0.00     0.197 A 
HETATM    7  C7  UNK     1      -3.077  -0.961  -1.867  1.00  0.00     0.015 A 
HETATM    8  C8  UNK     1      -4.710  -2.426  -0.068  1.00  0.00     0.016 A 
HETATM    9  C9  UNK     1      -4.210  -1.646  -2.320  1.00  0.00     0.001 A 
HETATM   10  C10 UNK     1      -5.020  -2.373  -1.427  1.00  0.00     0.001 A 
ENDROOT
BRANCH   5  11
HETATM   11  O1  UNK     1      -0.781   0.361  -0.372  1.00  0.00    -0.273 OA
BRANCH  11  12
HETATM   12  C14 UNK     1       0.298  -0.322  -0.851  1.00  0.00     0.304 C 
HETATM   13  O4  UNK     1       0.537  -1.519  -0.788  1.00  0.00    -0.259 OA
BRANCH  12  14
HETATM   14  C13 UNK     1       1.202   0.643  -1.488  1.00  0.00     0.116 A 
HETATM   15  C16 UNK     1       2.506   0.345  -1.452  1.00  0.00     0.038 A 
HETATM   16  C15 UNK     1       3.480   1.241  -2.057  1.00  0.00    -0.001 A 
HETATM   17  C17 UNK     1       3.032   2.406  -2.670  1.00  0.00     0.089 A 
HETATM   18  C22 UNK     1       4.850   0.970  -2.042  1.00  0.00     0.014 A 
HETATM   19  O3  UNK     1       1.658   2.714  -2.705  1.00  0.00    -0.274 OA
HETATM   20  C23 UNK     1       3.913   3.306  -3.267  1.00  0.00     0.038 A 
HETATM   21  C20 UNK     1       0.703   1.877  -2.135  1.00  0.00     0.304 A 
HETATM   22  O5  UNK     1      -0.491   2.153  -2.170  1.00  0.00    -0.259 OA
HETATM   23  C25 UNK     1       5.278   3.029  -3.248  1.00  0.00     0.003 A 
HETATM   24  C24 UNK     1       5.746   1.863  -2.638  1.00  0.00     0.001 A 
ENDBRANCH  12  14
ENDBRANCH  11  12
ENDBRANCH   5  11
BRANCH   3  25
HETATM   25  C6  UNK     1      -0.930  -0.368   2.671  1.00  0.00    -0.019 A 
HETATM   26  C11 UNK     1      -0.255   0.859   2.650  1.00  0.00     0.012 A 
HETATM   27  C18 UNK     1       0.571   1.229   3.712  1.00  0.00     0.001 A 
HETATM   28  C21 UNK     1       0.727   0.375   4.804  1.00  0.00     0.000 A 
HETATM   29  C19 UNK     1       0.058  -0.848   4.834  1.00  0.00     0.001 A 
HETATM   30  C12 UNK     1      -0.767  -1.219   3.773  1.00  0.00     0.012 A 
ENDBRANCH   3  25
TORSDOF 4
