REMARK  3 active torsions:
REMARK  status: ('A' for Active; 'I' for Inactive)
REMARK    1  A    between atoms: C22_28  and  O4_4 
REMARK    2  A    between atoms: C1_7  and  C8_14 
REMARK    3  A    between atoms: C6_12  and  C9_15 
ROOT
HETATM    1  O1  UNK     1      -0.082   3.152   0.964  1.00  0.00    -0.293 OA
HETATM    2  N1  UNK     1      -0.148  -0.743  -1.875  1.00  0.00    -0.357 N 
HETATM    3  N2  UNK     1      -2.619   0.704  -0.961  1.00  0.00    -0.375 N 
HETATM    4  C1  UNK     1       2.170   2.168  -1.663  1.00  0.00     0.031 C 
HETATM    5  C2  UNK     1       1.787   0.689  -1.762  1.00  0.00     0.067 C 
HETATM    6  C3  UNK     1      -0.272   1.227  -0.438  1.00  0.00     0.037 C 
HETATM    7  C4  UNK     1       1.898   2.661  -0.249  1.00  0.00     0.093 C 
HETATM    8  C5  UNK     1       0.360   0.412  -1.312  1.00  0.00     0.022 C 
HETATM    9  C6  UNK     1      -1.662   0.990   0.096  1.00  0.00     0.160 C 
HETATM   10  C7  UNK     1       0.458   2.416   0.138  1.00  0.00     0.160 C 
HETATM   11  C10 UNK     1      -1.474  -1.160  -2.111  1.00  0.00     0.059 A 
HETATM   12  C11 UNK     1      -2.624  -0.443  -1.739  1.00  0.00     0.055 A 
HETATM   13  C16 UNK     1      -1.633  -2.369  -2.829  1.00  0.00     0.032 A 
HETATM   14  C17 UNK     1      -3.885  -0.939  -2.142  1.00  0.00     0.031 A 
HETATM   15  C23 UNK     1      -2.888  -2.848  -3.199  1.00  0.00     0.002 A 
HETATM   16  C24 UNK     1      -4.019  -2.124  -2.862  1.00  0.00     0.002 A 
HETATM   17  H7  UNK     1       0.556  -1.346  -2.291  1.00  0.00     0.166 HD
HETATM   18  H8  UNK     1      -3.494   1.218  -0.916  1.00  0.00     0.160 HD
ENDROOT
BRANCH   9  19
HETATM   19  C9  UNK     1      -1.710  -0.064   1.162  1.00  0.00     0.042 A 
HETATM   20  C14 UNK     1      -3.021  -0.388   1.780  1.00  0.00     0.195 A 
HETATM   21  O3  UNK     1      -4.055   0.175   1.445  1.00  0.00    -0.287 OA
HETATM   22  C18 UNK     1      -3.012  -1.430   2.823  1.00  0.00     0.049 A 
HETATM   23  C21 UNK     1      -1.804  -2.039   3.164  1.00  0.00     0.089 A 
HETATM   24  C25 UNK     1      -4.195  -1.806   3.465  1.00  0.00     0.025 A 
HETATM   25  O2  UNK     1      -0.613  -1.709   2.566  1.00  0.00    -0.321 OA
HETATM   26  C26 UNK     1      -1.772  -3.028   4.148  1.00  0.00     0.039 A 
HETATM   27  C15 UNK     1      -0.637  -0.737   1.597  1.00  0.00     0.156 A 
HETATM   28  C28 UNK     1      -2.952  -3.405   4.789  1.00  0.00     0.009 A 
HETATM   29  C27 UNK     1      -4.160  -2.795   4.449  1.00  0.00    -0.061 A 
HETATM   30  C29 UNK     1      -5.419  -3.203   5.139  1.00  0.00     0.048 C 
ENDBRANCH   9  19
BRANCH   4  31
HETATM   31  C8  UNK     1       3.603   2.419  -2.093  1.00  0.00    -0.053 A 
HETATM   32  C12 UNK     1       3.866   3.241  -3.186  1.00  0.00     0.010 A 
HETATM   33  C19 UNK     1       5.184   3.470  -3.582  1.00  0.00     0.037 A 
HETATM   34  C22 UNK     1       6.236   2.877  -2.882  1.00  0.00     0.068 A 
HETATM   35  C20 UNK     1       5.969   2.055  -1.788  1.00  0.00     0.037 A 
HETATM   36  C13 UNK     1       4.651   1.825  -1.392  1.00  0.00     0.010 A 
BRANCH  34  37
HETATM   37  O4  UNK     1       7.521   3.103  -3.268  1.00  0.00    -0.356 OA
HETATM   38  C30 UNK     1       8.548   2.466  -2.510  1.00  0.00     0.210 C 
ENDBRANCH  34  37
ENDBRANCH   4  31
TORSDOF 3
