REMARK  2 active torsions:
REMARK  status: ('A' for Active; 'I' for Inactive)
REMARK    1  A    between atoms: C2_6  and  O1_2 
REMARK    2  A    between atoms: C7_11  and  O1_2 
ROOT
HETATM    1 Cl1  UNK     1       3.841   1.830  -0.579  1.00  0.00    -0.084 Cl
HETATM    2  O2  UNK     1      -1.543  -0.145  -1.941  1.00  0.00    -0.275 OA
HETATM    3  O3  UNK     1      -3.458  -1.272  -1.396  1.00  0.00    -0.260 OA
HETATM    4  C1  UNK     1       0.228   0.105  -0.270  1.00  0.00     0.033 A 
HETATM    5  C2  UNK     1      -0.633  -0.612   0.677  1.00  0.00     0.087 A 
HETATM    6  C3  UNK     1      -0.266   0.321  -1.560  1.00  0.00     0.092 A 
HETATM    7  C4  UNK     1       1.515   0.580   0.015  1.00  0.00     0.041 A 
HETATM    8  C5  UNK     1       0.467   0.992  -2.541  1.00  0.00     0.040 A 
HETATM    9  C6  UNK     1      -1.833  -1.058   0.294  1.00  0.00     0.120 A 
HETATM   10  C8  UNK     1       2.262   1.255  -0.958  1.00  0.00     0.035 A 
HETATM   11  C9  UNK     1       1.739   1.462  -2.233  1.00  0.00     0.026 A 
HETATM   12  C10 UNK     1      -2.356  -0.849  -1.065  1.00  0.00     0.290 A 
ENDROOT
BRANCH   5  13
HETATM   13  O1  UNK     1      -0.212  -0.821   1.975  1.00  0.00    -0.350 OA
BRANCH  13  14
HETATM   14  C7  UNK     1      -0.611   0.249   2.810  1.00  0.00     0.171 C 
HETATM   15  C11 UNK     1      -0.143  -0.027   4.223  1.00  0.00     0.034 C 
ENDBRANCH  13  14
ENDBRANCH   5  13
TORSDOF 2
