REMARK  4 active torsions:
REMARK  status: ('A' for Active; 'I' for Inactive)
REMARK    1  A    between atoms: C1_6  and  N1_3 
REMARK    2  A    between atoms: C3_8  and  N1_3 
REMARK    3  A    between atoms: C4_9  and  N1_3 
REMARK    4  A    between atoms: C11_16  and  C7_12 
ROOT
HETATM    1  O1  UNK     1       1.438   0.747   1.022  1.00  0.00    -0.274 OA
HETATM    2  O2  UNK     1       0.158   0.109   2.800  1.00  0.00    -0.259 OA
HETATM    3  C1  UNK     1       3.032   1.478  -2.206  1.00  0.00     0.032 A 
HETATM    4  C2  UNK     1       0.685   0.289  -1.242  1.00  0.00    -0.001 A 
HETATM    5  C5  UNK     1       1.636   0.809  -0.371  1.00  0.00     0.091 A 
HETATM    6  C6  UNK     1       2.808   1.404  -0.833  1.00  0.00     0.067 A 
HETATM    7  C7  UNK     1      -0.708  -0.377   0.635  1.00  0.00     0.086 A 
HETATM    8  C8  UNK     1       2.089   0.961  -3.097  1.00  0.00     0.030 A 
HETATM    9  C9  UNK     1      -0.517  -0.315  -0.691  1.00  0.00     0.035 A 
HETATM   10  C10 UNK     1       0.917   0.367  -2.617  1.00  0.00     0.016 A 
HETATM   11  C13 UNK     1       0.303   0.167   1.583  1.00  0.00     0.302 A 
ENDROOT
BRANCH   7  12
HETATM   12  C11 UNK     1      -1.906  -0.971   1.143  1.00  0.00     0.145 A 
HETATM   13  N2  UNK     1      -3.028  -0.881   0.368  1.00  0.00    -0.338 N 
HETATM   14  C12 UNK     1      -4.049  -1.509   1.035  1.00  0.00     0.062 A 
HETATM   15  H9  UNK     1      -3.127  -0.412  -0.522  1.00  0.00     0.167 HD
HETATM   16  C14 UNK     1      -3.465  -1.959   2.216  1.00  0.00     0.086 A 
HETATM   17  C17 UNK     1      -5.391  -1.716   0.716  1.00  0.00     0.032 A 
HETATM   18  N3  UNK     1      -2.134  -1.616   2.266  1.00  0.00    -0.228 NA
HETATM   19  C18 UNK     1      -4.253  -2.659   3.146  1.00  0.00     0.034 A 
HETATM   20  C20 UNK     1      -5.603  -2.878   2.847  1.00  0.00     0.002 A 
HETATM   21  C19 UNK     1      -6.161  -2.414   1.653  1.00  0.00     0.002 A 
ENDBRANCH   7  12
BRANCH   3  22
HETATM   22  N1  UNK     1       4.211   2.075  -2.698  1.00  0.00    -0.382 N 
BRANCH  22  23
HETATM   23  C3  UNK     1       4.453   2.156  -4.124  1.00  0.00     0.118 C 
HETATM   24  C15 UNK     1       3.865   3.438  -4.682  1.00  0.00     0.026 C 
ENDBRANCH  22  23
BRANCH  22  25
HETATM   25  C4  UNK     1       5.190   2.628  -1.783  1.00  0.00     0.118 C 
HETATM   26  C16 UNK     1       4.761   4.012  -1.333  1.00  0.00     0.026 C 
ENDBRANCH  22  25
ENDBRANCH   3  22
TORSDOF 4
