REMARK  4 active torsions:
REMARK  status: ('A' for Active; 'I' for Inactive)
REMARK    1  A    between atoms: C1_4  and  N1_3 
REMARK       I    between atoms: C9_12  and  N1_3 
REMARK    2  A    between atoms: C2_5  and  C7_10 
REMARK    3  A    between atoms: C8_11  and  C9_12 
REMARK    4  A    between atoms: C10_13  and  C11_14 
ROOT
HETATM    1  C1  UNK     1       1.931   1.134  -0.855  1.00  0.00     0.034 A 
HETATM    2  C2  UNK     1      -0.483  -0.004  -0.112  1.00  0.00    -0.036 A 
HETATM    3  C3  UNK     1       1.585   1.052   0.493  1.00  0.00     0.030 A 
HETATM    4  C4  UNK     1       1.062   0.643  -1.830  1.00  0.00     0.030 A 
HETATM    5  C5  UNK     1       0.369   0.479   0.867  1.00  0.00     0.013 A 
HETATM    6  C6  UNK     1      -0.153   0.070  -1.455  1.00  0.00     0.013 A 
ENDROOT
BRANCH   2   7
HETATM    7  C7  UNK     1      -1.767  -0.611   0.282  1.00  0.00     0.012 C 
HETATM    8  C11 UNK     1      -2.055  -1.096   1.513  1.00  0.00     0.012 C 
BRANCH   8   9
HETATM    9  C10 UNK     1      -3.329  -1.677   1.908  1.00  0.00    -0.036 A 
HETATM   10  C13 UNK     1      -4.480  -1.407   1.168  1.00  0.00     0.011 A 
HETATM   11  C15 UNK     1      -5.700  -1.966   1.547  1.00  0.00     0.001 A 
HETATM   12  C17 UNK     1      -5.769  -2.797   2.665  1.00  0.00     0.000 A 
HETATM   13  C16 UNK     1      -4.618  -3.068   3.405  1.00  0.00     0.001 A 
HETATM   14  C14 UNK     1      -3.398  -2.508   3.027  1.00  0.00     0.011 A 
ENDBRANCH   8   9
ENDBRANCH   2   7
BRANCH   1  15
HETATM   15  N1  UNK     1       3.148   1.705  -1.229  1.00  0.00    -0.326 N 
HETATM   16  C9  UNK     1       3.662   1.885  -2.524  1.00  0.00     0.236 C 
HETATM   17  O1  UNK     1       3.113   1.574  -3.577  1.00  0.00    -0.272 OA
HETATM   18  H5  UNK     1       3.724   2.036  -0.458  1.00  0.00     0.169 HD
BRANCH  16  19
HETATM   19  C8  UNK     1       5.029   2.550  -2.509  1.00  0.00     0.146 C 
HETATM   20 Br1  UNK     1       4.669   4.469  -2.431  1.00  0.00    -0.082 Br
HETATM   21  C12 UNK     1       5.847   2.251  -3.752  1.00  0.00     0.032 C 
ENDBRANCH  16  19
ENDBRANCH   1  15
TORSDOF 4
