REMARK  4 active torsions:
REMARK  status: ('A' for Active; 'I' for Inactive)
REMARK    1  A    between atoms: C3_6  and  O1_1 
REMARK    2  A    between atoms: C6_9  and  O2_2 
REMARK    3  A    between atoms: C1_4  and  C4_7 
REMARK    4  A    between atoms: C8_11  and  C9_12 
ROOT
HETATM    1  N1  UNK     1       1.693  -0.124   3.975  1.00  0.00    -0.191 NA
HETATM    2  C4  UNK     1       0.131  -0.203   1.911  1.00  0.00     0.055 C 
HETATM    3  C9  UNK     1      -1.053  -0.861   1.998  1.00  0.00     0.034 C 
HETATM    4  C15 UNK     1       0.992  -0.160   3.051  1.00  0.00     0.100 C 
ENDROOT
BRANCH   2   5
HETATM    5  C1  UNK     1       0.576   0.470   0.676  1.00  0.00    -0.013 A 
HETATM    6  C2  UNK     1       1.315  -0.241  -0.254  1.00  0.00     0.052 A 
HETATM    7  C3  UNK     1       1.736   0.396  -1.421  1.00  0.00     0.102 A 
HETATM    8  C6  UNK     1       1.413   1.735  -1.640  1.00  0.00     0.101 A 
HETATM    9  C7  UNK     1       0.668   2.437  -0.692  1.00  0.00     0.040 A 
HETATM   10  C5  UNK     1       0.247   1.800   0.475  1.00  0.00     0.016 A 
BRANCH   7  11
HETATM   11  O1  UNK     1       2.462  -0.300  -2.340  1.00  0.00    -0.353 OA
HETATM   12  C16 UNK     1       1.734  -0.985  -3.358  1.00  0.00     0.210 C 
ENDBRANCH   7  11
BRANCH   8  13
HETATM   13  O2  UNK     1       1.817   2.369  -2.777  1.00  0.00    -0.353 OA
HETATM   14  C17 UNK     1       3.083   3.024  -2.738  1.00  0.00     0.210 C 
ENDBRANCH   8  13
ENDBRANCH   2   5
BRANCH   3  15
HETATM   15  C8  UNK     1      -2.060  -0.990   0.956  1.00  0.00    -0.035 A 
HETATM   16  C10 UNK     1      -3.081  -0.045   0.852  1.00  0.00     0.011 A 
HETATM   17  C12 UNK     1      -4.046  -0.169  -0.147  1.00  0.00     0.001 A 
HETATM   18  C14 UNK     1      -3.990  -1.237  -1.043  1.00  0.00     0.000 A 
HETATM   19  C13 UNK     1      -2.969  -2.181  -0.939  1.00  0.00     0.001 A 
HETATM   20  C11 UNK     1      -2.004  -2.058   0.060  1.00  0.00     0.011 A 
ENDBRANCH   3  15
TORSDOF 4
