REMARK  3 active torsions:
REMARK  status: ('A' for Active; 'I' for Inactive)
REMARK    1  A    between atoms: C1_5  and  N1_4 
REMARK       I    between atoms: C9_13  and  N1_4 
REMARK    2  A    between atoms: C1_5  and  C2_6 
REMARK    3  A    between atoms: C10_14  and  C9_13 
ROOT
HETATM    1  O2  UNK     1      -2.049   0.148  -2.227  1.00  0.00    -0.267 OA
HETATM    2  N1  UNK     1       0.117   0.132  -1.367  1.00  0.00    -0.348 N 
HETATM    3  C9  UNK     1      -1.256  -0.022  -1.304  1.00  0.00     0.258 C 
HETATM    4  H3  UNK     1       0.683  -0.096  -0.555  1.00  0.00     0.163 HD
ENDROOT
BRANCH   3   5
HETATM    5  C10 UNK     1      -1.723  -0.432   0.026  1.00  0.00     0.108 A 
HETATM    6  C14 UNK     1      -2.834  -1.177   0.058  1.00  0.00     0.037 A 
HETATM    7  C13 UNK     1      -3.376  -1.632   1.330  1.00  0.00    -0.001 A 
HETATM    8  C15 UNK     1      -2.721  -1.278   2.505  1.00  0.00     0.089 A 
HETATM    9  C17 UNK     1      -4.532  -2.412   1.411  1.00  0.00     0.014 A 
HETATM   10  O1  UNK     1      -1.552  -0.493   2.464  1.00  0.00    -0.274 OA
HETATM   11  C18 UNK     1      -3.187  -1.680   3.755  1.00  0.00     0.038 A 
HETATM   12  C16 UNK     1      -1.010  -0.044   1.263  1.00  0.00     0.304 A 
HETATM   13  O3  UNK     1       0.008   0.639   1.238  1.00  0.00    -0.259 OA
HETATM   14  C20 UNK     1      -4.341  -2.458   3.827  1.00  0.00     0.003 A 
HETATM   15  C19 UNK     1      -5.012  -2.823   2.658  1.00  0.00     0.001 A 
ENDBRANCH   3   5
BRANCH   2  16
HETATM   16  C1  UNK     1       0.811   0.528  -2.572  1.00  0.00     0.114 C 
HETATM   17  C5  UNK     1       1.114  -0.699  -3.430  1.00  0.00     0.037 C 
BRANCH  16  18
HETATM   18  C2  UNK     1       2.051   1.337  -2.256  1.00  0.00    -0.035 A 
HETATM   19  C3  UNK     1       3.087   0.742  -1.558  1.00  0.00     0.016 A 
HETATM   20  C4  UNK     1       4.229   1.487  -1.267  1.00  0.00    -0.056 A 
HETATM   21  C11 UNK     1       5.345   0.841  -0.514  1.00  0.00     0.049 C 
HETATM   22  C7  UNK     1       4.317   2.817  -1.680  1.00  0.00    -0.056 A 
HETATM   23  C12 UNK     1       5.530   3.636  -1.381  1.00  0.00     0.049 C 
HETATM   24  C8  UNK     1       3.263   3.401  -2.382  1.00  0.00     0.008 A 
HETATM   25  C6  UNK     1       2.121   2.655  -2.673  1.00  0.00     0.010 A 
ENDBRANCH  16  18
ENDBRANCH   2  16
TORSDOF 3
