REMARK  4 active torsions:
REMARK  status: ('A' for Active; 'I' for Inactive)
REMARK    1  A    between atoms: C8_12  and  N1_4 
REMARK       I    between atoms: C9_13  and  N1_4 
REMARK    2  A    between atoms: C3_7  and  C6_10 
REMARK    3  A    between atoms: C6_10  and  C8_12 
REMARK    4  A    between atoms: C10_14  and  C9_13 
ROOT
HETATM    1  O2  UNK     1      -1.625   0.465  -2.575  1.00  0.00    -0.267 OA
HETATM    2  N1  UNK     1       0.551  -0.139  -1.994  1.00  0.00    -0.356 N 
HETATM    3  C9  UNK     1      -0.804   0.026  -1.771  1.00  0.00     0.257 C 
HETATM    4  H14 UNK     1       1.144  -0.533  -1.270  1.00  0.00     0.162 HD
ENDROOT
BRANCH   3   5
HETATM    5  C10 UNK     1      -1.216  -0.388  -0.424  1.00  0.00     0.108 A 
HETATM    6  C14 UNK     1      -0.304  -0.298   0.738  1.00  0.00     0.304 A 
HETATM    7  O1  UNK     1      -0.811  -0.720   1.964  1.00  0.00    -0.274 OA
HETATM    8  O3  UNK     1       0.841   0.128   0.633  1.00  0.00    -0.259 OA
HETATM    9  C13 UNK     1      -2.125  -1.210   2.096  1.00  0.00     0.089 A 
HETATM   10  C11 UNK     1      -2.965  -1.287   0.990  1.00  0.00    -0.001 A 
HETATM   11  C16 UNK     1      -2.542  -1.610   3.364  1.00  0.00     0.038 A 
HETATM   12  C12 UNK     1      -2.465  -0.853  -0.305  1.00  0.00     0.037 A 
HETATM   13  C15 UNK     1      -4.261  -1.779   1.162  1.00  0.00     0.014 A 
HETATM   14  C17 UNK     1      -4.694  -2.184   2.428  1.00  0.00     0.001 A 
HETATM   15  C18 UNK     1      -3.836  -2.099   3.527  1.00  0.00     0.003 A 
ENDBRANCH   3   5
BRANCH   2  16
HETATM   16  C8  UNK     1       1.190   0.197  -3.246  1.00  0.00     0.127 C 
BRANCH  16  17
HETATM   17  C6  UNK     1       1.686   1.639  -3.283  1.00  0.00     0.053 C 
BRANCH  17  18
HETATM   18  C3  UNK     1       2.670   1.949  -2.194  1.00  0.00    -0.082 C 
HETATM   19  C1  UNK     1       3.961   1.169  -2.223  1.00  0.00     0.034 C 
HETATM   20  C2  UNK     1       5.044   1.743  -1.306  1.00  0.00     0.005 C 
HETATM   21  C4  UNK     1       4.467   2.146   0.046  1.00  0.00     0.004 C 
HETATM   22  C5  UNK     1       3.355   3.182  -0.119  1.00  0.00     0.027 C 
HETATM   23  C7  UNK     1       2.416   2.868  -1.246  1.00  0.00    -0.024 C 
ENDBRANCH  17  18
ENDBRANCH  16  17
ENDBRANCH   2  16
TORSDOF 4
