REMARK  1 active torsions:
REMARK  status: ('A' for Active; 'I' for Inactive)
REMARK    1  A    between atoms: C8_11  and  O2_2 
ROOT
HETATM    1  O1  UNK     1      -1.741  -0.581  -0.758  1.00  0.00    -0.314 OA
HETATM    2  O3  UNK     1       0.568   0.120   2.525  1.00  0.00    -0.287 OA
HETATM    3  C1  UNK     1       0.329   0.278   0.179  1.00  0.00     0.051 A 
HETATM    4  C2  UNK     1      -0.511   0.010  -0.901  1.00  0.00     0.090 A 
HETATM    5  C3  UNK     1      -0.117  -0.086   1.533  1.00  0.00     0.187 A 
HETATM    6  C4  UNK     1      -2.164  -0.924   0.516  1.00  0.00     0.053 A 
HETATM    7  C5  UNK     1       1.572   0.882  -0.026  1.00  0.00     0.054 A 
HETATM    8  C6  UNK     1      -0.112   0.345  -2.195  1.00  0.00     0.041 A 
HETATM    9  C7  UNK     1      -1.447  -0.717   1.631  1.00  0.00     0.088 A 
HETATM   10  C8  UNK     1       1.968   1.216  -1.322  1.00  0.00     0.066 A 
HETATM   11  C9  UNK     1       1.129   0.949  -2.404  1.00  0.00     0.039 A 
HETATM   12  C10 UNK     1      -3.518  -1.559   0.545  1.00  0.00     0.077 C 
ENDROOT
BRANCH  10  13
HETATM   13  O2  UNK     1       3.177   1.806  -1.531  1.00  0.00    -0.361 OA
HETATM   14  H8  UNK     1       3.627   1.918  -0.676  1.00  0.00     0.217 HD
ENDBRANCH  10  13
TORSDOF 1
