REMARK  4 active torsions:
REMARK  status: ('A' for Active; 'I' for Inactive)
REMARK    1  A    between atoms: C1_6  and  N1_4 
REMARK    2  A    between atoms: C2_7  and  N1_4 
REMARK    3  A    between atoms: C3_8  and  N1_4 
REMARK    4  A    between atoms: C10_15  and  C13_18 
ROOT
HETATM    1  O1  UNK     1       1.291   0.801   0.974  1.00  0.00    -0.274 OA
HETATM    2  O3  UNK     1       0.049  -0.090   2.668  1.00  0.00    -0.259 OA
HETATM    3  C1  UNK     1       2.813   1.998  -2.148  1.00  0.00     0.032 A 
HETATM    4  C4  UNK     1       0.483   0.685  -1.314  1.00  0.00    -0.001 A 
HETATM    5  C5  UNK     1       1.456   1.068  -0.399  1.00  0.00     0.091 A 
HETATM    6  C6  UNK     1       2.621   1.722  -0.796  1.00  0.00     0.067 A 
HETATM    7  C7  UNK     1       1.847   1.621  -3.082  1.00  0.00     0.030 A 
HETATM    8  C8  UNK     1       0.683   0.966  -2.668  1.00  0.00     0.016 A 
HETATM    9  C9  UNK     1      -0.710   0.009  -0.830  1.00  0.00     0.036 A 
HETATM   10  C10 UNK     1      -0.870  -0.248   0.477  1.00  0.00     0.093 A 
HETATM   11  C14 UNK     1       0.166   0.147   1.470  1.00  0.00     0.303 A 
ENDROOT
BRANCH  10  12
HETATM   12  C13 UNK     1      -2.059  -0.908   0.919  1.00  0.00     0.187 A 
HETATM   13  O2  UNK     1      -2.254  -1.186   2.245  1.00  0.00    -0.289 OA
HETATM   14  C15 UNK     1      -3.471  -1.806   2.277  1.00  0.00     0.106 A 
HETATM   15  C16 UNK     1      -3.948  -1.871   0.976  1.00  0.00     0.093 A 
HETATM   16  C17 UNK     1      -4.141  -2.296   3.391  1.00  0.00     0.040 A 
HETATM   17  C18 UNK     1      -5.194  -2.469   0.740  1.00  0.00     0.034 A 
HETATM   18  N2  UNK     1      -3.039  -1.295   0.121  1.00  0.00    -0.221 NA
HETATM   19  C20 UNK     1      -5.900  -2.976   1.841  1.00  0.00     0.002 A 
HETATM   20  C19 UNK     1      -5.382  -2.890   3.139  1.00  0.00     0.003 A 
ENDBRANCH  10  12
BRANCH   3  21
HETATM   21  N1  UNK     1       3.984   2.658  -2.573  1.00  0.00    -0.382 N 
BRANCH  21  22
HETATM   22  C2  UNK     1       4.194   2.949  -3.978  1.00  0.00     0.118 C 
HETATM   23  C11 UNK     1       4.725   1.733  -4.717  1.00  0.00     0.026 C 
ENDBRANCH  21  22
BRANCH  21  24
HETATM   24  C3  UNK     1       4.988   3.067  -1.611  1.00  0.00     0.118 C 
HETATM   25  C12 UNK     1       5.999   1.959  -1.368  1.00  0.00     0.026 C 
ENDBRANCH  21  24
ENDBRANCH   3  21
TORSDOF 4
