REMARK  3 active torsions:
REMARK  status: ('A' for Active; 'I' for Inactive)
REMARK    1  A    between atoms: C10_15  and  O2_2 
REMARK    2  A    between atoms: C5_10  and  N1_5 
REMARK       I    between atoms: C6_11  and  N1_5 
REMARK    3  A    between atoms: C2_7  and  C6_11 
ROOT
HETATM    1  O3  UNK     1       0.179   0.716   2.065  1.00  0.00    -0.267 OA
HETATM    2  N1  UNK     1      -1.145  -0.502   0.545  1.00  0.00    -0.320 N 
HETATM    3  C6  UNK     1      -0.105   0.332   0.931  1.00  0.00     0.262 C 
HETATM    4  H3  UNK     1      -1.231  -0.747  -0.438  1.00  0.00     0.169 HD
ENDROOT
BRANCH   3   5
HETATM    5  C2  UNK     1       0.710   0.766  -0.210  1.00  0.00     0.108 A 
HETATM    6  C4  UNK     1       2.000   1.013   0.045  1.00  0.00     0.037 A 
HETATM    7  C1  UNK     1       2.888   1.448  -1.022  1.00  0.00    -0.001 A 
HETATM    8  C3  UNK     1       2.373   1.602  -2.305  1.00  0.00     0.089 A 
HETATM    9  C7  UNK     1       4.241   1.716  -0.802  1.00  0.00     0.014 A 
HETATM   10  O1  UNK     1       1.014   1.340  -2.567  1.00  0.00    -0.274 OA
HETATM   11  C9  UNK     1       3.170   2.016  -3.371  1.00  0.00     0.038 A 
HETATM   12  C8  UNK     1       0.141   0.923  -1.567  1.00  0.00     0.304 A 
HETATM   13  O4  UNK     1      -1.041   0.698  -1.804  1.00  0.00    -0.259 OA
HETATM   14  C13 UNK     1       4.518   2.282  -3.142  1.00  0.00     0.003 A 
HETATM   15  C11 UNK     1       5.053   2.132  -1.861  1.00  0.00     0.001 A 
ENDBRANCH   3   5
BRANCH   2  16
HETATM   16  C5  UNK     1      -2.122  -1.106   1.374  1.00  0.00     0.068 A 
HETATM   17  C10 UNK     1      -3.096  -1.917   0.817  1.00  0.00     0.095 A 
HETATM   18  C14 UNK     1      -4.052  -2.505   1.647  1.00  0.00     0.039 A 
HETATM   19  C16 UNK     1      -4.020  -2.272   3.022  1.00  0.00     0.003 A 
HETATM   20  C15 UNK     1      -3.032  -1.452   3.567  1.00  0.00     0.002 A 
HETATM   21  C12 UNK     1      -2.076  -0.865   2.738  1.00  0.00     0.032 A 
BRANCH  17  22
HETATM   22  O2  UNK     1      -3.146  -2.158  -0.524  1.00  0.00    -0.354 OA
HETATM   23  C17 UNK     1      -3.924  -1.262  -1.314  1.00  0.00     0.210 C 
ENDBRANCH  17  22
ENDBRANCH   2  16
TORSDOF 3
