REMARK  3 active torsions:
REMARK  status: ('A' for Active; 'I' for Inactive)
REMARK    1  A    between atoms: C11_16  and  O3_3 
REMARK    2  A    between atoms: C1_6  and  N1_5 
REMARK       I    between atoms: C5_10  and  N1_5 
REMARK    3  A    between atoms: C5_10  and  C6_11 
ROOT
HETATM    1  O1  UNK     1       0.241   0.861  -1.757  1.00  0.00    -0.271 OA
HETATM    2  O4  UNK     1      -1.888   0.087  -1.465  1.00  0.00    -0.259 OA
HETATM    3  C6  UNK     1      -0.488   0.090   0.446  1.00  0.00     0.108 A 
HETATM    4  C7  UNK     1       1.770   0.910   0.133  1.00  0.00     0.002 A 
HETATM    5  C8  UNK     1       0.714   0.361   0.969  1.00  0.00     0.037 A 
HETATM    6  C9  UNK     1       1.508   1.148  -1.213  1.00  0.00     0.123 A 
HETATM    7  C10 UNK     1      -0.789   0.334  -0.982  1.00  0.00     0.304 A 
HETATM    8  C11 UNK     1       2.476   1.672  -2.067  1.00  0.00     0.102 A 
HETATM    9  C12 UNK     1       3.040   1.207   0.635  1.00  0.00     0.014 A 
HETATM   10  C13 UNK     1       3.739   1.966  -1.558  1.00  0.00     0.040 A 
HETATM   11  C14 UNK     1       4.021   1.734  -0.210  1.00  0.00     0.004 A 
ENDROOT
BRANCH   3  12
HETATM   12  C5  UNK     1      -1.487  -0.461   1.370  1.00  0.00     0.258 C 
HETATM   13  O2  UNK     1      -1.428  -0.143   2.556  1.00  0.00    -0.267 OA
HETATM   14  N1  UNK     1      -2.404  -1.302   0.766  1.00  0.00    -0.349 N 
HETATM   15  H1  UNK     1      -2.313  -1.503  -0.225  1.00  0.00     0.163 HD
BRANCH  14  16
HETATM   16  C1  UNK     1      -3.477  -1.958   1.477  1.00  0.00     0.022 C 
HETATM   17  C2  UNK     1      -4.383  -0.899   2.117  1.00  0.00     0.037 C 
HETATM   18  C3  UNK     1      -4.293  -2.805   0.494  1.00  0.00     0.037 C 
HETATM   19  C4  UNK     1      -2.881  -2.857   2.565  1.00  0.00     0.037 C 
ENDBRANCH  14  16
ENDBRANCH   3  12
BRANCH   8  20
HETATM   20  O3  UNK     1       2.206   1.901  -3.380  1.00  0.00    -0.353 OA
HETATM   21  C15 UNK     1       2.465   0.833  -4.293  1.00  0.00     0.210 C 
ENDBRANCH   8  20
TORSDOF 3
