REMARK  5 active torsions:
REMARK  status: ('A' for Active; 'I' for Inactive)
REMARK    1  A    between atoms: C1_9  and  S1_1 
REMARK    2  A    between atoms: N1_7  and  S1_1 
REMARK    3  A    between atoms: C2_10  and  N1_7 
REMARK       I    between atoms: C17_25  and  N2_8 
REMARK    4  A    between atoms: C3_11  and  N2_8 
REMARK    5  A    between atoms: C10_18  and  C17_25 
ROOT
HETATM    1  C2  UNK     1      -1.295  -1.737   2.486  1.00  0.00     0.042 A 
HETATM    2  C3  UNK     1       0.386  -0.532   0.645  1.00  0.00     0.035 A 
HETATM    3  C6  UNK     1      -0.950  -0.394   2.632  1.00  0.00     0.032 A 
HETATM    4  C7  UNK     1      -0.794  -2.474   1.413  1.00  0.00     0.032 A 
HETATM    5  C11 UNK     1      -0.103   0.213   1.704  1.00  0.00     0.032 A 
HETATM    6  C12 UNK     1       0.053  -1.867   0.485  1.00  0.00     0.032 A 
ENDROOT
BRANCH   2   7
HETATM    7  N2  UNK     1       1.246   0.084  -0.296  1.00  0.00    -0.323 N 
HETATM    8  C17 UNK     1       1.690   1.399  -0.303  1.00  0.00     0.262 C 
HETATM    9  O4  UNK     1       1.428   2.293   0.500  1.00  0.00    -0.267 OA
HETATM   10  H11 UNK     1       1.575  -0.542  -1.027  1.00  0.00     0.169 HD
BRANCH   8  11
HETATM   11  C10 UNK     1       2.576   1.678  -1.440  1.00  0.00     0.108 A 
HETATM   12  C16 UNK     1       3.510   2.616  -1.244  1.00  0.00     0.037 A 
HETATM   13  C8  UNK     1       4.435   2.963  -2.312  1.00  0.00    -0.001 A 
HETATM   14  C15 UNK     1       4.330   2.305  -3.534  1.00  0.00     0.089 A 
HETATM   15  C18 UNK     1       5.426   3.934  -2.153  1.00  0.00     0.014 A 
HETATM   16  O1  UNK     1       3.344   1.319  -3.733  1.00  0.00    -0.274 OA
HETATM   17  C20 UNK     1       5.185   2.591  -4.597  1.00  0.00     0.038 A 
HETATM   18  C19 UNK     1       2.445   0.966  -2.730  1.00  0.00     0.304 A 
HETATM   19  O5  UNK     1       1.590   0.107  -2.914  1.00  0.00    -0.259 OA
HETATM   20  C23 UNK     1       6.170   3.561  -4.429  1.00  0.00     0.003 A 
HETATM   21  C22 UNK     1       6.291   4.232  -3.210  1.00  0.00     0.001 A 
ENDBRANCH   8  11
ENDBRANCH   2   7
BRANCH   1  22
HETATM   22  N1  UNK     1      -2.162  -2.359   3.435  1.00  0.00    -0.281 N 
HETATM   23  H1  UNK     1      -2.075  -3.382   3.495  1.00  0.00     0.179 HD
BRANCH  22  24
HETATM   24  S1  UNK     1      -3.750  -1.726   3.648  1.00  0.00     0.263 S 
HETATM   25  O2  UNK     1      -4.547  -2.688   4.387  1.00  0.00    -0.200 OA
HETATM   26  O3  UNK     1      -3.680  -0.350   4.100  1.00  0.00    -0.200 OA
BRANCH  24  27
HETATM   27  C1  UNK     1      -4.365  -1.719   1.988  1.00  0.00     0.079 A 
HETATM   28  C4  UNK     1      -5.024  -2.836   1.510  1.00  0.00     0.026 A 
HETATM   29  C13 UNK     1      -5.509  -2.831   0.202  1.00  0.00     0.008 A 
HETATM   30  C9  UNK     1      -5.325  -1.709  -0.605  1.00  0.00    -0.062 A 
HETATM   31  C14 UNK     1      -4.657  -0.591  -0.104  1.00  0.00     0.008 A 
HETATM   32  C21 UNK     1      -5.843  -1.703  -2.004  1.00  0.00     0.048 C 
HETATM   33  C5  UNK     1      -4.173  -0.596   1.204  1.00  0.00     0.026 A 
ENDBRANCH  24  27
ENDBRANCH  22  24
ENDBRANCH   1  22
TORSDOF 5
