REMARK  2 active torsions:
REMARK  status: ('A' for Active; 'I' for Inactive)
REMARK    1  A    between atoms: C16_22  and  N1_5 
REMARK    2  A    between atoms: C11_17  and  C4_10 
ROOT
HETATM    1  O1  UNK     1       0.506   1.533  -3.348  1.00  0.00    -0.332 OA
HETATM    2  O2  UNK     1       1.650   0.259   1.208  1.00  0.00    -0.274 OA
HETATM    3  O3  UNK     1      -1.642  -1.236  -2.481  1.00  0.00    -0.289 OA
HETATM    4  O4  UNK     1       2.282  -0.353   3.323  1.00  0.00    -0.260 OA
HETATM    5  C1  UNK     1      -0.108   0.267  -3.599  1.00  0.00     0.125 C 
HETATM    6  C2  UNK     1       0.959   0.908  -1.035  1.00  0.00     0.048 A 
HETATM    7  C3  UNK     1      -0.769  -0.378  -2.377  1.00  0.00     0.196 C 
HETATM    8  C4  UNK     1      -0.256   0.078  -1.050  1.00  0.00     0.044 C 
HETATM    9  C5  UNK     1       1.260   1.618  -2.206  1.00  0.00     0.084 A 
HETATM   10  C6  UNK     1      -1.191   0.543  -4.651  1.00  0.00     0.055 C 
HETATM   11  C7  UNK     1       0.928  -0.701  -4.184  1.00  0.00     0.055 C 
HETATM   12  C8  UNK     1       1.852   1.039   0.043  1.00  0.00     0.103 A 
HETATM   13  C9  UNK     1       2.959   1.892  -0.008  1.00  0.00    -0.001 A 
HETATM   14  C10 UNK     1       2.349   2.494  -2.263  1.00  0.00     0.039 A 
HETATM   15  C12 UNK     1       3.196   2.633  -1.165  1.00  0.00     0.017 A 
HETATM   16  C13 UNK     1       3.842   1.989   1.144  1.00  0.00     0.020 A 
HETATM   17  C14 UNK     1       3.617   1.256   2.236  1.00  0.00     0.083 A 
HETATM   18  C15 UNK     1       2.480   0.325   2.321  1.00  0.00     0.288 A 
ENDROOT
BRANCH   8  19
HETATM   19  C11 UNK     1      -1.014  -0.207   0.020  1.00  0.00     0.104 C 
HETATM   20  N1  UNK     1      -2.136  -0.962   0.062  1.00  0.00    -0.365 N 
HETATM   21  H11 UNK     1      -2.448  -1.366  -0.814  1.00  0.00     0.165 HD
BRANCH  20  22
HETATM   22  C16 UNK     1      -2.947  -1.275   1.169  1.00  0.00     0.034 A 
HETATM   23  C17 UNK     1      -4.073  -2.075   1.006  1.00  0.00     0.048 A 
HETATM   24  C19 UNK     1      -4.839  -2.355   2.127  1.00  0.00     0.118 A 
HETATM   25  N2  UNK     1      -4.559  -1.898   3.368  1.00  0.00    -0.273 NA
HETATM   26  C20 UNK     1      -3.457  -1.124   3.488  1.00  0.00     0.118 A 
HETATM   27  C18 UNK     1      -2.627  -0.786   2.432  1.00  0.00     0.048 A 
ENDBRANCH  20  22
ENDBRANCH   8  19
TORSDOF 2
