REMARK  3 active torsions:
REMARK  status: ('A' for Active; 'I' for Inactive)
REMARK    1  A    between atoms: C7_11  and  N1_3 
REMARK    2  A    between atoms: C1_5  and  C3_7 
REMARK    3  A    between atoms: C2_6  and  C4_8 
ROOT
HETATM    1  N2  UNK     1      -2.422  -1.443   3.944  1.00  0.00    -0.191 NA
HETATM    2  C3  UNK     1      -0.014  -0.040   1.887  1.00  0.00     0.034 C 
HETATM    3  C4  UNK     1      -1.235  -0.627   1.792  1.00  0.00     0.055 C 
HETATM    4  C15 UNK     1      -1.889  -1.077   2.980  1.00  0.00     0.100 C 
ENDROOT
BRANCH   3   5
HETATM    5  C2  UNK     1      -1.926  -0.815   0.502  1.00  0.00    -0.015 A 
HETATM    6  C10 UNK     1      -2.766   0.180   0.033  1.00  0.00     0.013 A 
HETATM    7  C12 UNK     1      -3.419   0.002  -1.187  1.00  0.00     0.001 A 
HETATM    8  C14 UNK     1      -3.223  -1.169  -1.919  1.00  0.00     0.000 A 
HETATM    9  C13 UNK     1      -2.373  -2.162  -1.431  1.00  0.00     0.001 A 
HETATM   10  C11 UNK     1      -1.720  -1.984  -0.212  1.00  0.00     0.013 A 
ENDBRANCH   3   5
BRANCH   2  11
HETATM   11  C1  UNK     1       0.805   0.455   0.792  1.00  0.00    -0.035 A 
HETATM   12  C5  UNK     1       1.732  -0.386   0.177  1.00  0.00     0.014 A 
HETATM   13  C8  UNK     1       2.516   0.090  -0.874  1.00  0.00     0.037 A 
HETATM   14  C7  UNK     1       2.371   1.407  -1.311  1.00  0.00     0.102 A 
HETATM   15  C9  UNK     1       1.444   2.248  -0.696  1.00  0.00     0.037 A 
HETATM   16  C6  UNK     1       0.661   1.772   0.355  1.00  0.00     0.014 A 
BRANCH  14  17
HETATM   17  N1  UNK     1       3.169   1.892  -2.381  1.00  0.00    -0.116 N 
HETATM   18  O1  UNK     1       3.998   1.120  -2.920  1.00  0.00    -0.532 OA
HETATM   19  O2  UNK     1       3.023   3.080  -2.758  1.00  0.00    -0.532 OA
ENDBRANCH  14  17
ENDBRANCH   2  11
TORSDOF 3
