REMARK  6 active torsions:
REMARK  status: ('A' for Active; 'I' for Inactive)
REMARK    1  A    between atoms: C16_24  and  O2_2 
REMARK    2  A    between atoms: C23_31  and  O2_2 
REMARK    3  A    between atoms: C5_13  and  N1_7 
REMARK    4  A    between atoms: C19_27  and  N2_8 
REMARK    5  A    between atoms: C1_9  and  C2_10 
REMARK    6  A    between atoms: C11_19  and  C14_22 
ROOT
HETATM    1  C2  UNK     1       2.168   1.030  -1.487  1.00  0.00    -0.020 A 
HETATM    2  C5  UNK     1      -0.125  -0.136  -0.411  1.00  0.00     0.031 A 
HETATM    3  C7  UNK     1       1.216   0.460  -2.331  1.00  0.00     0.014 A 
HETATM    4  C8  UNK     1       1.976   1.018  -0.106  1.00  0.00     0.014 A 
HETATM    5  C9  UNK     1       0.068  -0.123  -1.793  1.00  0.00     0.030 A 
HETATM    6  C10 UNK     1       0.828   0.435   0.432  1.00  0.00     0.030 A 
ENDROOT
BRANCH   2   7
HETATM    7  N1  UNK     1      -1.285  -0.725   0.133  1.00  0.00    -0.365 N 
HETATM    8  C14 UNK     1      -1.647  -0.835   1.430  1.00  0.00     0.104 C 
HETATM    9  H6  UNK     1      -1.923  -1.114  -0.553  1.00  0.00     0.165 HD
BRANCH   8  10
HETATM   10  C11 UNK     1      -2.751  -1.397   1.929  1.00  0.00     0.035 A 
HETATM   11  C15 UNK     1      -3.744  -1.995   0.970  1.00  0.00     0.216 A 
HETATM   12  O4  UNK     1      -3.584  -1.991  -0.246  1.00  0.00    -0.284 OA
HETATM   13  C16 UNK     1      -4.966  -2.614   1.579  1.00  0.00     0.122 A 
HETATM   14  C20 UNK     1      -5.130  -2.615   2.910  1.00  0.00     0.077 A 
HETATM   15  C19 UNK     1      -4.150  -2.030   3.778  1.00  0.00     0.106 A 
HETATM   16  C18 UNK     1      -3.023  -1.450   3.353  1.00  0.00     0.053 A 
BRANCH  13  17
HETATM   17  O2  UNK     1      -5.883  -3.165   0.711  1.00  0.00    -0.347 OA
BRANCH  17  18
HETATM   18  C23 UNK     1      -6.844  -2.204   0.318  1.00  0.00     0.171 C 
HETATM   19  C24 UNK     1      -7.820  -2.848  -0.645  1.00  0.00     0.034 C 
ENDBRANCH  17  18
ENDBRANCH  13  17
BRANCH  15  20
HETATM   20  N2  UNK     1      -4.347  -2.045   5.186  1.00  0.00    -0.116 N 
HETATM   21  O5  UNK     1      -3.335  -2.080   5.901  1.00  0.00    -0.532 OA
HETATM   22  O6  UNK     1      -5.515  -2.022   5.596  1.00  0.00    -0.532 OA
ENDBRANCH  15  20
ENDBRANCH   8  10
ENDBRANCH   2   7
BRANCH   1  23
HETATM   23  C1  UNK     1       3.382   1.646  -2.056  1.00  0.00     0.051 A 
HETATM   24  C4  UNK     1       3.361   2.949  -2.375  1.00  0.00     0.032 A 
HETATM   25  C3  UNK     1       4.527   3.598  -2.953  1.00  0.00    -0.001 A 
HETATM   26  C13 UNK     1       4.536   4.954  -3.288  1.00  0.00     0.014 A 
HETATM   27  C6  UNK     1       5.670   2.843  -3.183  1.00  0.00     0.089 A 
HETATM   28  C21 UNK     1       5.682   5.530  -3.844  1.00  0.00     0.001 A 
HETATM   29  C22 UNK     1       6.822   4.755  -4.068  1.00  0.00     0.003 A 
HETATM   30  C17 UNK     1       6.820   3.402  -3.737  1.00  0.00     0.038 A 
HETATM   31  O1  UNK     1       5.698   1.474  -2.857  1.00  0.00    -0.274 OA
HETATM   32  C12 UNK     1       4.603   0.827  -2.289  1.00  0.00     0.299 A 
HETATM   33  O3  UNK     1       4.656  -0.362  -1.993  1.00  0.00    -0.259 OA
ENDBRANCH   1  23
TORSDOF 6
