REMARK  2 active torsions:
REMARK  status: ('A' for Active; 'I' for Inactive)
REMARK    1  A    between atoms: C7_12  and  O2_4 
REMARK    2  A    between atoms: C10_15  and  C5_10 
ROOT
HETATM    1  O1  UNK     1       1.443   0.569   0.283  1.00  0.00    -0.308 OA
HETATM    2  O3  UNK     1      -1.122   0.089  -2.847  1.00  0.00    -0.287 OA
HETATM    3  C1  UNK     1      -0.734  -0.144  -0.527  1.00  0.00     0.051 A 
HETATM    4  C2  UNK     1       0.192   0.047   0.497  1.00  0.00     0.090 A 
HETATM    5  C3  UNK     1      -1.994  -0.680  -0.250  1.00  0.00     0.055 A 
HETATM    6  C4  UNK     1      -0.360   0.229  -1.900  1.00  0.00     0.187 A 
HETATM    7  C5  UNK     1       1.797   0.922  -1.010  1.00  0.00     0.121 A 
HETATM    8  C6  UNK     1      -0.138  -0.298   1.808  1.00  0.00     0.041 A 
HETATM    9  C7  UNK     1      -2.320  -1.024   1.062  1.00  0.00     0.069 A 
HETATM   10  C8  UNK     1       0.995   0.786  -2.076  1.00  0.00     0.094 A 
HETATM   11  C9  UNK     1      -1.395  -0.834   2.089  1.00  0.00     0.039 A 
ENDROOT
BRANCH   7  12
HETATM   12  C10 UNK     1       3.181   1.479  -1.119  1.00  0.00     0.410 C 
HETATM   13  F1  UNK     1       3.453   1.820  -2.400  1.00  0.00    -0.207 F 
HETATM   14  F2  UNK     1       3.296   2.604  -0.376  1.00  0.00    -0.207 F 
ENDBRANCH   7  12
BRANCH   9  15
HETATM   15  O2  UNK     1      -3.546  -1.547   1.342  1.00  0.00    -0.356 OA
HETATM   16  C11 UNK     1      -3.816  -1.875   2.704  1.00  0.00     0.210 C 
ENDBRANCH   9  15
TORSDOF 2
