REMARK  4 active torsions:
REMARK  status: ('A' for Active; 'I' for Inactive)
REMARK    1  A    between atoms: C18_25  and  O3_3 
REMARK    2  A    between atoms: C21_28  and  O5_5 
REMARK    3  A    between atoms: C1_8  and  C8_15 
REMARK    4  A    between atoms: C6_13  and  C9_16 
ROOT
HETATM    1  O1  UNK     1      -1.922   2.721  -0.678  1.00  0.00    -0.293 OA
HETATM    2  N1  UNK     1       1.281  -0.449   1.032  1.00  0.00    -0.357 N 
HETATM    3  N2  UNK     1       1.860   2.475   0.650  1.00  0.00    -0.375 N 
HETATM    4  C1  UNK     1      -2.403  -0.113   1.486  1.00  0.00     0.031 C 
HETATM    5  C2  UNK     1      -1.089  -0.848   1.208  1.00  0.00     0.067 C 
HETATM    6  C3  UNK     1      -0.229   1.266   0.173  1.00  0.00     0.037 C 
HETATM    7  C4  UNK     1      -2.777   0.718   0.267  1.00  0.00     0.093 C 
HETATM    8  C5  UNK     1       0.033   0.082   0.770  1.00  0.00     0.022 C 
HETATM    9  C6  UNK     1       0.826   2.215  -0.337  1.00  0.00     0.160 C 
HETATM   10  C7  UNK     1      -1.659   1.665  -0.102  1.00  0.00     0.160 C 
HETATM   11  C10 UNK     1       2.537   0.164   1.211  1.00  0.00     0.059 A 
HETATM   12  C11 UNK     1       2.785   1.543   1.097  1.00  0.00     0.055 A 
HETATM   13  C16 UNK     1       3.603  -0.685   1.591  1.00  0.00     0.032 A 
HETATM   14  C17 UNK     1       4.076   2.023   1.414  1.00  0.00     0.031 A 
HETATM   15  C22 UNK     1       4.873  -0.191   1.880  1.00  0.00     0.002 A 
HETATM   16  C23 UNK     1       5.109   1.171   1.801  1.00  0.00     0.002 A 
HETATM   17  H7  UNK     1       1.274  -1.444   1.239  1.00  0.00     0.166 HD
HETATM   18  H8  UNK     1       2.108   3.451   0.785  1.00  0.00     0.160 HD
ENDROOT
BRANCH   9  19
HETATM   19  C9  UNK     1       1.427   1.778  -1.641  1.00  0.00     0.042 A 
HETATM   20  C14 UNK     1       2.473   2.631  -2.261  1.00  0.00     0.195 A 
HETATM   21  O4  UNK     1       2.856   3.671  -1.742  1.00  0.00    -0.287 OA
HETATM   22  C20 UNK     1       3.028   2.157  -3.542  1.00  0.00     0.048 A 
HETATM   23  C24 UNK     1       2.552   0.963  -4.087  1.00  0.00     0.089 A 
HETATM   24  C25 UNK     1       4.016   2.888  -4.205  1.00  0.00     0.018 A 
HETATM   25  O2  UNK     1       1.583   0.205  -3.480  1.00  0.00    -0.321 OA
HETATM   26  C26 UNK     1       3.063   0.496  -5.298  1.00  0.00     0.038 A 
HETATM   27  C15 UNK     1       1.075   0.659  -2.288  1.00  0.00     0.156 A 
HETATM   28  C28 UNK     1       4.051   1.225  -5.962  1.00  0.00     0.003 A 
HETATM   29  C27 UNK     1       4.526   2.418  -5.416  1.00  0.00     0.001 A 
ENDBRANCH   9  19
BRANCH   4  30
HETATM   30  C8  UNK     1      -3.514  -1.060   1.898  1.00  0.00    -0.050 A 
HETATM   31  C12 UNK     1      -3.945  -2.049   1.017  1.00  0.00     0.047 A 
HETATM   32  C18 UNK     1      -4.967  -2.920   1.395  1.00  0.00     0.102 A 
HETATM   33  C21 UNK     1      -5.555  -2.800   2.654  1.00  0.00     0.101 A 
HETATM   34  C19 UNK     1      -5.121  -1.809   3.535  1.00  0.00     0.040 A 
HETATM   35  C13 UNK     1      -4.099  -0.938   3.156  1.00  0.00     0.010 A 
BRANCH  32  36
HETATM   36  O3  UNK     1      -5.381  -3.884   0.527  1.00  0.00    -0.353 OA
HETATM   37  C29 UNK     1      -4.728  -3.940  -0.740  1.00  0.00     0.210 C 
ENDBRANCH  32  36
BRANCH  33  38
HETATM   38  O5  UNK     1      -6.552  -3.645   3.036  1.00  0.00    -0.353 OA
HETATM   39  C30 UNK     1      -6.165  -4.849   3.696  1.00  0.00     0.210 C 
ENDBRANCH  33  38
ENDBRANCH   4  30
TORSDOF 4
