REMARK  2 active torsions:
REMARK  status: ('A' for Active; 'I' for Inactive)
REMARK    1  A    between atoms: N1_6  and  O4_4 
REMARK    2  A    between atoms: C11_17  and  C2_8 
ROOT
HETATM    1  O1  UNK     1       2.642   0.871   0.077  1.00  0.00    -0.333 OA
HETATM    2  O2  UNK     1      -2.066  -0.327   0.192  1.00  0.00    -0.274 OA
HETATM    3  O3  UNK     1       1.527   1.326  -3.210  1.00  0.00    -0.293 OA
HETATM    4  O5  UNK     1      -4.288  -0.863   0.325  1.00  0.00    -0.260 OA
HETATM    5  C1  UNK     1       2.416   1.774  -1.005  1.00  0.00     0.121 C 
HETATM    6  C2  UNK     1       0.109   0.657  -1.400  1.00  0.00     0.140 C 
HETATM    7  C3  UNK     1       0.286   0.239   0.039  1.00  0.00     0.027 A 
HETATM    8  C4  UNK     1       1.379   1.235  -1.990  1.00  0.00     0.174 C 
HETATM    9  C5  UNK     1       1.528   0.345   0.672  1.00  0.00     0.080 A 
HETATM   10  C6  UNK     1       3.772   1.914  -1.709  1.00  0.00     0.055 C 
HETATM   11  C7  UNK     1       1.983   3.147  -0.479  1.00  0.00     0.055 C 
HETATM   12  C8  UNK     1      -0.786  -0.266   0.797  1.00  0.00     0.100 A 
HETATM   13  C9  UNK     1      -0.632  -0.699   2.114  1.00  0.00    -0.001 A 
HETATM   14  C10 UNK     1       1.703  -0.105   1.987  1.00  0.00     0.038 A 
HETATM   15  C12 UNK     1       0.627  -0.626   2.706  1.00  0.00     0.017 A 
HETATM   16  C13 UNK     1      -1.786  -1.217   2.832  1.00  0.00     0.020 A 
HETATM   17  C14 UNK     1      -2.982  -1.271   2.242  1.00  0.00     0.083 A 
HETATM   18  C15 UNK     1      -3.185  -0.814   0.857  1.00  0.00     0.288 A 
ENDROOT
BRANCH   6  19
HETATM   19  C11 UNK     1      -0.391  -0.487  -2.235  1.00  0.00     0.136 C 
HETATM   20  N1  UNK     1      -1.527  -0.414  -2.843  1.00  0.00    -0.152 NA
BRANCH  20  21
HETATM   21  O4  UNK     1      -1.735  -1.609  -3.538  1.00  0.00    -0.267 OA
HETATM   22  H13 UNK     1      -2.601  -1.447  -3.948  1.00  0.00     0.247 HD
ENDBRANCH  20  21
ENDBRANCH   6  19
TORSDOF 2
