REMARK  3 active torsions:
REMARK  status: ('A' for Active; 'I' for Inactive)
REMARK    1  A    between atoms: C11_15  and  O2_3 
REMARK    2  A    between atoms: C13_17  and  O2_3 
REMARK    3  A    between atoms: C13_17  and  C14_18 
ROOT
HETATM    1  O1  UNK     1       2.650   1.357   0.230  1.00  0.00    -0.274 OA
HETATM    2  O3  UNK     1       4.734   2.309   0.380  1.00  0.00    -0.259 OA
HETATM    3  C1  UNK     1       2.984   2.046  -3.972  1.00  0.00     0.040 C 
HETATM    4  C2  UNK     1       2.744   1.753  -2.531  1.00  0.00    -0.033 A 
HETATM    5  C3  UNK     1       4.482   2.371  -3.993  1.00  0.00     0.009 C 
HETATM    6  C4  UNK     1       4.869   2.747  -2.559  1.00  0.00     0.046 C 
HETATM    7  C5  UNK     1       3.770   2.132  -1.767  1.00  0.00     0.025 A 
HETATM    8  C6  UNK     1       1.565   1.142  -1.952  1.00  0.00     0.005 A 
HETATM    9  C7  UNK     1       1.550   0.957  -0.567  1.00  0.00     0.092 A 
HETATM   10  C8  UNK     1       3.788   1.956  -0.313  1.00  0.00     0.295 A 
HETATM   11  C9  UNK     1       0.453   0.736  -2.693  1.00  0.00     0.017 A 
HETATM   12  C10 UNK     1       0.464   0.378   0.087  1.00  0.00     0.075 A 
HETATM   13  C11 UNK     1      -0.638  -0.025  -0.663  1.00  0.00     0.071 A 
HETATM   14  C12 UNK     1      -0.644   0.154  -2.048  1.00  0.00     0.038 A 
ENDROOT
BRANCH  13  15
HETATM   15  O2  UNK     1      -1.710  -0.592  -0.047  1.00  0.00    -0.347 OA
BRANCH  15  16
HETATM   16  C13 UNK     1      -1.639  -0.745   1.370  1.00  0.00     0.214 C 
BRANCH  16  17
HETATM   17  C14 UNK     1      -2.892  -1.413   1.854  1.00  0.00    -0.034 A 
HETATM   18  C15 UNK     1      -3.987  -0.638   2.221  1.00  0.00     0.011 A 
HETATM   19  C17 UNK     1      -5.152  -1.259   2.672  1.00  0.00     0.024 A 
HETATM   20  C19 UNK     1      -5.215  -2.650   2.754  1.00  0.00     0.034 A 
HETATM   21  C18 UNK     1      -4.112  -3.421   2.385  1.00  0.00     0.024 A 
HETATM   22 Cl1  UNK     1      -6.652  -3.415   3.311  1.00  0.00    -0.084 Cl
HETATM   23  C16 UNK     1      -2.947  -2.800   1.934  1.00  0.00     0.011 A 
ENDBRANCH  16  17
ENDBRANCH  15  16
ENDBRANCH  13  15
TORSDOF 3
