REMARK  6 active torsions:
REMARK  status: ('A' for Active; 'I' for Inactive)
REMARK    1  A    between atoms: C16_25  and  N1_7 
REMARK    2  A    between atoms: C4_13  and  N1_7 
REMARK       I    between atoms: C13_22  and  N2_8 
REMARK    3  A    between atoms: N2_8  and  N3_9 
REMARK    4  A    between atoms: C16_25  and  N3_9 
REMARK    5  A    between atoms: C10_19  and  C9_18 
REMARK    6  A    between atoms: C13_22  and  C9_18 
ROOT
HETATM    1  S1  UNK     1      -1.720  -1.787  -2.813  1.00  0.00    -0.039 SA
HETATM    2  C16 UNK     1      -0.855  -0.610  -1.988  1.00  0.00     0.191 C 
ENDROOT
BRANCH   2   3
HETATM    3  N1  UNK     1      -0.685  -0.464  -0.600  1.00  0.00    -0.332 N 
HETATM    4  H10 UNK     1       0.159   0.046  -0.350  1.00  0.00     0.168 HD
BRANCH   3   5
HETATM    5  C4  UNK     1      -1.466  -0.805   0.504  1.00  0.00     0.037 A 
HETATM    6  C6  UNK     1      -2.722  -1.376   0.322  1.00  0.00     0.067 A 
HETATM    7  C2  UNK     1      -3.486  -1.711   1.440  1.00  0.00     0.092 A 
HETATM    8  C1  UNK     1      -3.036  -1.494   2.743  1.00  0.00     0.004 A 
HETATM    9  O1  UNK     1      -4.749  -2.285   1.192  1.00  0.00    -0.275 OA
HETATM   10  C3  UNK     1      -3.908  -1.878   3.862  1.00  0.00    -0.043 A 
HETATM   11  C5  UNK     1      -1.769  -0.919   2.906  1.00  0.00     0.017 A 
HETATM   12  C11 UNK     1      -3.452  -1.657   5.275  1.00  0.00     0.049 C 
HETATM   13  C8  UNK     1      -5.104  -2.422   3.596  1.00  0.00     0.090 A 
HETATM   14  C12 UNK     1      -5.593  -2.657   2.227  1.00  0.00     0.288 A 
HETATM   15  O2  UNK     1      -6.693  -3.158   2.023  1.00  0.00    -0.260 OA
HETATM   16  C7  UNK     1      -0.990  -0.577   1.794  1.00  0.00     0.030 A 
ENDBRANCH   3   5
ENDBRANCH   2   3
BRANCH   2  17
HETATM   17  N3  UNK     1      -0.185   0.339  -2.752  1.00  0.00    -0.274 N 
HETATM   18  H12 UNK     1      -0.233   0.335  -3.765  1.00  0.00     0.189 HD
BRANCH  17  19
HETATM   19  N2  UNK     1       0.555   1.341  -2.171  1.00  0.00    -0.268 N 
HETATM   20  C13 UNK     1       1.636   1.858  -2.859  1.00  0.00     0.240 C 
HETATM   21  O3  UNK     1       2.011   1.498  -3.973  1.00  0.00    -0.272 OA
HETATM   22  H11 UNK     1       0.206   1.735  -1.304  1.00  0.00     0.190 HD
BRANCH  20  23
HETATM   23  C9  UNK     1       2.320   2.984  -2.114  1.00  0.00     0.148 C 
BRANCH  23  24
HETATM   24  C10 UNK     1       3.769   2.666  -1.859  1.00  0.00     0.011 A 
HETATM   25  C14 UNK     1       4.167   2.006  -0.703  1.00  0.00     0.043 A 
HETATM   26 Cl1  UNK     1       3.030   1.516   0.500  1.00  0.00    -0.084 Cl
HETATM   27  C17 UNK     1       5.518   1.725  -0.500  1.00  0.00     0.024 A 
HETATM   28  C19 UNK     1       6.461   2.108  -1.454  1.00  0.00     0.005 A 
HETATM   29  C18 UNK     1       6.053   2.771  -2.611  1.00  0.00     0.043 A 
HETATM   30  C15 UNK     1       4.702   3.051  -2.814  1.00  0.00     0.124 A 
HETATM   31  F1  UNK     1       4.320   3.688  -3.931  1.00  0.00    -0.205 F 
ENDBRANCH  23  24
ENDBRANCH  20  23
ENDBRANCH  17  19
ENDBRANCH   2  17
TORSDOF 6
