REMARK  3 active torsions:
REMARK  status: ('A' for Active; 'I' for Inactive)
REMARK    1  A    between atoms: C4_8  and  O2_2 
REMARK    2  A    between atoms: C9_13  and  O3_3 
REMARK    3  A    between atoms: C3_7  and  C6_10 
ROOT
HETATM    1  O1  UNK     1      -0.050   0.841   0.583  1.00  0.00    -0.306 OA
HETATM    2  O4  UNK     1      -1.354  -1.900  -2.135  1.00  0.00    -0.284 OA
HETATM    3  C1  UNK     1      -1.605  -0.928  -0.001  1.00  0.00     0.051 A 
HETATM    4  C2  UNK     1      -1.110   0.027   0.885  1.00  0.00     0.093 A 
HETATM    5  C3  UNK     1       0.548   0.716  -0.661  1.00  0.00     0.123 A 
HETATM    6  C4  UNK     1       0.173  -0.170  -1.601  1.00  0.00     0.154 A 
HETATM    7  C5  UNK     1      -0.967  -1.075  -1.318  1.00  0.00     0.221 A 
HETATM    8  C7  UNK     1      -1.697   0.184   2.141  1.00  0.00     0.075 A 
HETATM    9  C8  UNK     1      -2.690  -1.731   0.361  1.00  0.00     0.021 A 
HETATM   10  C9  UNK     1      -2.780  -0.616   2.506  1.00  0.00     0.070 A 
HETATM   11  C10 UNK     1      -3.275  -1.572   1.618  1.00  0.00     0.038 A 
ENDROOT
BRANCH   5  12
HETATM   12  C6  UNK     1       1.673   1.648  -0.855  1.00  0.00     0.001 A 
HETATM   13  C11 UNK     1       1.449   2.906  -1.415  1.00  0.00     0.014 A 
HETATM   14  C13 UNK     1       2.514   3.788  -1.598  1.00  0.00     0.001 A 
HETATM   15  C15 UNK     1       3.803   3.412  -1.221  1.00  0.00     0.000 A 
HETATM   16  C14 UNK     1       4.028   2.155  -0.661  1.00  0.00     0.001 A 
HETATM   17  C12 UNK     1       2.963   1.273  -0.478  1.00  0.00     0.014 A 
ENDBRANCH   5  12
BRANCH   6  18
HETATM   18  O2  UNK     1       0.810  -0.291  -2.817  1.00  0.00    -0.350 OA
HETATM   19  C16 UNK     1       0.222   0.562  -3.781  1.00  0.00     0.210 C 
ENDBRANCH   6  18
BRANCH  10  20
HETATM   20  O3  UNK     1      -3.355  -0.464   3.730  1.00  0.00    -0.356 OA
HETATM   21  C17 UNK     1      -4.458  -1.315   4.040  1.00  0.00     0.210 C 
ENDBRANCH  10  20
TORSDOF 3
