REMARK  7 active torsions:
REMARK  status: ('A' for Active; 'I' for Inactive)
REMARK    1  A    between atoms: C15_23  and  O3_4 
REMARK    2  A    between atoms: C20_28  and  O3_4 
REMARK    3  A    between atoms: C5_13  and  N1_6 
REMARK    4  A    between atoms: C6_14  and  N2_7 
REMARK    5  A    between atoms: C17_25  and  N3_8 
REMARK       I    between atoms: C9_17  and  N3_8 
REMARK    6  A    between atoms: C5_13  and  C7_15 
REMARK    7  A    between atoms: C6_14  and  C9_17 
ROOT
HETATM    1  N1  UNK     1      -0.419  -0.772   1.078  1.00  0.00     0.096 N 
HETATM    2  N2  UNK     1       1.667   1.115   0.412  1.00  0.00     0.100 N 
HETATM    3  C1  UNK     1       0.403  -0.939  -0.126  1.00  0.00     0.303 C 
HETATM    4  C2  UNK     1       0.338  -0.072   2.123  1.00  0.00     0.303 C 
HETATM    5  C3  UNK     1       0.909   0.416  -0.633  1.00  0.00     0.303 C 
HETATM    6  C4  UNK     1       0.844   1.283   1.616  1.00  0.00     0.303 C 
ENDROOT
BRANCH   1   7
HETATM    7  C5  UNK     1      -0.898  -2.065   1.562  1.00  0.00     0.312 C 
BRANCH   7   8
HETATM    8  C7  UNK     1      -2.125  -1.933   2.397  1.00  0.00    -0.011 A 
HETATM    9  C10 UNK     1      -2.045  -1.763   3.724  1.00  0.00     0.092 A 
HETATM   10  C13 UNK     1      -3.229  -1.628   4.589  1.00  0.00     0.288 A 
HETATM   11  O1  UNK     1      -4.466  -1.686   3.966  1.00  0.00    -0.275 OA
HETATM   12  O4  UNK     1      -3.117  -1.473   5.800  1.00  0.00    -0.260 OA
HETATM   13  C11 UNK     1      -4.582  -1.865   2.573  1.00  0.00     0.090 A 
HETATM   14  C8  UNK     1      -3.451  -1.991   1.765  1.00  0.00     0.009 A 
HETATM   15  C14 UNK     1      -5.877  -1.908   2.055  1.00  0.00     0.041 A 
HETATM   16  C12 UNK     1      -3.651  -2.168   0.390  1.00  0.00     0.051 A 
HETATM   17  C15 UNK     1      -4.944  -2.214  -0.145  1.00  0.00     0.069 A 
HETATM   18  C16 UNK     1      -6.055  -2.084   0.686  1.00  0.00     0.039 A 
BRANCH  17  19
HETATM   19  O3  UNK     1      -5.116  -2.386  -1.485  1.00  0.00    -0.351 OA
BRANCH  19  20
HETATM   20  C20 UNK     1      -4.096  -1.877  -2.341  1.00  0.00     0.171 C 
HETATM   21  C24 UNK     1      -4.713  -1.490  -3.668  1.00  0.00     0.034 C 
ENDBRANCH  19  20
ENDBRANCH  17  19
ENDBRANCH   7   8
ENDBRANCH   1   7
BRANCH   2  22
HETATM   22  C6  UNK     1       2.148   2.407  -0.072  1.00  0.00     0.375 C 
BRANCH  22  23
HETATM   23  C9  UNK     1       3.353   2.193  -0.972  1.00  0.00     0.250 C 
HETATM   24  O2  UNK     1       4.126   1.251  -0.830  1.00  0.00    -0.271 OA
HETATM   25  N3  UNK     1       3.419   3.197  -1.937  1.00  0.00    -0.326 N 
HETATM   26  H15 UNK     1       2.699   3.916  -1.921  1.00  0.00     0.169 HD
BRANCH  25  27
HETATM   27  C17 UNK     1       4.388   3.353  -2.956  1.00  0.00     0.037 A 
HETATM   28  C18 UNK     1       5.430   2.433  -3.074  1.00  0.00     0.071 A 
HETATM   29  C21 UNK     1       6.385   2.586  -4.079  1.00  0.00     0.118 A 
HETATM   30  F1  UNK     1       7.385   1.703  -4.192  1.00  0.00    -0.206 F 
HETATM   31  C23 UNK     1       6.297   3.658  -4.967  1.00  0.00     0.042 A 
HETATM   32  C22 UNK     1       5.254   4.578  -4.850  1.00  0.00     0.005 A 
HETATM   33  C19 UNK     1       4.300   4.425  -3.844  1.00  0.00     0.029 A 
ENDBRANCH  25  27
ENDBRANCH  22  23
ENDBRANCH   2  22
TORSDOF 7
