REMARK  7 active torsions:
REMARK  status: ('A' for Active; 'I' for Inactive)
REMARK    1  A    between atoms: C2_5  and  N1_2 
REMARK    2  A    between atoms: C3_6  and  N2_3 
REMARK       I    between atoms: C5_8  and  N2_3 
REMARK    3  A    between atoms: C1_4  and  C2_5 
REMARK    4  A    between atoms: C1_4  and  C3_6 
REMARK    5  A    between atoms: C4_7  and  C5_8 
REMARK    6  A    between atoms: C4_7  and  C8_11 
REMARK    7  A    between atoms: C10_13  and  C9_12 
ROOT
HETATM    1  C4  UNK     1       1.263   0.930  -0.676  1.00  0.00     0.043 C 
HETATM    2  C9  UNK     1       1.810   0.912   0.557  1.00  0.00     0.029 C 
ENDROOT
BRANCH   1   3
HETATM    3  C5  UNK     1      -0.167   0.462  -0.773  1.00  0.00     0.252 C 
HETATM    4  O1  UNK     1      -1.112   1.244  -0.676  1.00  0.00    -0.268 OA
HETATM    5  N2  UNK     1      -0.314  -0.903  -0.987  1.00  0.00    -0.357 N 
HETATM    6  H7  UNK     1       0.513  -1.489  -1.052  1.00  0.00     0.162 HD
BRANCH   5   7
HETATM    7  C3  UNK     1      -1.602  -1.528  -1.113  1.00  0.00     0.124 C 
BRANCH   7   8
HETATM    8  C1  UNK     1      -2.160  -1.997   0.229  1.00  0.00     0.050 C 
BRANCH   8   9
HETATM    9  C2  UNK     1      -3.548  -2.640   0.147  1.00  0.00     0.273 C 
BRANCH   9  10
HETATM   10  N1  UNK     1      -4.541  -1.724  -0.402  1.00  0.00     0.080 N 
HETATM   11  C6  UNK     1      -4.666  -0.534   0.441  1.00  0.00     0.309 C 
HETATM   12  C7  UNK     1      -5.838  -2.390  -0.536  1.00  0.00     0.309 C 
ENDBRANCH   9  10
ENDBRANCH   8   9
ENDBRANCH   7   8
ENDBRANCH   5   7
ENDBRANCH   1   3
BRANCH   1  13
HETATM   13  C8  UNK     1       2.023   1.363  -1.865  1.00  0.00    -0.021 A 
HETATM   14  C11 UNK     1       3.393   1.169  -1.899  1.00  0.00     0.012 A 
HETATM   15  C15 UNK     1       4.111   1.578  -3.023  1.00  0.00     0.001 A 
HETATM   16  C17 UNK     1       3.448   2.176  -4.095  1.00  0.00     0.000 A 
HETATM   17  C16 UNK     1       2.067   2.364  -4.043  1.00  0.00     0.001 A 
HETATM   18  C12 UNK     1       1.349   1.955  -2.920  1.00  0.00     0.012 A 
ENDBRANCH   1  13
BRANCH   2  19
HETATM   19  C10 UNK     1       1.130   0.497   1.793  1.00  0.00    -0.035 A 
HETATM   20  C13 UNK     1       0.464   1.445   2.556  1.00  0.00     0.011 A 
HETATM   21  C18 UNK     1      -0.180   1.051   3.728  1.00  0.00     0.001 A 
HETATM   22  C20 UNK     1      -0.152  -0.286   4.125  1.00  0.00     0.000 A 
HETATM   23  C19 UNK     1       0.521  -1.229   3.349  1.00  0.00     0.001 A 
HETATM   24  C14 UNK     1       1.166  -0.836   2.176  1.00  0.00     0.011 A 
ENDBRANCH   2  19
TORSDOF 7
