REMARK  8 active torsions:
REMARK  status: ('A' for Active; 'I' for Inactive)
REMARK    1  A    between atoms: C5_15  and  O2_2 
REMARK    2  A    between atoms: C7_17  and  O2_2 
REMARK    3  A    between atoms: C1_11  and  O3_3 
REMARK    4  A    between atoms: C2_12  and  O4_4 
REMARK    5  A    between atoms: C3_13  and  O5_5 
REMARK    6  A    between atoms: C6_16  and  O6_6 
REMARK    7  A    between atoms: C4_14  and  C6_16 
REMARK    8  A    between atoms: C13_23  and  C15_25 
ROOT
HETATM    1  O7  UNK     1      -0.765  -0.014  -0.832  1.00  0.00    -0.321 OA
HETATM    2  O10 UNK     1      -0.980  -0.837   3.159  1.00  0.00    -0.286 OA
HETATM    3  C7  UNK     1       2.653   0.814   0.121  1.00  0.00     0.074 A 
HETATM    4  C8  UNK     1       1.503   0.616  -0.643  1.00  0.00     0.075 A 
HETATM    5  C9  UNK     1       2.635   0.560   1.493  1.00  0.00     0.038 A 
HETATM    6  C10 UNK     1       0.333   0.163  -0.031  1.00  0.00     0.091 A 
HETATM    7  C11 UNK     1       0.315  -0.091   1.340  1.00  0.00     0.049 A 
HETATM    8  C12 UNK     1       1.467   0.106   2.107  1.00  0.00     0.021 A 
HETATM    9  C13 UNK     1      -2.104  -0.733   1.062  1.00  0.00     0.048 A 
HETATM   10  C14 UNK     1      -0.930  -0.574   1.964  1.00  0.00     0.197 A 
HETATM   11  C16 UNK     1      -1.926  -0.443  -0.235  1.00  0.00     0.159 A 
ENDROOT
BRANCH   3  12
HETATM   12  O2  UNK     1       3.797   1.258  -0.474  1.00  0.00    -0.318 OA
BRANCH  12  13
HETATM   13  C5  UNK     1       3.642   2.093  -1.618  1.00  0.00     0.298 C 
HETATM   14  C3  UNK     1       4.831   3.050  -1.692  1.00  0.00     0.205 C 
HETATM   15  C1  UNK     1       4.701   3.945  -2.924  1.00  0.00     0.183 C 
HETATM   16  C2  UNK     1       4.491   3.105  -4.187  1.00  0.00     0.180 C 
HETATM   17  C4  UNK     1       3.349   2.101  -3.980  1.00  0.00     0.179 C 
HETATM   18  O1  UNK     1       3.572   1.308  -2.810  1.00  0.00    -0.348 OA
BRANCH  14  19
HETATM   19  O5  UNK     1       6.027   2.270  -1.790  1.00  0.00    -0.388 OA
HETATM   20  H10 UNK     1       5.896   1.593  -2.475  1.00  0.00     0.210 HD
ENDBRANCH  14  19
BRANCH  15  21
HETATM   21  O3  UNK     1       5.874   4.739  -3.079  1.00  0.00    -0.390 OA
HETATM   22  H8  UNK     1       5.759   5.275  -3.882  1.00  0.00     0.210 HD
ENDBRANCH  15  21
BRANCH  16  23
HETATM   23  O4  UNK     1       4.166   3.964  -5.277  1.00  0.00    -0.390 OA
HETATM   24  H9  UNK     1       3.340   4.429  -5.058  1.00  0.00     0.210 HD
ENDBRANCH  16  23
BRANCH  17  25
HETATM   25  C6  UNK     1       3.220   1.147  -5.163  1.00  0.00     0.198 C 
BRANCH  25  26
HETATM   26  O6  UNK     1       2.159   0.246  -4.902  1.00  0.00    -0.398 OA
HETATM   27  H11 UNK     1       2.366  -0.219  -4.073  1.00  0.00     0.209 HD
ENDBRANCH  25  26
ENDBRANCH  17  25
ENDBRANCH  12  13
ENDBRANCH   3  12
BRANCH   9  28
HETATM   28  C15 UNK     1      -3.418  -1.169   1.563  1.00  0.00    -0.017 A 
HETATM   29  C18 UNK     1      -3.737  -2.527   1.590  1.00  0.00     0.052 A 
HETATM   30  C17 UNK     1      -4.980  -2.938   2.072  1.00  0.00     0.102 A 
HETATM   31  O8  UNK     1      -5.228  -4.286   2.093  1.00  0.00    -0.346 OA
HETATM   32  C19 UNK     1      -5.913  -1.990   2.500  1.00  0.00     0.102 A 
HETATM   33  C22 UNK     1      -6.357  -4.608   2.909  1.00  0.00     0.202 C 
HETATM   34  C23 UNK     1      -7.510  -3.671   2.606  1.00  0.00     0.202 C 
HETATM   35  O9  UNK     1      -7.162  -2.328   2.953  1.00  0.00    -0.346 OA
HETATM   36  C21 UNK     1      -5.588  -0.634   2.486  1.00  0.00     0.040 A 
HETATM   37  C20 UNK     1      -4.340  -0.225   2.016  1.00  0.00     0.015 A 
ENDBRANCH   9  28
TORSDOF 8
