REMARK  3 active torsions:
REMARK  status: ('A' for Active; 'I' for Inactive)
REMARK    1  A    between atoms: C5_10  and  N1_3 
REMARK    2  A    between atoms: C8_13  and  N2_4 
REMARK    3  A    between atoms: C5_10  and  C6_11 
ROOT
HETATM    1  O1  UNK     1       2.426   0.939  -3.646  1.00  0.00    -0.275 OA
HETATM    2  O2  UNK     1       0.581   0.702  -4.976  1.00  0.00    -0.260 OA
HETATM    3  C6  UNK     1       0.689   1.664  -1.534  1.00  0.00    -0.011 A 
HETATM    4  C7  UNK     1       2.142   1.617  -1.317  1.00  0.00     0.012 A 
HETATM    5  C9  UNK     1       0.204   1.358  -2.746  1.00  0.00     0.092 A 
HETATM    6  C10 UNK     1       2.756   1.915  -0.093  1.00  0.00    -0.048 A 
HETATM    7  C11 UNK     1       2.966   1.255  -2.383  1.00  0.00     0.091 A 
HETATM    8  C13 UNK     1       4.147   1.850   0.044  1.00  0.00     0.014 A 
HETATM    9  C14 UNK     1       4.355   1.186  -2.262  1.00  0.00     0.045 A 
HETATM   10  C15 UNK     1       4.945   1.486  -1.039  1.00  0.00    -0.059 A 
HETATM   11  C16 UNK     1       1.061   0.975  -3.881  1.00  0.00     0.288 A 
HETATM   12  C17 UNK     1       2.028   2.317   1.150  1.00  0.00     0.049 C 
HETATM   13  C20 UNK     1       6.427   1.417  -0.886  1.00  0.00     0.048 C 
ENDROOT
BRANCH   3  14
HETATM   14  C5  UNK     1      -0.289   2.044  -0.459  1.00  0.00     0.312 C 
BRANCH  14  15
HETATM   15  N1  UNK     1      -0.739   0.878   0.300  1.00  0.00     0.095 N 
HETATM   16  C1  UNK     1      -1.399  -0.089  -0.585  1.00  0.00     0.292 C 
HETATM   17  C3  UNK     1      -1.825  -1.340   0.188  1.00  0.00     0.154 C 
HETATM   18  N2  UNK     1      -2.643  -0.975   1.348  1.00  0.00    -0.362 N 
HETATM   19  C4  UNK     1      -2.091   0.079   2.209  1.00  0.00     0.154 C 
HETATM   20  C2  UNK     1      -1.658   1.284   1.371  1.00  0.00     0.292 C 
BRANCH  18  21
HETATM   21  C8  UNK     1      -3.482  -1.929   1.934  1.00  0.00     0.125 A 
HETATM   22  C12 UNK     1      -4.469  -2.482   1.133  1.00  0.00     0.050 A 
HETATM   23  C18 UNK     1      -5.311  -3.432   1.701  1.00  0.00     0.005 A 
HETATM   24  C21 UNK     1      -5.143  -3.795   3.032  1.00  0.00     0.019 A 
HETATM   25  C19 UNK     1      -4.126  -3.184   3.748  1.00  0.00     0.119 A 
HETATM   26  N3  UNK     1      -3.289  -2.257   3.231  1.00  0.00    -0.244 NA
ENDBRANCH  18  21
ENDBRANCH  14  15
ENDBRANCH   3  14
TORSDOF 3
