REMARK  7 active torsions:
REMARK  status: ('A' for Active; 'I' for Inactive)
REMARK    1  A    between atoms: C3_9  and  S1_1 
REMARK    2  A    between atoms: C9_15  and  S1_1 
REMARK    3  A    between atoms: C6_12  and  O1_2 
REMARK       I    between atoms: C13_19  and  N3_6 
REMARK    4  A    between atoms: C8_14  and  N3_6 
REMARK    5  A    between atoms: C13_19  and  C9_15 
REMARK    6  A    between atoms: C10_16  and  C16_22 
REMARK    7  A    between atoms: C17_23  and  C18_24 
ROOT
HETATM    1  O2  UNK     1      -0.604   2.261   0.583  1.00  0.00    -0.272 OA
HETATM    2  N3  UNK     1       0.189   0.049   0.582  1.00  0.00    -0.327 N 
HETATM    3  C13 UNK     1       0.272   1.423   0.384  1.00  0.00     0.231 C 
HETATM    4  H9  UNK     1       1.008  -0.509   0.350  1.00  0.00     0.169 HD
ENDROOT
BRANCH   2   5
HETATM    5  C8  UNK     1      -0.916  -0.685   1.074  1.00  0.00     0.034 A 
HETATM    6  C11 UNK     1      -2.079  -0.014   1.414  1.00  0.00     0.030 A 
HETATM    7  C14 UNK     1      -3.168  -0.738   1.900  1.00  0.00     0.013 A 
HETATM    8  C10 UNK     1      -3.079  -2.123   2.038  1.00  0.00    -0.036 A 
HETATM    9  C15 UNK     1      -1.901  -2.784   1.691  1.00  0.00     0.013 A 
HETATM   10  C12 UNK     1      -0.811  -2.060   1.205  1.00  0.00     0.030 A 
BRANCH   8  11
HETATM   11  C16 UNK     1      -4.214  -2.877   2.545  1.00  0.00     0.012 C 
HETATM   12  C18 UNK     1      -5.497  -2.445   2.553  1.00  0.00     0.012 C 
BRANCH  12  13
HETATM   13  C17 UNK     1      -6.651  -3.217   3.048  1.00  0.00    -0.036 A 
HETATM   14  C19 UNK     1      -6.436  -4.278   3.914  1.00  0.00     0.011 A 
HETATM   15  C22 UNK     1      -7.528  -5.009   4.382  1.00  0.00     0.001 A 
HETATM   16  C24 UNK     1      -8.819  -4.670   3.978  1.00  0.00     0.000 A 
HETATM   17  C23 UNK     1      -9.019  -3.600   3.106  1.00  0.00     0.001 A 
HETATM   18  C20 UNK     1      -7.927  -2.868   2.637  1.00  0.00     0.011 A 
ENDBRANCH  12  13
ENDBRANCH   8  11
ENDBRANCH   2   5
BRANCH   3  19
HETATM   19  C9  UNK     1       1.623   1.837  -0.157  1.00  0.00     0.185 C 
BRANCH  19  20
HETATM   20  S1  UNK     1       1.560   1.812  -1.973  1.00  0.00    -0.083 SA
BRANCH  20  21
HETATM   21  C3  UNK     1       3.160   2.304  -2.379  1.00  0.00     0.168 A 
HETATM   22  N1  UNK     1       3.543   2.418  -3.686  1.00  0.00    -0.333 N 
HETATM   23  C1  UNK     1       4.853   2.822  -3.705  1.00  0.00     0.066 A 
HETATM   24  H1  UNK     1       2.962   2.237  -4.494  1.00  0.00     0.168 HD
HETATM   25  C2  UNK     1       5.200   2.932  -2.362  1.00  0.00     0.086 A 
HETATM   26  C4  UNK     1       5.737   3.091  -4.750  1.00  0.00     0.068 A 
HETATM   27  N2  UNK     1       4.136   2.607  -1.553  1.00  0.00    -0.223 NA
HETATM   28  C5  UNK     1       6.503   3.335  -2.022  1.00  0.00     0.037 A 
HETATM   29  C7  UNK     1       7.408   3.611  -3.055  1.00  0.00     0.039 A 
HETATM   30  C6  UNK     1       7.030   3.491  -4.394  1.00  0.00     0.070 A 
BRANCH  30  31
HETATM   31  O1  UNK     1       7.937   3.766  -5.374  1.00  0.00    -0.356 OA
HETATM   32  C21 UNK     1       7.495   3.626  -6.722  1.00  0.00     0.210 C 
ENDBRANCH  30  31
ENDBRANCH  20  21
ENDBRANCH  19  20
ENDBRANCH   3  19
TORSDOF 7
