REMARK  4 active torsions:
REMARK  status: ('A' for Active; 'I' for Inactive)
REMARK    1  A    between atoms: C5_12  and  N1_5 
REMARK    2  A    between atoms: C6_13  and  N2_6 
REMARK    3  A    between atoms: C6_13  and  N3_7 
REMARK    4  A    between atoms: C9_16  and  N3_7 
ROOT
HETATM    1  S1  UNK     1       2.021  -0.907   3.738  1.00  0.00    -0.041 SA
HETATM    2  C6  UNK     1       1.528  -0.122   2.340  1.00  0.00     0.174 C 
ENDROOT
BRANCH   2   3
HETATM    3  N2  UNK     1       0.393  -0.510   1.709  1.00  0.00    -0.355 N 
HETATM    4  C3  UNK     1      -0.017  -1.905   1.649  1.00  0.00     0.145 C 
HETATM    5  C1  UNK     1      -1.465  -2.062   2.107  1.00  0.00     0.143 C 
HETATM    6  N1  UNK     1      -2.333  -1.106   1.398  1.00  0.00    -0.376 N 
HETATM    7  C2  UNK     1      -1.910   0.301   1.443  1.00  0.00     0.143 C 
HETATM    8  C4  UNK     1      -0.454   0.433   0.998  1.00  0.00     0.145 C 
BRANCH   6   9
HETATM    9  C5  UNK     1      -3.694  -1.417   1.296  1.00  0.00     0.052 A 
HETATM   10  C7  UNK     1      -4.233  -2.158   0.215  1.00  0.00     0.060 A 
HETATM   11  C10 UNK     1      -5.595  -2.453   0.142  1.00  0.00     0.026 A 
HETATM   12 Cl1  UNK     1      -3.200  -2.720  -1.050  1.00  0.00    -0.082 Cl
HETATM   13  C16 UNK     1      -6.458  -2.016   1.147  1.00  0.00     0.002 A 
HETATM   14  C11 UNK     1      -5.960  -1.283   2.224  1.00  0.00     0.002 A 
HETATM   15  C8  UNK     1      -4.598  -0.989   2.298  1.00  0.00     0.031 A 
ENDBRANCH   6   9
ENDBRANCH   2   3
BRANCH   2  16
HETATM   16  N3  UNK     1       2.239   0.960   1.850  1.00  0.00    -0.333 N 
HETATM   17  H10 UNK     1       2.745   1.484   2.562  1.00  0.00     0.168 HD
BRANCH  16  18
HETATM   18  C9  UNK     1       2.405   1.456   0.557  1.00  0.00     0.036 A 
HETATM   19  C12 UNK     1       2.340   0.596  -0.535  1.00  0.00     0.067 A 
HETATM   20  C14 UNK     1       2.509   1.114  -1.820  1.00  0.00     0.092 A 
HETATM   21  C13 UNK     1       2.742   2.470  -2.054  1.00  0.00     0.004 A 
HETATM   22  O1  UNK     1       2.432   0.194  -2.885  1.00  0.00    -0.275 OA
HETATM   23  C17 UNK     1       2.803   3.320  -0.941  1.00  0.00     0.017 A 
HETATM   24  C18 UNK     1       2.907   2.927  -3.440  1.00  0.00    -0.043 A 
HETATM   25  C15 UNK     1       2.636   2.816   0.354  1.00  0.00     0.030 A 
HETATM   26  C19 UNK     1       2.829   2.030  -4.433  1.00  0.00     0.090 A 
HETATM   27  C20 UNK     1       3.158   4.380  -3.724  1.00  0.00     0.049 C 
HETATM   28  C21 UNK     1       2.584   0.597  -4.203  1.00  0.00     0.288 A 
HETATM   29  O2  UNK     1       2.519  -0.195  -5.137  1.00  0.00    -0.260 OA
ENDBRANCH  16  18
ENDBRANCH   2  16
TORSDOF 4
