REMARK  4 active torsions:
REMARK  status: ('A' for Active; 'I' for Inactive)
REMARK    1  A    between atoms: C4_8  and  N1_4 
REMARK    2  A    between atoms: C1_5  and  C5_9 
REMARK    3  A    between atoms: C3_7  and  C7_11 
REMARK    4  A    between atoms: C7_11  and  C8_12 
ROOT
HETATM    1  C5  UNK     1       0.606  -0.016   0.222  1.00  0.00     0.015 C 
HETATM    2  C8  UNK     1      -0.677  -0.394   0.315  1.00  0.00     0.056 C 
ENDROOT
BRANCH   1   3
HETATM    3  C1  UNK     1       1.218   0.575  -0.981  1.00  0.00    -0.034 A 
HETATM    4  C2  UNK     1       2.392   1.301  -0.860  1.00  0.00     0.047 A 
HETATM    5  C4  UNK     1       2.970   1.859  -2.000  1.00  0.00     0.103 A 
HETATM    6  C9  UNK     1       2.367   1.685  -3.245  1.00  0.00     0.036 A 
HETATM    7  C10 UNK     1       1.184   0.952  -3.351  1.00  0.00     0.003 A 
HETATM    8  C6  UNK     1       0.606   0.393  -2.211  1.00  0.00     0.011 A 
BRANCH   5   9
HETATM    9  N1  UNK     1       4.173   2.606  -1.893  1.00  0.00    -0.116 N 
HETATM   10  O2  UNK     1       4.676   3.100  -2.931  1.00  0.00    -0.532 OA
HETATM   11  O3  UNK     1       4.701   2.752  -0.764  1.00  0.00    -0.532 OA
ENDBRANCH   5   9
ENDBRANCH   1   3
BRANCH   2  12
HETATM   12  C7  UNK     1      -1.213  -0.975   1.594  1.00  0.00     0.182 C 
HETATM   13  O1  UNK     1      -0.475  -1.111   2.582  1.00  0.00    -0.288 OA
BRANCH  12  14
HETATM   14  C3  UNK     1      -2.618  -1.343   1.656  1.00  0.00     0.014 A 
HETATM   15  C11 UNK     1      -3.282  -1.760   0.502  1.00  0.00     0.015 A 
HETATM   16  C13 UNK     1      -4.630  -2.114   0.562  1.00  0.00     0.001 A 
HETATM   17  C15 UNK     1      -5.314  -2.051   1.776  1.00  0.00     0.000 A 
HETATM   18  C14 UNK     1      -4.650  -1.635   2.930  1.00  0.00     0.001 A 
HETATM   19  C12 UNK     1      -3.303  -1.281   2.870  1.00  0.00     0.015 A 
ENDBRANCH  12  14
ENDBRANCH   2  12
TORSDOF 4
