REMARK  5 active torsions:
REMARK  status: ('A' for Active; 'I' for Inactive)
REMARK    1  A    between atoms: C12_20  and  O3_5 
REMARK    2  A    between atoms: C20_28  and  O3_5 
REMARK    3  A    between atoms: C7_15  and  N1_8 
REMARK    4  A    between atoms: C1_9  and  C5_13 
REMARK    5  A    between atoms: C12_20  and  C3_11 
ROOT
HETATM    1  O1  UNK     1       0.070   0.119  -2.383  1.00  0.00    -0.292 OA
HETATM    2  O2  UNK     1       2.617   2.309   0.113  1.00  0.00    -0.274 OA
HETATM    3  O4  UNK     1       1.047   2.256   1.767  1.00  0.00    -0.259 OA
HETATM    4  C1  UNK     1      -0.828   0.641   0.295  1.00  0.00     0.109 C 
HETATM    5  C2  UNK     1       0.507   1.116  -0.248  1.00  0.00     0.066 A 
HETATM    6  C3  UNK     1      -1.713   0.077  -0.804  1.00  0.00     0.081 C 
HETATM    7  C4  UNK     1       0.873   0.829  -1.507  1.00  0.00     0.104 A 
HETATM    8  C6  UNK     1       2.168   1.253  -2.032  1.00  0.00     0.033 A 
HETATM    9  C7  UNK     1      -1.257  -0.166  -2.051  1.00  0.00     0.155 C 
HETATM   10  C8  UNK     1       1.384   1.930   0.633  1.00  0.00     0.298 A 
HETATM   11  C9  UNK     1       3.011   1.981  -1.197  1.00  0.00     0.092 A 
HETATM   12  C13 UNK     1       2.613   0.962  -3.328  1.00  0.00     0.017 A 
HETATM   13  C14 UNK     1       4.268   2.420  -1.613  1.00  0.00     0.038 A 
HETATM   14  C17 UNK     1       3.870   1.396  -3.760  1.00  0.00     0.001 A 
HETATM   15  C19 UNK     1       4.697   2.124  -2.903  1.00  0.00     0.003 A 
ENDROOT
BRANCH   4  16
HETATM   16  C5  UNK     1      -0.619  -0.385   1.370  1.00  0.00     0.016 A 
HETATM   17  C10 UNK     1      -1.053  -0.164   2.674  1.00  0.00     0.044 A 
HETATM   18  C15 UNK     1      -0.842  -1.139   3.649  1.00  0.00     0.024 A 
HETATM   19 Cl1  UNK     1      -1.853   1.298   3.124  1.00  0.00    -0.084 Cl
HETATM   20  C18 UNK     1      -0.198  -2.331   3.316  1.00  0.00     0.005 A 
HETATM   21  C16 UNK     1       0.234  -2.548   2.007  1.00  0.00     0.043 A 
HETATM   22  C11 UNK     1       0.023  -1.573   1.032  1.00  0.00     0.125 A 
HETATM   23  F1  UNK     1       0.444  -1.791  -0.221  1.00  0.00    -0.205 F 
ENDBRANCH   4  16
BRANCH   6  24
HETATM   24  C12 UNK     1      -3.122  -0.169  -0.448  1.00  0.00     0.294 C 
HETATM   25  O5  UNK     1      -3.995   0.671  -0.559  1.00  0.00    -0.259 OA
BRANCH  24  26
HETATM   26  O3  UNK     1      -3.233  -1.443  -0.003  1.00  0.00    -0.318 OA
BRANCH  26  27
HETATM   27  C20 UNK     1      -4.554  -1.836   0.384  1.00  0.00     0.174 C 
HETATM   28  C21 UNK     1      -4.521  -3.274   0.857  1.00  0.00     0.034 C 
ENDBRANCH  26  27
ENDBRANCH  24  26
ENDBRANCH   6  24
BRANCH   9  29
HETATM   29  N1  UNK     1      -1.974  -0.683  -3.091  1.00  0.00    -0.379 N 
HETATM   30  H6  UNK     1      -1.517  -0.818  -3.984  1.00  0.00     0.158 HD
HETATM   31  H7  UNK     1      -2.948  -0.931  -2.972  1.00  0.00     0.158 HD
ENDBRANCH   9  29
TORSDOF 5
