REMARK  5 active torsions:
REMARK  status: ('A' for Active; 'I' for Inactive)
REMARK    1  A    between atoms: C17_26  and  O2_6 
REMARK    2  A    between atoms: C5_14  and  O2_6 
REMARK    3  A    between atoms: C7_16  and  N1_9 
REMARK       I    between atoms: C8_17  and  N1_9 
REMARK    4  A    between atoms: C3_12  and  C8_17 
REMARK    5  A    between atoms: C12_21  and  C18_27 
ROOT
HETATM    1  O3  UNK     1      -0.045  -0.503   1.804  1.00  0.00    -0.267 OA
HETATM    2  N1  UNK     1      -1.365  -0.376  -0.141  1.00  0.00    -0.320 N 
HETATM    3  C8  UNK     1      -0.217  -0.214   0.621  1.00  0.00     0.262 C 
HETATM    4  H4  UNK     1      -1.353  -0.065  -1.110  1.00  0.00     0.169 HD
ENDROOT
BRANCH   3   5
HETATM    5  C3  UNK     1       0.882   0.379  -0.151  1.00  0.00     0.108 A 
HETATM    6  C9  UNK     1       1.022   0.166  -1.609  1.00  0.00     0.304 A 
HETATM    7  O1  UNK     1       2.105   0.782  -2.230  1.00  0.00    -0.271 OA
HETATM    8  O4  UNK     1       0.226  -0.518  -2.243  1.00  0.00    -0.259 OA
HETATM    9  C2  UNK     1       3.025   1.569  -1.510  1.00  0.00     0.123 A 
HETATM   10  C1  UNK     1       2.875   1.756  -0.140  1.00  0.00     0.002 A 
HETATM   11  C5  UNK     1       4.078   2.145  -2.219  1.00  0.00     0.103 A 
HETATM   12  C4  UNK     1       1.752   1.126   0.538  1.00  0.00     0.037 A 
HETATM   13  C6  UNK     1       3.808   2.543   0.539  1.00  0.00     0.014 A 
HETATM   14  C11 UNK     1       4.870   3.127  -0.158  1.00  0.00     0.004 A 
HETATM   15  C10 UNK     1       5.004   2.928  -1.534  1.00  0.00     0.040 A 
BRANCH  11  16
HETATM   16  O2  UNK     1       4.212   1.954  -3.558  1.00  0.00    -0.349 OA
BRANCH  16  17
HETATM   17  C17 UNK     1       4.826   3.003  -4.306  1.00  0.00     0.171 C 
HETATM   18  C19 UNK     1       4.272   2.993  -5.715  1.00  0.00     0.034 C 
ENDBRANCH  16  17
ENDBRANCH  11  16
ENDBRANCH   3   5
BRANCH   2  19
HETATM   19  C7  UNK     1      -2.608  -0.914   0.272  1.00  0.00     0.074 A 
HETATM   20  C13 UNK     1      -2.755  -1.346   1.579  1.00  0.00     0.049 A 
HETATM   21  C12 UNK     1      -3.978  -1.878   1.988  1.00  0.00     0.050 A 
HETATM   22  C15 UNK     1      -5.036  -1.970   1.084  1.00  0.00     0.019 A 
HETATM   23  C16 UNK     1      -4.871  -1.530  -0.229  1.00  0.00     0.045 A 
HETATM   24  C14 UNK     1      -3.648  -0.998  -0.638  1.00  0.00     0.143 A 
HETATM   25  F1  UNK     1      -3.501  -0.579  -1.903  1.00  0.00    -0.204 F 
BRANCH  21  26
HETATM   26  C18 UNK     1      -4.154  -2.348   3.393  1.00  0.00     0.417 C 
HETATM   27  F2  UNK     1      -5.400  -2.843   3.652  1.00  0.00    -0.166 F 
HETATM   28  F3  UNK     1      -3.293  -3.347   3.747  1.00  0.00    -0.166 F 
HETATM   29  F4  UNK     1      -3.957  -1.354   4.308  1.00  0.00    -0.166 F 
ENDBRANCH  21  26
ENDBRANCH   2  19
TORSDOF 5
