REMARK  4 active torsions:
REMARK  status: ('A' for Active; 'I' for Inactive)
REMARK    1  A    between atoms: C3_6  and  O1_1 
REMARK    2  A    between atoms: C4_7  and  O1_1 
REMARK    3  A    between atoms: C1_4  and  C2_5 
REMARK    4  A    between atoms: C1_4  and  C3_6 
ROOT
HETATM    1  O2  UNK     1      -1.220  -0.376   1.996  1.00  0.00    -0.275 OA
HETATM    2  O3  UNK     1      -2.262  -1.286   3.821  1.00  0.00    -0.260 OA
HETATM    3  C4  UNK     1      -0.024   0.696  -1.309  1.00  0.00     0.071 A 
HETATM    4  C5  UNK     1      -1.994  -0.979  -0.231  1.00  0.00    -0.002 A 
HETATM    5  C6  UNK     1      -1.126  -0.268   0.594  1.00  0.00     0.092 A 
HETATM    6  C7  UNK     1      -0.141   0.569   0.074  1.00  0.00     0.075 A 
HETATM    7  C9  UNK     1      -0.886  -0.009  -2.152  1.00  0.00     0.038 A 
HETATM    8  C10 UNK     1      -1.870  -0.845  -1.616  1.00  0.00     0.017 A 
HETATM    9  C11 UNK     1      -2.998  -1.833   0.378  1.00  0.00     0.020 A 
HETATM   10  C12 UNK     1      -3.081  -1.930   1.708  1.00  0.00     0.083 A 
HETATM   11  C13 UNK     1      -2.174  -1.187   2.602  1.00  0.00     0.288 A 
ENDROOT
BRANCH   3  12
HETATM   12  O1  UNK     1       0.931   1.508  -1.840  1.00  0.00    -0.351 OA
BRANCH  12  13
HETATM   13  C3  UNK     1       2.134   1.671  -1.090  1.00  0.00     0.175 C 
BRANCH  13  14
HETATM   14  C1  UNK     1       3.280   1.947  -2.053  1.00  0.00     0.026 C 
BRANCH  14  15
HETATM   15  C2  UNK     1       4.606   2.117  -1.317  1.00  0.00    -0.002 C 
HETATM   16  C8  UNK     1       5.755   2.349  -2.285  1.00  0.00     0.005 C 
ENDBRANCH  14  15
ENDBRANCH  13  14
ENDBRANCH  12  13
ENDBRANCH   3  12
TORSDOF 4
