REMARK  1 active torsions:
REMARK  status: ('A' for Active; 'I' for Inactive)
REMARK    1  A    between atoms: C1_4  and  C3_6 
ROOT
HETATM    1 Cl1  UNK     1       0.291  -0.544  -3.691  1.00  0.00    -0.081 Cl
HETATM    2  O1  UNK     1      -0.161   0.266  -0.916  1.00  0.00    -0.338 OA
HETATM    3  O2  UNK     1       1.985   3.004   1.258  1.00  0.00    -0.292 OA
HETATM    4  C1  UNK     1      -0.110   0.188   0.517  1.00  0.00     0.169 C 
HETATM    5  C2  UNK     1       0.064   1.573   1.136  1.00  0.00     0.121 C 
HETATM    6  C4  UNK     1       1.336   2.189   0.614  1.00  0.00     0.165 C 
HETATM    7  C5  UNK     1       1.722   1.809  -0.760  1.00  0.00     0.045 A 
HETATM    8  C6  UNK     1       0.937   0.884  -1.456  1.00  0.00     0.105 A 
HETATM    9  C9  UNK     1       2.831   2.396  -1.374  1.00  0.00     0.018 A 
HETATM   10  C10 UNK     1       1.244   0.573  -2.782  1.00  0.00     0.068 A 
HETATM   11  C14 UNK     1       3.144   2.066  -2.693  1.00  0.00     0.003 A 
HETATM   12  C15 UNK     1       2.350   1.160  -3.397  1.00  0.00     0.027 A 
ENDROOT
BRANCH   4  13
HETATM   13  C3  UNK     1      -1.382  -0.473   1.006  1.00  0.00    -0.029 A 
HETATM   14  C7  UNK     1      -1.321  -1.695   1.674  1.00  0.00     0.010 A 
HETATM   15  C12 UNK     1      -2.493  -2.304   2.124  1.00  0.00     0.007 A 
HETATM   16  C11 UNK     1      -3.726  -1.689   1.905  1.00  0.00    -0.062 A 
HETATM   17  C13 UNK     1      -3.787  -0.466   1.238  1.00  0.00     0.007 A 
HETATM   18  C16 UNK     1      -4.978  -2.340   2.386  1.00  0.00     0.048 C 
HETATM   19  C8  UNK     1      -2.615   0.142   0.788  1.00  0.00     0.010 A 
ENDBRANCH   4  13
TORSDOF 1
