REMARK  2 active torsions:
REMARK  status: ('A' for Active; 'I' for Inactive)
REMARK    1  A    between atoms: C9_12  and  O3_3 
REMARK    2  A    between atoms: C5_8  and  C6_9 
ROOT
HETATM    1  O1  UNK     1       0.190   0.769  -0.055  1.00  0.00    -0.306 OA
HETATM    2  O2  UNK     1       0.226  -0.621  -3.312  1.00  0.00    -0.284 OA
HETATM    3  C1  UNK     1       1.417   0.996  -1.999  1.00  0.00     0.051 A 
HETATM    4  C2  UNK     1       1.234   1.411  -0.682  1.00  0.00     0.093 A 
HETATM    5  C3  UNK     1      -0.336  -0.105  -0.999  1.00  0.00     0.127 A 
HETATM    6  C4  UNK     1       0.405  -0.014  -2.280  1.00  0.00     0.218 A 
HETATM    7  C6  UNK     1      -1.371  -0.919  -0.784  1.00  0.00     0.053 C 
HETATM    8  C7  UNK     1       2.408   1.512  -2.807  1.00  0.00     0.021 A 
HETATM    9  C8  UNK     1       2.045   2.370  -0.116  1.00  0.00     0.074 A 
HETATM   10  C9  UNK     1       3.059   2.910  -0.914  1.00  0.00     0.068 A 
HETATM   11  C10 UNK     1       3.238   2.485  -2.247  1.00  0.00     0.037 A 
ENDROOT
BRANCH   7  12
HETATM   12  C5  UNK     1      -2.093  -1.012   0.452  1.00  0.00    -0.033 A 
HETATM   13  C11 UNK     1      -1.675  -1.896   1.461  1.00  0.00     0.012 A 
HETATM   14  C14 UNK     1      -2.378  -1.987   2.663  1.00  0.00     0.007 A 
HETATM   15  C13 UNK     1      -3.507  -1.195   2.873  1.00  0.00    -0.062 A 
HETATM   16  C15 UNK     1      -3.934  -0.313   1.881  1.00  0.00     0.007 A 
HETATM   17  C16 UNK     1      -4.257  -1.292   4.159  1.00  0.00     0.048 C 
HETATM   18  C12 UNK     1      -3.232  -0.222   0.679  1.00  0.00     0.012 A 
ENDBRANCH   7  12
BRANCH  10  19
HETATM   19  O3  UNK     1       3.887   3.862  -0.398  1.00  0.00    -0.361 OA
HETATM   20  H12 UNK     1       4.528   4.126  -1.080  1.00  0.00     0.217 HD
ENDBRANCH  10  19
TORSDOF 2
