REMARK  3 active torsions:
REMARK  status: ('A' for Active; 'I' for Inactive)
REMARK    1  A    between atoms: C7_11  and  O2_2 
REMARK    2  A    between atoms: C11_15  and  O4_4 
REMARK    3  A    between atoms: C1_5  and  C4_8 
ROOT
HETATM    1  O1  UNK     1      -0.081  -1.286   0.334  1.00  0.00    -0.309 OA
HETATM    2  O3  UNK     1       1.685  -2.205   3.888  1.00  0.00    -0.287 OA
HETATM    3  C1  UNK     1       0.090  -0.336   1.329  1.00  0.00     0.093 A 
HETATM    4  C2  UNK     1       0.985  -2.943   1.755  1.00  0.00     0.048 A 
HETATM    5  C3  UNK     1       0.370  -2.561   0.564  1.00  0.00     0.093 A 
HETATM    6  C5  UNK     1       0.660  -0.582   2.519  1.00  0.00     0.094 A 
HETATM    7  C6  UNK     1       1.159  -1.939   2.817  1.00  0.00     0.187 A 
HETATM    8  C8  UNK     1       1.425  -4.256   1.934  1.00  0.00     0.021 A 
HETATM    9  C9  UNK     1       0.191  -3.494  -0.458  1.00  0.00     0.074 A 
HETATM   10  C11 UNK     1       0.629  -4.807  -0.283  1.00  0.00     0.068 A 
HETATM   11  C12 UNK     1       1.245  -5.187   0.911  1.00  0.00     0.037 A 
ENDROOT
BRANCH   3  12
HETATM   12  C4  UNK     1      -0.436   0.999   0.980  1.00  0.00     0.031 A 
HETATM   13  C10 UNK     1      -1.768   1.306   1.276  1.00  0.00     0.017 A 
HETATM   14  C14 UNK     1      -2.288   2.560   0.956  1.00  0.00     0.001 A 
HETATM   15  C15 UNK     1      -1.478   3.514   0.339  1.00  0.00     0.003 A 
HETATM   16  C13 UNK     1      -0.149   3.213   0.041  1.00  0.00     0.038 A 
HETATM   17  C7  UNK     1       0.371   1.959   0.361  1.00  0.00     0.081 A 
BRANCH  17  18
HETATM   18  O2  UNK     1       1.673   1.691   0.059  1.00  0.00    -0.355 OA
HETATM   19  C16 UNK     1       1.937   1.127  -1.224  1.00  0.00     0.210 C 
ENDBRANCH  17  18
ENDBRANCH   3  12
BRANCH  10  20
HETATM   20  O4  UNK     1       0.456  -5.719  -1.279  1.00  0.00    -0.361 OA
HETATM   21  H12 UNK     1       0.016  -5.286  -2.030  1.00  0.00     0.217 HD
ENDBRANCH  10  20
TORSDOF 3
