REMARK  2 active torsions:
REMARK  status: ('A' for Active; 'I' for Inactive)
REMARK    1  A    between atoms: C5_10  and  N1_5 
REMARK       I    between atoms: C6_11  and  N1_5 
REMARK    2  A    between atoms: C2_7  and  C6_11 
ROOT
HETATM    1  O2  UNK     1       0.316   0.772   1.798  1.00  0.00    -0.267 OA
HETATM    2  N1  UNK     1      -1.021  -0.345   0.213  1.00  0.00    -0.323 N 
HETATM    3  C6  UNK     1       0.040   0.438   0.647  1.00  0.00     0.262 C 
HETATM    4  H2  UNK     1      -1.098  -0.549  -0.780  1.00  0.00     0.169 HD
ENDROOT
BRANCH   3   5
HETATM    5  C2  UNK     1       0.890   0.882  -0.465  1.00  0.00     0.108 A 
HETATM    6  C9  UNK     1       0.351   1.106  -1.825  1.00  0.00     0.304 A 
HETATM    7  O1  UNK     1       1.257   1.527  -2.794  1.00  0.00    -0.274 OA
HETATM    8  O3  UNK     1      -0.833   0.932  -2.090  1.00  0.00    -0.259 OA
HETATM    9  C3  UNK     1       2.620   1.731  -2.500  1.00  0.00     0.089 A 
HETATM   10  C1  UNK     1       3.105   1.514  -1.215  1.00  0.00    -0.001 A 
HETATM   11  C12 UNK     1       3.450   2.154  -3.537  1.00  0.00     0.038 A 
HETATM   12  C8  UNK     1       4.463   1.727  -0.962  1.00  0.00     0.014 A 
HETATM   13  C4  UNK     1       2.183   1.074  -0.179  1.00  0.00     0.037 A 
HETATM   14  C15 UNK     1       5.308   2.151  -1.992  1.00  0.00     0.001 A 
HETATM   15  C16 UNK     1       4.802   2.364  -3.276  1.00  0.00     0.003 A 
ENDBRANCH   3   5
BRANCH   2  16
HETATM   16  C5  UNK     1      -2.033  -0.942   1.004  1.00  0.00     0.036 A 
HETATM   17  C10 UNK     1      -3.018  -1.696   0.387  1.00  0.00     0.053 A 
HETATM   18  C13 UNK     1      -4.014  -2.284   1.166  1.00  0.00     0.042 A 
HETATM   19  C7  UNK     1      -4.011  -2.109   2.550  1.00  0.00    -0.040 A 
HETATM   20 Cl1  UNK     1      -5.235  -3.220   0.383  1.00  0.00    -0.084 Cl
HETATM   21  C14 UNK     1      -3.012  -1.347   3.155  1.00  0.00     0.011 A 
HETATM   22  C17 UNK     1      -5.061  -2.723   3.420  1.00  0.00     0.050 C 
HETATM   23  C11 UNK     1      -2.016  -0.759   2.376  1.00  0.00     0.030 A 
ENDBRANCH   2  16
TORSDOF 2
