REMARK  3 active torsions:
REMARK  status: ('A' for Active; 'I' for Inactive)
REMARK    1  A    between atoms: C18_25  and  O4_5 
REMARK    2  A    between atoms: C5_12  and  N1_6 
REMARK       I    between atoms: C6_13  and  N2_7 
REMARK    3  A    between atoms: C6_13  and  C7_14 
ROOT
HETATM    1  O1  UNK     1      -2.465  -0.152  -2.712  1.00  0.00    -0.267 OA
HETATM    2  N1  UNK     1       2.291   1.363  -1.927  1.00  0.00    -0.378 N 
HETATM    3  N2  UNK     1      -0.350   0.185  -1.802  1.00  0.00    -0.345 N 
HETATM    4  C1  UNK     1       2.048   0.185  -1.092  1.00  0.00     0.143 C 
HETATM    5  C2  UNK     1       1.203   1.837  -2.787  1.00  0.00     0.143 C 
HETATM    6  C3  UNK     1       0.580   0.110  -0.670  1.00  0.00     0.146 C 
HETATM    7  C4  UNK     1       0.195   0.720  -3.048  1.00  0.00     0.146 C 
HETATM    8  C6  UNK     1      -1.684  -0.214  -1.762  1.00  0.00     0.260 C 
ENDROOT
BRANCH   8   9
HETATM    9  C7  UNK     1      -2.193  -0.739  -0.478  1.00  0.00     0.108 A 
HETATM   10  C10 UNK     1      -2.719   0.160   0.363  1.00  0.00     0.037 A 
HETATM   11  C11 UNK     1      -3.246  -0.261   1.651  1.00  0.00     0.002 A 
HETATM   12  C15 UNK     1      -3.193  -1.608   1.993  1.00  0.00     0.123 A 
HETATM   13  C17 UNK     1      -3.804   0.643   2.559  1.00  0.00     0.014 A 
HETATM   14  O2  UNK     1      -2.638  -2.550   1.104  1.00  0.00    -0.271 OA
HETATM   15  C18 UNK     1      -3.680  -2.076   3.211  1.00  0.00     0.102 A 
HETATM   16  C12 UNK     1      -2.127  -2.178  -0.136  1.00  0.00     0.304 A 
HETATM   17  O3  UNK     1      -1.647  -3.005  -0.903  1.00  0.00    -0.259 OA
HETATM   18  C20 UNK     1      -4.235  -1.168   4.110  1.00  0.00     0.040 A 
HETATM   19  C19 UNK     1      -4.297   0.189   3.785  1.00  0.00     0.004 A 
BRANCH  15  20
HETATM   20  O4  UNK     1      -3.622  -3.396   3.532  1.00  0.00    -0.353 OA
HETATM   21  C21 UNK     1      -2.451  -3.849   4.212  1.00  0.00     0.210 C 
ENDBRANCH  15  20
ENDBRANCH   8   9
BRANCH   2  22
HETATM   22  C5  UNK     1       3.538   1.984  -1.956  1.00  0.00     0.030 A 
HETATM   23  C8  UNK     1       3.670   3.359  -2.262  1.00  0.00     0.032 A 
HETATM   24  C13 UNK     1       4.919   3.980  -2.292  1.00  0.00     0.044 A 
HETATM   25  C16 UNK     1       6.071   3.243  -2.016  1.00  0.00     0.116 A 
HETATM   26  C14 UNK     1       5.974   1.886  -1.710  1.00  0.00     0.044 A 
HETATM   27  F1  UNK     1       7.270   3.839  -2.044  1.00  0.00    -0.206 F 
HETATM   28  C9  UNK     1       4.725   1.265  -1.680  1.00  0.00     0.032 A 
ENDBRANCH   2  22
TORSDOF 3
