REMARK  2 active torsions:
REMARK  status: ('A' for Active; 'I' for Inactive)
REMARK       I    between atoms: C11_17  and  N1_4 
REMARK    1  A    between atoms: C2_8  and  N1_4 
REMARK    2  A    between atoms: C11_17  and  C6_12 
ROOT
HETATM    1  O2  UNK     1      -0.337  -1.279  -1.321  1.00  0.00    -0.267 OA
HETATM    2  N1  UNK     1      -0.577   0.064   0.598  1.00  0.00    -0.323 N 
HETATM    3  C11 UNK     1       0.028  -0.376  -0.571  1.00  0.00     0.262 C 
HETATM    4  H5  UNK     1      -0.137   0.834   1.098  1.00  0.00     0.169 HD
ENDROOT
BRANCH   3   5
HETATM    5  C6  UNK     1       1.247   0.381  -0.881  1.00  0.00     0.108 A 
HETATM    6  C13 UNK     1       2.404   0.420   0.042  1.00  0.00     0.304 A 
HETATM    7  O1  UNK     1       3.503   1.172  -0.365  1.00  0.00    -0.274 OA
HETATM    8  O3  UNK     1       2.400  -0.179   1.112  1.00  0.00    -0.259 OA
HETATM    9  C7  UNK     1       3.518   1.863  -1.592  1.00  0.00     0.089 A 
HETATM   10  C15 UNK     1       4.663   2.589  -1.912  1.00  0.00     0.038 A 
HETATM   11  C5  UNK     1       2.420   1.814  -2.444  1.00  0.00    -0.001 A 
HETATM   12  C17 UNK     1       4.707   3.284  -3.119  1.00  0.00     0.003 A 
HETATM   13  C16 UNK     1       3.614   3.246  -3.987  1.00  0.00     0.001 A 
HETATM   14  C14 UNK     1       2.472   2.513  -3.652  1.00  0.00     0.014 A 
HETATM   15  C9  UNK     1       1.256   1.036  -2.048  1.00  0.00     0.037 A 
ENDBRANCH   3   5
BRANCH   2  16
HETATM   16  C2  UNK     1      -1.762  -0.431   1.196  1.00  0.00     0.035 A 
HETATM   17  C4  UNK     1      -2.452  -1.487   0.587  1.00  0.00     0.044 A 
HETATM   18  C1  UNK     1      -3.625  -1.962   1.198  1.00  0.00     0.013 A 
HETATM   19  C3  UNK     1      -4.064  -1.375   2.379  1.00  0.00     0.062 A 
HETATM   20  C12 UNK     1      -4.581  -2.965   0.929  1.00  0.00     0.152 A 
HETATM   21  C10 UNK     1      -3.391  -0.321   3.002  1.00  0.00     0.034 A 
HETATM   22  N2  UNK     1      -5.208  -2.048   2.712  1.00  0.00    -0.278 N 
HETATM   23  C8  UNK     1      -2.226   0.141   2.383  1.00  0.00     0.032 A 
HETATM   24  H7  UNK     1      -5.804  -1.894   3.516  1.00  0.00     0.189 HD
HETATM   25  N3  UNK     1      -5.546  -3.021   1.849  1.00  0.00    -0.186 NA
ENDBRANCH   2  16
TORSDOF 2
