REMARK  4 active torsions:
REMARK  status: ('A' for Active; 'I' for Inactive)
REMARK       I    between atoms: C7_15  and  N1_7 
REMARK    1  A    between atoms: C6_14  and  N2_8 
REMARK       I    between atoms: C9_17  and  N2_8 
REMARK    2  A    between atoms: C1_9  and  C6_14 
REMARK    3  A    between atoms: C7_15  and  C8_16 
REMARK    4  A    between atoms: C12_20  and  C9_17 
ROOT
HETATM    1  O1  UNK     1       4.832   2.661   0.456  1.00  0.00    -0.267 OA
HETATM    2  N1  UNK     1       2.623   1.937   0.555  1.00  0.00    -0.348 N 
HETATM    3  C1  UNK     1       0.754   0.359   2.130  1.00  0.00     0.006 C 
HETATM    4  C2  UNK     1       0.895   0.167   0.614  1.00  0.00     0.026 C 
HETATM    5  C3  UNK     1       2.075   0.876   2.718  1.00  0.00     0.026 C 
HETATM    6  C4  UNK     1       1.389   1.441  -0.072  1.00  0.00     0.126 C 
HETATM    7  C5  UNK     1       2.531   2.144   2.003  1.00  0.00     0.126 C 
HETATM    8  C7  UNK     1       3.813   2.246  -0.099  1.00  0.00     0.259 C 
ENDROOT
BRANCH   3   9
HETATM    9  C6  UNK     1       0.331  -0.943   2.806  1.00  0.00     0.127 C 
BRANCH   9  10
HETATM   10  N2  UNK     1      -0.930  -1.397   2.303  1.00  0.00    -0.356 N 
HETATM   11  C9  UNK     1      -2.148  -1.032   2.861  1.00  0.00     0.257 C 
HETATM   12  O3  UNK     1      -2.311  -0.296   3.828  1.00  0.00    -0.267 OA
HETATM   13  H12 UNK     1      -0.906  -2.036   1.515  1.00  0.00     0.162 HD
BRANCH  11  14
HETATM   14  C12 UNK     1      -3.304  -1.626   2.165  1.00  0.00     0.108 A 
HETATM   15  C15 UNK     1      -4.387  -1.864   2.914  1.00  0.00     0.037 A 
HETATM   16  C17 UNK     1      -5.578  -2.448   2.317  1.00  0.00    -0.001 A 
HETATM   17  C20 UNK     1      -5.569  -2.754   0.960  1.00  0.00     0.089 A 
HETATM   18  C23 UNK     1      -6.730  -2.714   3.060  1.00  0.00     0.014 A 
HETATM   19  C24 UNK     1      -6.677  -3.315   0.327  1.00  0.00     0.038 A 
HETATM   20  O4  UNK     1      -4.427  -2.500   0.176  1.00  0.00    -0.274 OA
HETATM   21  C26 UNK     1      -7.822  -3.577   1.076  1.00  0.00     0.003 A 
HETATM   22  C25 UNK     1      -7.849  -3.277   2.439  1.00  0.00     0.001 A 
HETATM   23  C16 UNK     1      -3.273  -1.942   0.719  1.00  0.00     0.304 A 
HETATM   24  O6  UNK     1      -2.282  -1.726   0.030  1.00  0.00    -0.259 OA
ENDBRANCH  11  14
ENDBRANCH   9  10
ENDBRANCH   3   9
BRANCH   8  25
HETATM   25  C8  UNK     1       3.859   2.069  -1.565  1.00  0.00     0.108 A 
HETATM   26  C10 UNK     1       3.503   3.129  -2.300  1.00  0.00     0.037 A 
HETATM   27  C13 UNK     1       3.516   3.051  -3.752  1.00  0.00    -0.001 A 
HETATM   28  C14 UNK     1       3.903   1.861  -4.359  1.00  0.00     0.089 A 
HETATM   29  C18 UNK     1       3.152   4.132  -4.559  1.00  0.00     0.014 A 
HETATM   30  O2  UNK     1       4.277   0.749  -3.580  1.00  0.00    -0.274 OA
HETATM   31  C19 UNK     1       3.936   1.721  -5.745  1.00  0.00     0.038 A 
HETATM   32  C11 UNK     1       4.274   0.792  -2.189  1.00  0.00     0.304 A 
HETATM   33  O5  UNK     1       4.601  -0.181  -1.518  1.00  0.00    -0.259 OA
HETATM   34  C22 UNK     1       3.572   2.804  -6.543  1.00  0.00     0.003 A 
HETATM   35  C21 UNK     1       3.181   4.007  -5.951  1.00  0.00     0.001 A 
ENDBRANCH   8  25
TORSDOF 4
