REMARK  7 active torsions:
REMARK  status: ('A' for Active; 'I' for Inactive)
REMARK    1  A    between atoms: C11_18  and  O1_1 
REMARK    2  A    between atoms: C6_13  and  O1_1 
REMARK       I    between atoms: C7_14  and  N1_6 
REMARK    3  A    between atoms: C21_28  and  N2_7 
REMARK    4  A    between atoms: C1_8  and  C6_13 
REMARK    5  A    between atoms: C7_14  and  C8_15 
REMARK    6  A    between atoms: C8_15  and  C9_16 
REMARK    7  A    between atoms: C10_17  and  C12_19 
ROOT
HETATM    1  C8  UNK     1      -0.405   1.123  -1.308  1.00  0.00     0.043 C 
HETATM    2  C10 UNK     1       0.280   2.127  -0.733  1.00  0.00     0.029 C 
ENDROOT
BRANCH   1   3
HETATM    3  C7  UNK     1      -1.810   0.995  -0.873  1.00  0.00     0.254 C 
HETATM    4  O3  UNK     1      -2.663   1.614  -1.511  1.00  0.00    -0.267 OA
HETATM    5  N1  UNK     1      -2.078   0.181   0.224  1.00  0.00    -0.348 N 
HETATM    6  C4  UNK     1      -3.458   0.023   0.683  1.00  0.00     0.127 C 
HETATM    7  C5  UNK     1      -1.098  -0.565   1.022  1.00  0.00     0.127 C 
HETATM    8  C2  UNK     1      -3.867  -1.449   0.644  1.00  0.00     0.034 C 
HETATM    9  C1  UNK     1      -2.875  -2.359   1.378  1.00  0.00     0.088 C 
HETATM   10  C3  UNK     1      -1.419  -2.059   1.001  1.00  0.00     0.034 C 
BRANCH   9  11
HETATM   11  C6  UNK     1      -3.081  -2.255   2.862  1.00  0.00     0.263 C 
HETATM   12  O2  UNK     1      -2.207  -1.929   3.654  1.00  0.00    -0.265 OA
BRANCH  11  13
HETATM   13  O1  UNK     1      -4.369  -2.579   3.167  1.00  0.00    -0.322 OA
BRANCH  13  14
HETATM   14  C11 UNK     1      -4.705  -2.522   4.557  1.00  0.00     0.174 C 
HETATM   15  C15 UNK     1      -6.159  -2.905   4.730  1.00  0.00     0.034 C 
ENDBRANCH  13  14
ENDBRANCH  11  13
ENDBRANCH   9  11
ENDBRANCH   1   3
BRANCH   1  16
HETATM   16  C9  UNK     1       0.134   0.184  -2.301  1.00  0.00    -0.021 A 
HETATM   17  C13 UNK     1       0.727  -0.995  -1.874  1.00  0.00     0.012 A 
HETATM   18  C17 UNK     1       1.239  -1.887  -2.817  1.00  0.00     0.001 A 
HETATM   19  C20 UNK     1       1.151  -1.590  -4.177  1.00  0.00     0.000 A 
HETATM   20  C18 UNK     1       0.553  -0.401  -4.594  1.00  0.00     0.001 A 
HETATM   21  C14 UNK     1       0.041   0.491  -3.651  1.00  0.00     0.012 A 
ENDBRANCH   1  16
BRANCH   2  22
HETATM   22  C12 UNK     1       1.695   2.449  -0.967  1.00  0.00    -0.033 A 
HETATM   23  C16 UNK     1       2.669   1.869  -0.167  1.00  0.00     0.047 A 
HETATM   24  C21 UNK     1       4.011   2.175  -0.391  1.00  0.00     0.103 A 
HETATM   25  C23 UNK     1       4.365   3.056  -1.413  1.00  0.00     0.036 A 
HETATM   26  C22 UNK     1       3.376   3.632  -2.210  1.00  0.00     0.003 A 
HETATM   27  C19 UNK     1       2.034   3.327  -1.987  1.00  0.00     0.011 A 
BRANCH  24  28
HETATM   28  N2  UNK     1       5.018   1.589   0.420  1.00  0.00    -0.116 N 
HETATM   29  O4  UNK     1       6.220   1.877   0.201  1.00  0.00    -0.532 OA
HETATM   30  O5  UNK     1       4.679   0.799   1.335  1.00  0.00    -0.532 OA
ENDBRANCH  24  28
ENDBRANCH   2  22
TORSDOF 7
