REMARK  5 active torsions:
REMARK  status: ('A' for Active; 'I' for Inactive)
REMARK    1  A    between atoms: C5_11  and  N1_4 
REMARK    2  A    between atoms: C6_12  and  N2_5 
REMARK    3  A    between atoms: C14_20  and  N3_6 
REMARK       I    between atoms: C8_14  and  N3_6 
REMARK    4  A    between atoms: C5_11  and  C7_13 
REMARK    5  A    between atoms: C6_12  and  C8_14 
ROOT
HETATM    1  N1  UNK     1       1.862  -0.057  -0.470  1.00  0.00     0.096 N 
HETATM    2  N2  UNK     1      -0.214  -0.870   1.371  1.00  0.00     0.100 N 
HETATM    3  C1  UNK     1       2.177  -0.812   0.749  1.00  0.00     0.303 C 
HETATM    4  C2  UNK     1       0.510  -0.384  -0.941  1.00  0.00     0.303 C 
HETATM    5  C3  UNK     1       1.137  -0.541   1.842  1.00  0.00     0.303 C 
HETATM    6  C4  UNK     1      -0.529  -0.114   0.153  1.00  0.00     0.303 C 
ENDROOT
BRANCH   1   7
HETATM    7  C5  UNK     1       2.852  -0.319  -1.513  1.00  0.00     0.312 C 
BRANCH   7   8
HETATM    8  C7  UNK     1       2.911   0.777  -2.520  1.00  0.00    -0.011 A 
HETATM    9  C10 UNK     1       2.138   0.756  -3.615  1.00  0.00     0.092 A 
HETATM   10  C13 UNK     1       2.162   1.816  -4.636  1.00  0.00     0.288 A 
HETATM   11  O1  UNK     1       3.037   2.869  -4.420  1.00  0.00    -0.275 OA
HETATM   12  O3  UNK     1       1.440   1.763  -5.625  1.00  0.00    -0.260 OA
HETATM   13  C11 UNK     1       3.862   2.920  -3.279  1.00  0.00     0.090 A 
HETATM   14  C9  UNK     1       3.829   1.907  -2.319  1.00  0.00     0.006 A 
HETATM   15  C15 UNK     1       4.704   4.027  -3.165  1.00  0.00     0.045 A 
HETATM   16  C12 UNK     1       4.680   2.031  -1.213  1.00  0.00     0.015 A 
HETATM   17  C18 UNK     1       5.530   3.136  -1.085  1.00  0.00     0.007 A 
HETATM   18  C17 UNK     1       5.542   4.132  -2.060  1.00  0.00    -0.059 A 
HETATM   19  C21 UNK     1       6.450   5.306  -1.917  1.00  0.00     0.048 C 
ENDBRANCH   7   8
ENDBRANCH   1   7
BRANCH   2  20
HETATM   20  C6  UNK     1      -1.205  -0.611   2.414  1.00  0.00     0.375 C 
BRANCH  20  21
HETATM   21  C8  UNK     1      -2.449  -1.450   2.152  1.00  0.00     0.252 C 
HETATM   22  O2  UNK     1      -2.512  -2.157   1.143  1.00  0.00    -0.271 OA
HETATM   23  N3  UNK     1      -3.485  -1.316   3.105  1.00  0.00    -0.321 N 
HETATM   24  C16 UNK     1      -3.351  -0.456   4.292  1.00  0.00     0.159 C 
BRANCH  23  25
HETATM   25  C14 UNK     1      -4.777  -1.941   2.903  1.00  0.00     0.037 A 
HETATM   26  C19 UNK     1      -5.264  -2.135   1.610  1.00  0.00     0.036 A 
HETATM   27  C22 UNK     1      -6.507  -2.737   1.417  1.00  0.00    -0.060 A 
HETATM   28  C24 UNK     1      -7.263  -3.145   2.515  1.00  0.00     0.007 A 
HETATM   29  C25 UNK     1      -7.028  -2.944   0.035  1.00  0.00     0.048 C 
HETATM   30  C23 UNK     1      -6.776  -2.951   3.808  1.00  0.00     0.003 A 
HETATM   31  C20 UNK     1      -5.533  -2.349   4.002  1.00  0.00     0.030 A 
ENDBRANCH  23  25
ENDBRANCH  20  21
ENDBRANCH   2  20
TORSDOF 5
