REMARK  5 active torsions:
REMARK  status: ('A' for Active; 'I' for Inactive)
REMARK    1  A    between atoms: C16_22  and  O4_4 
REMARK    2  A    between atoms: C20_26  and  O4_4 
REMARK    3  A    between atoms: C7_13  and  N1_5 
REMARK    4  A    between atoms: C1_7  and  C4_10 
REMARK    5  A    between atoms: C20_26  and  C21_27 
ROOT
HETATM    1  O1  UNK     1      -1.784   0.274   2.141  1.00  0.00    -0.291 OA
HETATM    2  O2  UNK     1      -1.923  -2.341  -1.122  1.00  0.00    -0.274 OA
HETATM    3  O3  UNK     1       0.350  -2.514  -1.084  1.00  0.00    -0.259 OA
HETATM    4  N2  UNK     1       2.746   0.586   3.747  1.00  0.00    -0.191 NA
HETATM    5  C1  UNK     1       0.718  -0.642   1.072  1.00  0.00     0.108 C 
HETATM    6  C2  UNK     1      -0.632  -1.056   0.517  1.00  0.00     0.066 A 
HETATM    7  C3  UNK     1      -1.766  -0.584   1.055  1.00  0.00     0.104 A 
HETATM    8  C5  UNK     1       0.590   0.127   2.384  1.00  0.00     0.086 C 
HETATM    9  C6  UNK     1      -3.071  -0.951   0.512  1.00  0.00     0.033 A 
HETATM   10  C7  UNK     1      -0.611   0.545   2.843  1.00  0.00     0.159 C 
HETATM   11  C8  UNK     1      -0.669  -2.020  -0.614  1.00  0.00     0.298 A 
HETATM   12  C9  UNK     1      -3.111  -1.822  -0.574  1.00  0.00     0.092 A 
HETATM   13  C12 UNK     1      -4.285  -0.473   1.018  1.00  0.00     0.017 A 
HETATM   14  C15 UNK     1      -4.311  -2.222  -1.160  1.00  0.00     0.038 A 
HETATM   15  C17 UNK     1       1.781   0.380   3.137  1.00  0.00     0.100 C 
HETATM   16  C18 UNK     1      -5.498  -0.865   0.442  1.00  0.00     0.001 A 
HETATM   17  C19 UNK     1      -5.510  -1.738  -0.646  1.00  0.00     0.003 A 
ENDROOT
BRANCH   5  18
HETATM   18  C4  UNK     1       1.471   0.178   0.065  1.00  0.00    -0.044 A 
HETATM   19  C10 UNK     1       2.685  -0.285  -0.430  1.00  0.00     0.011 A 
HETATM   20  C13 UNK     1       3.384   0.476  -1.366  1.00  0.00     0.037 A 
HETATM   21  C16 UNK     1       2.864   1.696  -1.800  1.00  0.00     0.069 A 
HETATM   22  C14 UNK     1       1.646   2.153  -1.299  1.00  0.00     0.037 A 
HETATM   23  C11 UNK     1       0.947   1.391  -0.363  1.00  0.00     0.011 A 
BRANCH  21  24
HETATM   24  O4  UNK     1       3.547   2.439  -2.713  1.00  0.00    -0.348 OA
BRANCH  24  25
HETATM   25  C20 UNK     1       2.777   3.260  -3.590  1.00  0.00     0.202 C 
BRANCH  25  26
HETATM   26  C21 UNK     1       3.532   3.442  -4.865  1.00  0.00    -0.011 C 
HETATM   27  C22 UNK     1       3.074   3.066  -6.064  1.00  0.00     0.009 C 
ENDBRANCH  25  26
ENDBRANCH  24  25
ENDBRANCH  21  24
ENDBRANCH   5  18
BRANCH  10  28
HETATM   28  N1  UNK     1      -0.812   1.251   3.997  1.00  0.00    -0.379 N 
HETATM   29  H10 UNK     1      -0.035   1.509   4.592  1.00  0.00     0.158 HD
HETATM   30  H9  UNK     1      -1.756   1.515   4.249  1.00  0.00     0.158 HD
ENDBRANCH  10  28
TORSDOF 5
