REMARK  3 active torsions:
REMARK  status: ('A' for Active; 'I' for Inactive)
REMARK    1  A    between atoms: C9_13  and  O2_2 
REMARK    2  A    between atoms: C13_17  and  O3_3 
REMARK    3  A    between atoms: C3_7  and  C4_8 
ROOT
HETATM    1  O1  UNK     1       0.626  -0.948   1.300  1.00  0.00    -0.309 OA
HETATM    2  O4  UNK     1      -0.247  -3.191  -1.987  1.00  0.00    -0.287 OA
HETATM    3  C1  UNK     1       0.565  -3.128   0.231  1.00  0.00     0.051 A 
HETATM    4  C2  UNK     1       0.843  -2.302   1.319  1.00  0.00     0.090 A 
HETATM    5  C3  UNK     1       0.099  -0.379   0.151  1.00  0.00     0.090 A 
HETATM    6  C5  UNK     1       0.015  -2.527  -0.994  1.00  0.00     0.187 A 
HETATM    7  C6  UNK     1      -0.203  -1.067  -0.962  1.00  0.00     0.093 A 
HETATM    8  C7  UNK     1       0.806  -4.502   0.307  1.00  0.00     0.055 A 
HETATM    9  C8  UNK     1       1.366  -2.847   2.492  1.00  0.00     0.041 A 
HETATM   10  C9  UNK     1       1.329  -5.044   1.482  1.00  0.00     0.069 A 
HETATM   11  C11 UNK     1       1.609  -4.218   2.572  1.00  0.00     0.039 A 
ENDROOT
BRANCH   5  12
HETATM   12  C4  UNK     1      -0.089   1.083   0.236  1.00  0.00     0.001 A 
HETATM   13  C10 UNK     1      -0.382   1.683   1.464  1.00  0.00     0.051 A 
HETATM   14  C13 UNK     1      -0.561   3.064   1.544  1.00  0.00     0.069 A 
HETATM   15  C15 UNK     1      -0.447   3.849   0.397  1.00  0.00     0.037 A 
HETATM   16  C14 UNK     1      -0.155   3.254  -0.831  1.00  0.00     0.004 A 
HETATM   17  C12 UNK     1       0.024   1.873  -0.911  1.00  0.00     0.014 A 
BRANCH  14  18
HETATM   18  O3  UNK     1      -0.846   3.645   2.741  1.00  0.00    -0.356 OA
HETATM   19  C17 UNK     1      -1.015   5.062   2.751  1.00  0.00     0.210 C 
ENDBRANCH  14  18
ENDBRANCH   5  12
BRANCH  10  20
HETATM   20  O2  UNK     1       1.569  -6.382   1.565  1.00  0.00    -0.356 OA
HETATM   21  C16 UNK     1       2.105  -6.870   2.793  1.00  0.00     0.210 C 
ENDBRANCH  10  20
TORSDOF 3
