REMARK  6 active torsions:
REMARK  status: ('A' for Active; 'I' for Inactive)
REMARK    1  A    between atoms: C9_14  and  O3_3 
REMARK    2  A    between atoms: C10_15  and  O4_4 
REMARK    3  A    between atoms: C18_23  and  O5_5 
REMARK    4  A    between atoms: C1_6  and  C7_12 
REMARK    5  A    between atoms: C6_11  and  C8_13 
REMARK    6  A    between atoms: C14_19  and  C8_13 
ROOT
HETATM    1  O1  UNK     1      -0.039  -1.020   1.009  1.00  0.00    -0.339 OA
HETATM    2  O2  UNK     1       1.220   1.068   4.309  1.00  0.00    -0.292 OA
HETATM    3  C1  UNK     1       1.052  -1.500   1.809  1.00  0.00     0.169 C 
HETATM    4  C2  UNK     1       0.896  -1.068   3.266  1.00  0.00     0.121 C 
HETATM    5  C3  UNK     1      -0.193   0.341   1.078  1.00  0.00     0.095 A 
HETATM    6  C4  UNK     1       0.234   1.111   2.164  1.00  0.00     0.077 A 
HETATM    7  C5  UNK     1       0.841   0.436   3.329  1.00  0.00     0.167 C 
HETATM    8  C6  UNK     1      -0.838   0.955   0.003  1.00  0.00     0.013 A 
HETATM    9  C9  UNK     1       0.049   2.496   2.164  1.00  0.00     0.085 A 
HETATM   10  C10 UNK     1      -1.025   2.337   0.001  1.00  0.00     0.077 A 
HETATM   11  C11 UNK     1      -0.579   3.106   1.077  1.00  0.00     0.074 A 
ENDROOT
BRANCH   3  12
HETATM   12  C7  UNK     1       1.105  -3.009   1.690  1.00  0.00    -0.028 A 
HETATM   13  C12 UNK     1       2.220  -3.624   1.120  1.00  0.00     0.012 A 
HETATM   14  C15 UNK     1       2.268  -5.013   1.010  1.00  0.00     0.037 A 
HETATM   15  C18 UNK     1       1.203  -5.787   1.470  1.00  0.00     0.065 A 
HETATM   16  C16 UNK     1       0.088  -5.171   2.040  1.00  0.00     0.037 A 
HETATM   17  C13 UNK     1       0.040  -3.782   2.149  1.00  0.00     0.012 A 
BRANCH  15  18
HETATM   18  O5  UNK     1       1.251  -7.143   1.362  1.00  0.00    -0.361 OA
HETATM   19  H20 UNK     1       0.432  -7.518   1.729  1.00  0.00     0.217 HD
ENDBRANCH  15  18
ENDBRANCH   3  12
BRANCH   8  20
HETATM   20  C8  UNK     1      -1.320   0.141  -1.156  1.00  0.00     0.072 C 
BRANCH  20  21
HETATM   21  C14 UNK     1      -0.283   0.001  -2.242  1.00  0.00    -0.020 C 
HETATM   22  C17 UNK     1       0.247  -1.132  -2.742  1.00  0.00    -0.091 C 
HETATM   23  C19 UNK     1       1.281  -1.200  -3.830  1.00  0.00     0.042 C 
HETATM   24  C20 UNK     1      -0.180  -2.473  -2.206  1.00  0.00     0.042 C 
ENDBRANCH  20  21
ENDBRANCH   8  20
BRANCH   9  25
HETATM   25  O3  UNK     1       0.450   3.292   3.193  1.00  0.00    -0.360 OA
HETATM   26  H12 UNK     1       0.226   4.217   2.995  1.00  0.00     0.217 HD
ENDBRANCH   9  25
BRANCH  10  27
HETATM   27  O4  UNK     1      -1.644   2.956  -1.044  1.00  0.00    -0.360 OA
HETATM   28  H13 UNK     1      -1.683   3.912  -0.870  1.00  0.00     0.217 HD
ENDBRANCH  10  27
TORSDOF 6
