REMARK  7 active torsions:
REMARK  status: ('A' for Active; 'I' for Inactive)
REMARK    1  A    between atoms: C15_23  and  O3_4 
REMARK    2  A    between atoms: C23_31  and  O3_4 
REMARK    3  A    between atoms: C5_13  and  N1_6 
REMARK    4  A    between atoms: C6_14  and  N2_7 
REMARK    5  A    between atoms: C16_24  and  N3_8 
REMARK       I    between atoms: C9_17  and  N3_8 
REMARK    6  A    between atoms: C5_13  and  C7_15 
REMARK    7  A    between atoms: C6_14  and  C9_17 
ROOT
HETATM    1  N1  UNK     1       1.732   0.269  -0.099  1.00  0.00     0.096 N 
HETATM    2  N2  UNK     1      -0.388  -0.403   1.748  1.00  0.00     0.100 N 
HETATM    3  C1  UNK     1       0.815  -0.847  -0.364  1.00  0.00     0.303 C 
HETATM    4  C2  UNK     1       1.887   0.474   1.346  1.00  0.00     0.303 C 
HETATM    5  C3  UNK     1      -0.544  -0.607   0.303  1.00  0.00     0.303 C 
HETATM    6  C4  UNK     1       0.527   0.715   2.011  1.00  0.00     0.303 C 
ENDROOT
BRANCH   1   7
HETATM    7  C5  UNK     1       3.029   0.037  -0.732  1.00  0.00     0.312 C 
BRANCH   7   8
HETATM    8  C7  UNK     1       3.774   1.305  -0.967  1.00  0.00    -0.011 A 
HETATM    9  C10 UNK     1       4.608   1.799  -0.042  1.00  0.00     0.092 A 
HETATM   10  C13 UNK     1       5.366   3.048  -0.228  1.00  0.00     0.288 A 
HETATM   11  O1  UNK     1       5.183   3.714  -1.430  1.00  0.00    -0.275 OA
HETATM   12  O4  UNK     1       6.120   3.471   0.642  1.00  0.00    -0.260 OA
HETATM   13  C11 UNK     1       4.313   3.219  -2.422  1.00  0.00     0.090 A 
HETATM   14  C8  UNK     1       3.600   2.034  -2.231  1.00  0.00     0.009 A 
HETATM   15  C14 UNK     1       4.205   3.973  -3.592  1.00  0.00     0.041 A 
HETATM   16  C12 UNK     1       2.755   1.610  -3.265  1.00  0.00     0.051 A 
HETATM   17  C15 UNK     1       2.637   2.355  -4.443  1.00  0.00     0.069 A 
HETATM   18  C17 UNK     1       3.361   3.535  -4.607  1.00  0.00     0.039 A 
BRANCH  17  19
HETATM   19  O3  UNK     1       1.810   1.925  -5.436  1.00  0.00    -0.351 OA
BRANCH  19  20
HETATM   20  C23 UNK     1       1.619   0.517  -5.557  1.00  0.00     0.171 C 
HETATM   21  C25 UNK     1       1.334   0.180  -7.005  1.00  0.00     0.034 C 
ENDBRANCH  19  20
ENDBRANCH  17  19
ENDBRANCH   7   8
ENDBRANCH   1   7
BRANCH   2  22
HETATM   22  C6  UNK     1      -1.685  -0.172   2.382  1.00  0.00     0.375 C 
BRANCH  22  23
HETATM   23  C9  UNK     1      -2.419  -1.494   2.526  1.00  0.00     0.250 C 
HETATM   24  O2  UNK     1      -1.834  -2.562   2.677  1.00  0.00    -0.271 OA
HETATM   25  N3  UNK     1      -3.796  -1.290   2.467  1.00  0.00    -0.325 N 
HETATM   26  H15 UNK     1      -4.109  -0.331   2.348  1.00  0.00     0.169 HD
BRANCH  25  27
HETATM   27  C16 UNK     1      -4.818  -2.264   2.561  1.00  0.00     0.042 A 
HETATM   28  C18 UNK     1      -6.163  -1.903   2.482  1.00  0.00    -0.013 A 
HETATM   29  C20 UNK     1      -7.154  -2.881   2.577  1.00  0.00     0.042 A 
HETATM   30  C21 UNK     1      -6.532  -0.463   2.295  1.00  0.00     0.052 C 
HETATM   31 Cl1  UNK     1      -8.830  -2.478   2.484  1.00  0.00    -0.084 Cl
HETATM   32  C24 UNK     1      -6.799  -4.219   2.750  1.00  0.00     0.024 A 
HETATM   33  C22 UNK     1      -5.454  -4.579   2.829  1.00  0.00     0.004 A 
HETATM   34  C19 UNK     1      -4.463  -3.601   2.734  1.00  0.00     0.030 A 
ENDBRANCH  25  27
ENDBRANCH  22  23
ENDBRANCH   2  22
TORSDOF 7
