REMARK  4 active torsions:
REMARK  status: ('A' for Active; 'I' for Inactive)
REMARK    1  A    between atoms: C10_16  and  O2_2 
REMARK    2  A    between atoms: C13_19  and  O3_3 
REMARK    3  A    between atoms: C1_7  and  N1_6 
REMARK       I    between atoms: C8_14  and  N1_6 
REMARK    4  A    between atoms: C5_11  and  C8_14 
ROOT
HETATM    1  O4  UNK     1       1.528   0.870   1.716  1.00  0.00    -0.267 OA
HETATM    2  N1  UNK     1       0.101   0.078   0.024  1.00  0.00    -0.323 N 
HETATM    3  C8  UNK     1       1.257   0.682   0.535  1.00  0.00     0.256 C 
HETATM    4  H3  UNK     1       0.031  -0.053  -0.981  1.00  0.00     0.169 HD
ENDROOT
BRANCH   2   5
HETATM    5  C1  UNK     1      -0.985  -0.437   0.734  1.00  0.00     0.035 A 
HETATM    6  C4  UNK     1      -2.059  -1.007   0.045  1.00  0.00     0.043 A 
HETATM    7  C2  UNK     1      -3.147  -1.524   0.753  1.00  0.00     0.000 A 
HETATM    8  C11 UNK     1      -4.289  -2.128   0.088  1.00  0.00     0.020 A 
HETATM    9  C3  UNK     1      -3.137  -1.459   2.144  1.00  0.00     0.089 A 
HETATM   10  C15 UNK     1      -5.307  -2.609   0.806  1.00  0.00     0.083 A 
HETATM   11  C16 UNK     1      -5.320  -2.551   2.279  1.00  0.00     0.288 A 
HETATM   12  O1  UNK     1      -4.216  -1.968   2.894  1.00  0.00    -0.275 OA
HETATM   13  O5  UNK     1      -6.262  -2.996   2.924  1.00  0.00    -0.260 OA
HETATM   14  C7  UNK     1      -2.073  -0.892   2.844  1.00  0.00     0.040 A 
HETATM   15  C6  UNK     1      -0.992  -0.380   2.130  1.00  0.00     0.032 A 
ENDBRANCH   2   5
BRANCH   3  16
HETATM   16  C5  UNK     1       2.229   1.159  -0.483  1.00  0.00     0.035 A 
HETATM   17  C12 UNK     1       3.564   1.234  -0.144  1.00  0.00     0.020 A 
HETATM   18  C14 UNK     1       4.477   1.681  -1.100  1.00  0.00     0.040 A 
HETATM   19  C13 UNK     1       4.033   2.043  -2.372  1.00  0.00     0.101 A 
HETATM   20  C10 UNK     1       2.678   1.959  -2.688  1.00  0.00     0.102 A 
HETATM   21  C9  UNK     1       1.765   1.512  -1.733  1.00  0.00     0.056 A 
BRANCH  19  22
HETATM   22  O3  UNK     1       4.934   2.479  -3.296  1.00  0.00    -0.353 OA
HETATM   23  C18 UNK     1       5.195   3.880  -3.338  1.00  0.00     0.210 C 
ENDBRANCH  19  22
BRANCH  20  24
HETATM   24  O2  UNK     1       2.233   2.308  -3.927  1.00  0.00    -0.353 OA
HETATM   25  C17 UNK     1       2.189   1.280  -4.914  1.00  0.00     0.210 C 
ENDBRANCH  20  24
ENDBRANCH   3  16
TORSDOF 4
