REMARK  4 active torsions:
REMARK  status: ('A' for Active; 'I' for Inactive)
REMARK    1  A    between atoms: C9_12  and  O1_1 
REMARK    2  A    between atoms: C12_15  and  O2_2 
REMARK    3  A    between atoms: C1_4  and  C3_6 
REMARK    4  A    between atoms: C2_5  and  C4_7 
ROOT
HETATM    1  N1  UNK     1      -1.432   2.346  -1.339  1.00  0.00    -0.191 NA
HETATM    2  C3  UNK     1      -0.691   0.153  -0.177  1.00  0.00     0.055 C 
HETATM    3  C4  UNK     1       0.608  -0.233  -0.252  1.00  0.00     0.034 C 
HETATM    4  C15 UNK     1      -1.098   1.364  -0.819  1.00  0.00     0.100 C 
ENDROOT
BRANCH   2   5
HETATM    5  C1  UNK     1      -1.713  -0.634   0.539  1.00  0.00    -0.015 A 
HETATM    6  C5  UNK     1      -2.417  -1.610  -0.143  1.00  0.00     0.015 A 
HETATM    7  C10 UNK     1      -3.383  -2.354   0.535  1.00  0.00     0.037 A 
HETATM    8  C9  UNK     1      -3.630  -2.110   1.886  1.00  0.00     0.068 A 
HETATM    9  C11 UNK     1      -2.910  -1.122   2.559  1.00  0.00     0.037 A 
HETATM   10  C6  UNK     1      -1.945  -0.378   1.880  1.00  0.00     0.015 A 
BRANCH   8  11
HETATM   11  O1  UNK     1      -4.572  -2.836   2.547  1.00  0.00    -0.356 OA
HETATM   12  C16 UNK     1      -4.773  -2.534   3.928  1.00  0.00     0.210 C 
ENDBRANCH   8  11
ENDBRANCH   2   5
BRANCH   3  13
HETATM   13  C2  UNK     1       1.689   0.461  -0.935  1.00  0.00    -0.035 A 
HETATM   14  C7  UNK     1       1.972   0.171  -2.269  1.00  0.00     0.014 A 
HETATM   15  C13 UNK     1       3.008   0.838  -2.923  1.00  0.00     0.037 A 
HETATM   16  C12 UNK     1       3.761   1.795  -2.243  1.00  0.00     0.068 A 
HETATM   17  C14 UNK     1       3.477   2.085  -0.908  1.00  0.00     0.037 A 
HETATM   18  C8  UNK     1       2.441   1.418  -0.254  1.00  0.00     0.014 A 
BRANCH  16  19
HETATM   19  O2  UNK     1       4.771   2.445  -2.881  1.00  0.00    -0.356 OA
HETATM   20  C17 UNK     1       5.501   3.412  -2.127  1.00  0.00     0.210 C 
ENDBRANCH  16  19
ENDBRANCH   3  13
TORSDOF 4
