REMARK  4 active torsions:
REMARK  status: ('A' for Active; 'I' for Inactive)
REMARK       I    between atoms: C17_25  and  N1_6 
REMARK    1  A    between atoms: N1_6  and  N2_7 
REMARK    2  A    between atoms: C14_22  and  N3_8 
REMARK    3  A    between atoms: C11_19  and  C4_12 
REMARK    4  A    between atoms: C10_18  and  C17_25 
ROOT
HETATM    1  O3  UNK     1       0.135   0.761  -2.695  1.00  0.00    -0.266 OA
HETATM    2  N1  UNK     1       0.740   0.579  -0.468  1.00  0.00    -0.243 N 
HETATM    3  C17 UNK     1       0.948   0.928  -1.789  1.00  0.00     0.271 C 
HETATM    4  H11 UNK     1       1.441   0.670   0.260  1.00  0.00     0.192 HD
ENDROOT
BRANCH   2   5
HETATM    5  N2  UNK     1      -0.440   0.009  -0.128  1.00  0.00    -0.183 NA
HETATM    6  C11 UNK     1      -0.529  -0.313   1.122  1.00  0.00     0.156 C 
BRANCH   6   7
HETATM    7  C4  UNK     1      -1.722  -0.940   1.689  1.00  0.00     0.056 A 
HETATM    8  C3  UNK     1      -2.930  -1.265   0.899  1.00  0.00     0.198 A 
HETATM    9  C1  UNK     1      -4.037  -1.896   1.642  1.00  0.00     0.049 A 
HETATM   10  O2  UNK     1      -3.010  -1.024  -0.298  1.00  0.00    -0.286 OA
HETATM   11  C2  UNK     1      -3.884  -2.143   3.008  1.00  0.00     0.089 A 
HETATM   12  C5  UNK     1      -5.224  -2.244   0.992  1.00  0.00     0.018 A 
HETATM   13  O1  UNK     1      -2.741  -1.822   3.698  1.00  0.00    -0.321 OA
HETATM   14  C6  UNK     1      -4.919  -2.738   3.730  1.00  0.00     0.038 A 
HETATM   15  C7  UNK     1      -1.716  -1.234   2.994  1.00  0.00     0.159 A 
HETATM   16  C9  UNK     1      -6.105  -3.086   3.083  1.00  0.00     0.003 A 
HETATM   17  C8  UNK     1      -6.256  -2.840   1.718  1.00  0.00     0.001 A 
ENDBRANCH   6   7
ENDBRANCH   2   5
BRANCH   3  18
HETATM   18  C10 UNK     1       2.272   1.529  -2.099  1.00  0.00     0.033 A 
HETATM   19  C12 UNK     1       2.785   1.390  -3.371  1.00  0.00     0.019 A 
HETATM   20  C15 UNK     1       4.029   1.953  -3.661  1.00  0.00     0.037 A 
HETATM   21  C14 UNK     1       4.730   2.642  -2.671  1.00  0.00     0.102 A 
HETATM   22  C16 UNK     1       4.188   2.768  -1.392  1.00  0.00     0.037 A 
HETATM   23  C13 UNK     1       2.944   2.205  -1.103  1.00  0.00     0.019 A 
BRANCH  21  24
HETATM   24  N3  UNK     1       5.996   3.213  -2.965  1.00  0.00    -0.116 N 
HETATM   25  O4  UNK     1       6.466   3.086  -4.122  1.00  0.00    -0.532 OA
HETATM   26  O5  UNK     1       6.610   3.829  -2.061  1.00  0.00    -0.532 OA
ENDBRANCH  21  24
ENDBRANCH   3  18
TORSDOF 4
