REMARK  4 active torsions:
REMARK  status: ('A' for Active; 'I' for Inactive)
REMARK    1  A    between atoms: N1_7  and  N3_9 
REMARK    2  A    between atoms: C7_16  and  N2_8 
REMARK       I    between atoms: C13_22  and  N3_9 
REMARK    3  A    between atoms: C3_12  and  C8_17 
REMARK    4  A    between atoms: C12_21  and  C13_22 
ROOT
HETATM    1  O1  UNK     1       1.257   1.186  -3.616  1.00  0.00    -0.274 OA
HETATM    2  O2  UNK     1      -0.864   0.361  -3.419  1.00  0.00    -0.259 OA
HETATM    3  C1  UNK     1       2.550   1.664  -1.613  1.00  0.00     0.001 A 
HETATM    4  C2  UNK     1       2.441   1.637  -3.000  1.00  0.00     0.089 A 
HETATM    5  C3  UNK     1       0.300   0.791  -1.401  1.00  0.00     0.066 A 
HETATM    6  C4  UNK     1       1.422   1.218  -0.810  1.00  0.00     0.034 A 
HETATM    7  C5  UNK     1       3.740   2.118  -1.039  1.00  0.00     0.050 A 
HETATM    8  C6  UNK     1       3.484   2.050  -3.826  1.00  0.00     0.041 A 
HETATM    9  C7  UNK     1       4.796   2.535  -1.856  1.00  0.00     0.103 A 
HETATM   10  C9  UNK     1       0.162   0.754  -2.874  1.00  0.00     0.300 A 
HETATM   11  C10 UNK     1       4.668   2.501  -3.246  1.00  0.00     0.039 A 
ENDROOT
BRANCH   5  12
HETATM   12  C8  UNK     1      -0.781   0.361  -0.506  1.00  0.00     0.067 C 
HETATM   13  C11 UNK     1      -1.769   1.437  -0.081  1.00  0.00     0.073 C 
HETATM   14  N1  UNK     1      -1.020  -0.823  -0.009  1.00  0.00    -0.176 NA
BRANCH  14  15
HETATM   15  N3  UNK     1      -2.092  -0.968   0.801  1.00  0.00    -0.243 N 
HETATM   16  C13 UNK     1      -2.348  -2.220   1.329  1.00  0.00     0.271 C 
HETATM   17  O5  UNK     1      -1.670  -3.223   1.118  1.00  0.00    -0.266 OA
HETATM   18  H8  UNK     1      -2.728  -0.200   0.950  1.00  0.00     0.192 HD
BRANCH  16  19
HETATM   19  C12 UNK     1      -3.551  -2.323   2.195  1.00  0.00     0.033 A 
HETATM   20  C14 UNK     1      -4.194  -3.539   2.298  1.00  0.00     0.019 A 
HETATM   21  C16 UNK     1      -5.323  -3.636   3.111  1.00  0.00     0.025 A 
HETATM   22  C18 UNK     1      -5.783  -2.516   3.803  1.00  0.00     0.034 A 
HETATM   23  C17 UNK     1      -5.114  -1.298   3.682  1.00  0.00     0.025 A 
HETATM   24 Cl1  UNK     1      -7.177  -2.635   4.805  1.00  0.00    -0.084 Cl
HETATM   25  C15 UNK     1      -3.985  -1.200   2.869  1.00  0.00     0.019 A 
ENDBRANCH  16  19
ENDBRANCH  14  15
ENDBRANCH   5  12
BRANCH   9  26
HETATM   26  N2  UNK     1       6.004   2.996  -1.269  1.00  0.00    -0.116 N 
HETATM   27  O3  UNK     1       6.941   3.366  -2.017  1.00  0.00    -0.532 OA
HETATM   28  O4  UNK     1       6.102   3.020  -0.018  1.00  0.00    -0.532 OA
ENDBRANCH   9  26
TORSDOF 4
