REMARK  2 active torsions:
REMARK  status: ('A' for Active; 'I' for Inactive)
REMARK    1  A    between atoms: C12_19  and  N3_7 
REMARK    2  A    between atoms: C1_8  and  C2_9 
ROOT
HETATM    1  O1  UNK     1       1.952   0.718   1.300  1.00  0.00    -0.274 OA
HETATM    2  O2  UNK     1       0.442  -0.270   2.696  1.00  0.00    -0.259 OA
HETATM    3  C1  UNK     1      -0.179  -0.101   0.404  1.00  0.00     0.086 A 
HETATM    4  C3  UNK     1       1.457   0.931  -1.069  1.00  0.00     0.001 A 
HETATM    5  C5  UNK     1       0.171   0.294  -0.829  1.00  0.00     0.035 A 
HETATM    6  C7  UNK     1       2.318   1.130   0.004  1.00  0.00     0.089 A 
HETATM    7  C8  UNK     1       0.734   0.096   1.562  1.00  0.00     0.302 A 
HETATM    8  C9  UNK     1       1.854   1.351  -2.340  1.00  0.00     0.050 A 
HETATM    9  C10 UNK     1       3.563   1.735  -0.157  1.00  0.00     0.041 A 
HETATM   10  C12 UNK     1       3.100   1.960  -2.517  1.00  0.00     0.103 A 
HETATM   11  C14 UNK     1       3.952   2.152  -1.428  1.00  0.00     0.039 A 
ENDROOT
BRANCH   3  12
HETATM   12  C2  UNK     1      -1.454  -0.718   0.606  1.00  0.00     0.145 A 
HETATM   13  N1  UNK     1      -2.048  -0.546   1.825  1.00  0.00    -0.338 N 
HETATM   14  C4  UNK     1      -3.246  -1.213   1.804  1.00  0.00     0.062 A 
HETATM   15  H2  UNK     1      -1.689  -0.016   2.608  1.00  0.00     0.167 HD
HETATM   16  C11 UNK     1      -4.249  -1.372   2.762  1.00  0.00     0.032 A 
HETATM   17  C6  UNK     1      -3.311  -1.769   0.530  1.00  0.00     0.086 A 
HETATM   18  C15 UNK     1      -5.360  -2.135   2.389  1.00  0.00     0.002 A 
HETATM   19  C16 UNK     1      -5.454  -2.706   1.118  1.00  0.00     0.002 A 
HETATM   20  C13 UNK     1      -4.435  -2.533   0.173  1.00  0.00     0.034 A 
HETATM   21  N2  UNK     1      -2.189  -1.451  -0.200  1.00  0.00    -0.228 NA
ENDBRANCH   3  12
BRANCH  10  22
HETATM   22  N3  UNK     1       3.501   2.387  -3.812  1.00  0.00    -0.116 N 
HETATM   23  O3  UNK     1       4.622   2.931  -3.952  1.00  0.00    -0.532 OA
HETATM   24  O4  UNK     1       2.723   2.206  -4.779  1.00  0.00    -0.532 OA
ENDBRANCH  10  22
TORSDOF 2
