REMARK  1 active torsions:
REMARK  status: ('A' for Active; 'I' for Inactive)
REMARK    1  A    between atoms: C12_18  and  C4_10 
ROOT
HETATM    1  N1  UNK     1       3.010   3.104  -0.924  1.00  0.00    -0.191 NA
HETATM    2  N2  UNK     1       3.388   1.494   3.221  1.00  0.00    -0.191 NA
HETATM    3  C12 UNK     1       1.368   0.451   0.653  1.00  0.00     0.048 C 
HETATM    4  C16 UNK     1       2.289   1.394   0.879  1.00  0.00     0.125 C 
HETATM    5  C17 UNK     1       2.894   1.448   2.172  1.00  0.00     0.111 C 
HETATM    6  C18 UNK     1       2.684   2.336  -0.118  1.00  0.00     0.111 C 
ENDROOT
BRANCH   3   7
HETATM    7  C4  UNK     1       0.644   0.233  -0.589  1.00  0.00     0.003 C 
HETATM    8  C2  UNK     1      -0.812  -0.085  -0.622  1.00  0.00     0.044 A 
HETATM    9  C5  UNK     1      -1.520   0.117  -1.812  1.00  0.00     0.084 A 
HETATM   10  C8  UNK     1      -1.548  -0.592   0.468  1.00  0.00     0.103 A 
HETATM   11  C10 UNK     1      -2.903  -0.086  -1.890  1.00  0.00     0.039 A 
HETATM   12  O1  UNK     1      -0.922   0.537  -2.967  1.00  0.00    -0.334 OA
HETATM   13  C11 UNK     1      -3.607  -0.551  -0.784  1.00  0.00     0.017 A 
HETATM   14  C9  UNK     1      -2.928  -0.822   0.402  1.00  0.00    -0.001 A 
HETATM   15  C13 UNK     1      -3.628  -1.340   1.568  1.00  0.00     0.020 A 
HETATM   16  C14 UNK     1      -2.966  -1.620   2.691  1.00  0.00     0.083 A 
HETATM   17  C15 UNK     1      -1.512  -1.422   2.799  1.00  0.00     0.288 A 
HETATM   18  O2  UNK     1      -0.873  -0.919   1.672  1.00  0.00    -0.274 OA
HETATM   19  O3  UNK     1      -0.905  -1.688   3.830  1.00  0.00    -0.260 OA
HETATM   20  C1  UNK     1       0.482   0.227  -3.112  1.00  0.00     0.099 C 
HETATM   21  C3  UNK     1       1.244   0.337  -1.796  1.00  0.00     0.057 C 
HETATM   22  C6  UNK     1       0.953   1.243  -4.171  1.00  0.00     0.052 C 
HETATM   23  C7  UNK     1       0.602  -1.191  -3.695  1.00  0.00     0.052 C 
HETATM   24 Cl1  UNK     1       2.964   0.606  -1.954  1.00  0.00    -0.085 Cl
ENDBRANCH   3   7
TORSDOF 1
