REMARK  5 active torsions:
REMARK  status: ('A' for Active; 'I' for Inactive)
REMARK    1  A    between atoms: C7_13  and  O2_2 
REMARK    2  A    between atoms: C5_11  and  O3_3 
REMARK    3  A    between atoms: C11_17  and  O4_4 
REMARK    4  A    between atoms: C14_20  and  O5_5 
REMARK    5  A    between atoms: C1_7  and  C3_9 
ROOT
HETATM    1  O1  UNK     1       0.066  -1.455   0.182  1.00  0.00    -0.306 OA
HETATM    2  O6  UNK     1       1.432  -2.731   3.803  1.00  0.00    -0.284 OA
HETATM    3  C1  UNK     1       0.224  -0.579   1.245  1.00  0.00     0.126 A 
HETATM    4  C2  UNK     1       0.868  -3.272   1.578  1.00  0.00     0.053 A 
HETATM    5  C4  UNK     1       0.394  -2.773   0.367  1.00  0.00     0.090 A 
HETATM    6  C5  UNK     1       0.662  -0.934   2.467  1.00  0.00     0.152 A 
HETATM    7  C6  UNK     1       1.025  -2.350   2.713  1.00  0.00     0.220 A 
HETATM    8  C8  UNK     1       1.185  -4.626   1.708  1.00  0.00     0.055 A 
HETATM    9  C10 UNK     1       0.233  -3.628  -0.724  1.00  0.00     0.041 A 
HETATM   10  C11 UNK     1       1.024  -5.479   0.615  1.00  0.00     0.069 A 
HETATM   11  C13 UNK     1       0.549  -4.981  -0.599  1.00  0.00     0.039 A 
ENDROOT
BRANCH   3  12
HETATM   12  C3  UNK     1      -0.164   0.803   0.913  1.00  0.00     0.034 A 
HETATM   13  C7  UNK     1       0.768   1.715   0.415  1.00  0.00     0.084 A 
HETATM   14  C12 UNK     1       0.377   3.019   0.107  1.00  0.00     0.074 A 
HETATM   15  C14 UNK     1      -0.948   3.412   0.297  1.00  0.00     0.070 A 
HETATM   16  C15 UNK     1      -1.881   2.502   0.795  1.00  0.00     0.038 A 
HETATM   17  C9  UNK     1      -1.490   1.199   1.102  1.00  0.00     0.020 A 
BRANCH  13  18
HETATM   18  O2  UNK     1       2.069   1.357   0.219  1.00  0.00    -0.355 OA
HETATM   19  C16 UNK     1       2.408   0.824  -1.059  1.00  0.00     0.210 C 
ENDBRANCH  13  18
BRANCH  15  20
HETATM   20  O5  UNK     1      -1.330   4.683  -0.002  1.00  0.00    -0.356 OA
HETATM   21  C18 UNK     1      -2.700   5.018   0.216  1.00  0.00     0.210 C 
ENDBRANCH  15  20
ENDBRANCH   3  12
BRANCH   6  22
HETATM   22  O3  UNK     1       0.776  -0.044   3.513  1.00  0.00    -0.355 OA
HETATM   23  H7  UNK     1       0.507   0.842   3.223  1.00  0.00     0.218 HD
ENDBRANCH   6  22
BRANCH  10  24
HETATM   24  O4  UNK     1       1.328  -6.801   0.733  1.00  0.00    -0.356 OA
HETATM   25  C17 UNK     1       1.137  -7.616  -0.422  1.00  0.00     0.210 C 
ENDBRANCH  10  24
TORSDOF 5
