REMARK  1 active torsions:
REMARK  status: ('A' for Active; 'I' for Inactive)
REMARK    1  A    between atoms: C5_9  and  O2_2 
ROOT
HETATM    1  O1  UNK     1      -0.351   0.175  -1.668  1.00  0.00    -0.273 OA
HETATM    2  O3  UNK     1       1.061   1.015  -3.254  1.00  0.00    -0.258 OA
HETATM    3  N1  UNK     1       4.057   2.227  -1.649  1.00  0.00    -0.191 NA
HETATM    4  C1  UNK     1       0.303   0.211   0.670  1.00  0.00    -0.000 A 
HETATM    5  C2  UNK     1      -0.623  -0.107  -0.316  1.00  0.00     0.092 A 
HETATM    6  C3  UNK     1      -1.841  -0.712  -0.012  1.00  0.00     0.075 A 
HETATM    7  C4  UNK     1      -0.001  -0.084   2.001  1.00  0.00     0.017 A 
HETATM    8  C5  UNK     1      -2.136  -1.004   1.318  1.00  0.00     0.070 A 
HETATM    9  C6  UNK     1       1.555   0.840   0.280  1.00  0.00     0.043 A 
HETATM   10  C7  UNK     1      -1.218  -0.690   2.323  1.00  0.00     0.038 A 
HETATM   11  C8  UNK     1       1.818   1.109  -1.005  1.00  0.00     0.120 A 
HETATM   12  C9  UNK     1       0.839   0.776  -2.071  1.00  0.00     0.309 A 
HETATM   13  C11 UNK     1       3.052   1.726  -1.360  1.00  0.00     0.105 C 
ENDROOT
BRANCH   8  14
HETATM   14  O2  UNK     1      -3.320  -1.594   1.638  1.00  0.00    -0.356 OA
HETATM   15  C10 UNK     1      -4.199  -1.881   0.556  1.00  0.00     0.210 C 
ENDBRANCH   8  14
TORSDOF 1
