REMARK  5 active torsions:
REMARK  status: ('A' for Active; 'I' for Inactive)
REMARK    1  A    between atoms: C5_12  and  O1_2 
REMARK    2  A    between atoms: C7_14  and  O1_2 
REMARK       I    between atoms: C10_17  and  N1_7 
REMARK    3  A    between atoms: C3_10  and  N1_7 
REMARK    4  A    between atoms: C1_8  and  C5_12 
REMARK    5  A    between atoms: C10_17  and  C9_16 
ROOT
HETATM    1  O4  UNK     1       1.440   0.430   2.072  1.00  0.00    -0.267 OA
HETATM    2  N1  UNK     1      -0.439   0.059   0.701  1.00  0.00    -0.316 N 
HETATM    3  C10 UNK     1       0.844   0.498   0.998  1.00  0.00     0.262 C 
HETATM    4  H5  UNK     1      -0.789   0.168  -0.247  1.00  0.00     0.169 HD
ENDROOT
BRANCH   2   5
HETATM    5  C3  UNK     1      -1.359  -0.572   1.573  1.00  0.00     0.094 A 
HETATM    6  C1  UNK     1      -2.608  -1.015   1.335  1.00  0.00     0.080 A 
HETATM    7  C2  UNK     1      -3.169  -1.588   2.514  1.00  0.00    -0.030 A 
HETATM    8  C4  UNK     1      -2.295  -1.540   3.578  1.00  0.00    -0.012 A 
HETATM    9  C6  UNK     1      -4.532  -2.170   2.588  1.00  0.00     0.050 C 
HETATM   10  S1  UNK     1      -0.807  -0.806   3.155  1.00  0.00    -0.076 SA
HETATM   11  C8  UNK     1      -2.490  -2.024   4.963  1.00  0.00     0.057 C 
BRANCH   6  12
HETATM   12  C5  UNK     1      -3.269  -0.915   0.058  1.00  0.00     0.297 C 
HETATM   13  O3  UNK     1      -4.499  -0.803  -0.101  1.00  0.00    -0.259 OA
BRANCH  12  14
HETATM   14  O1  UNK     1      -2.380  -0.957  -0.987  1.00  0.00    -0.313 OA
BRANCH  14  15
HETATM   15  C7  UNK     1      -2.843  -1.514  -2.223  1.00  0.00     0.124 C 
HETATM   16  C14 UNK     1      -1.728  -1.439  -3.254  1.00  0.00     0.040 C 
HETATM   17  C15 UNK     1      -3.302  -2.945  -1.987  1.00  0.00     0.040 C 
ENDBRANCH  14  15
ENDBRANCH  12  14
ENDBRANCH   6  12
ENDBRANCH   2   5
BRANCH   3  18
HETATM   18  C9  UNK     1       1.505   1.105  -0.164  1.00  0.00     0.108 A 
HETATM   19  C12 UNK     1       2.837   0.993  -0.212  1.00  0.00     0.037 A 
HETATM   20  C11 UNK     1       3.581   1.562  -1.325  1.00  0.00    -0.001 A 
HETATM   21  C13 UNK     1       2.885   2.222  -2.332  1.00  0.00     0.089 A 
HETATM   22  C17 UNK     1       4.972   1.469  -1.416  1.00  0.00     0.014 A 
HETATM   23  O2  UNK     1       1.483   2.337  -2.276  1.00  0.00    -0.274 OA
HETATM   24  C18 UNK     1       3.538   2.790  -3.424  1.00  0.00     0.038 A 
HETATM   25  C16 UNK     1       0.743   1.802  -1.225  1.00  0.00     0.304 A 
HETATM   26  O5  UNK     1      -0.478   1.907  -1.184  1.00  0.00    -0.259 OA
HETATM   27  C20 UNK     1       4.925   2.693  -3.507  1.00  0.00     0.003 A 
HETATM   28  C19 UNK     1       5.641   2.034  -2.506  1.00  0.00     0.001 A 
ENDBRANCH   3  18
TORSDOF 5
