REMARK  6 active torsions:
REMARK  status: ('A' for Active; 'I' for Inactive)
REMARK    1  A    between atoms: C8_17  and  O1_3 
REMARK    2  A    between atoms: C9_18  and  O1_3 
REMARK    3  A    between atoms: C15_24  and  O3_5 
REMARK       I    between atoms: C12_21  and  N1_9 
REMARK    4  A    between atoms: C3_12  and  N1_9 
REMARK    5  A    between atoms: C1_10  and  C8_17 
REMARK    6  A    between atoms: C12_21  and  C7_16 
ROOT
HETATM    1  S1  UNK     1       0.072   0.368   2.954  1.00  0.00    -0.082 SA
HETATM    2  F1  UNK     1      -6.710  -3.882   3.267  1.00  0.00    -0.206 F 
HETATM    3  C1  UNK     1      -1.423  -0.681   1.147  1.00  0.00     0.085 A 
HETATM    4  C2  UNK     1      -2.035  -0.991   2.396  1.00  0.00    -0.000 A 
HETATM    5  C3  UNK     1      -0.288   0.044   1.325  1.00  0.00     0.094 A 
HETATM    6  C4  UNK     1      -3.245  -1.739   2.621  1.00  0.00    -0.024 A 
HETATM    7  C5  UNK     1      -1.326  -0.481   3.461  1.00  0.00     0.065 A 
HETATM    8  C13 UNK     1      -3.184  -3.121   2.791  1.00  0.00     0.015 A 
HETATM    9  C14 UNK     1      -4.470  -1.079   2.668  1.00  0.00     0.015 A 
HETATM   10  C22 UNK     1      -4.356  -3.845   3.009  1.00  0.00     0.043 A 
HETATM   11  C23 UNK     1      -5.641  -1.803   2.887  1.00  0.00     0.043 A 
HETATM   12  C24 UNK     1      -5.584  -3.187   3.057  1.00  0.00     0.116 A 
ENDROOT
BRANCH   5  13
HETATM   13  N1  UNK     1       0.616   0.558   0.390  1.00  0.00    -0.316 N 
HETATM   14  C12 UNK     1       1.758   1.293   0.675  1.00  0.00     0.262 C 
HETATM   15  O5  UNK     1       2.197   1.635   1.772  1.00  0.00    -0.267 OA
HETATM   16  H2  UNK     1       0.391   0.334  -0.575  1.00  0.00     0.169 HD
BRANCH  14  17
HETATM   17  C7  UNK     1       2.481   1.676  -0.544  1.00  0.00     0.108 A 
HETATM   18  C11 UNK     1       3.807   1.808  -0.428  1.00  0.00     0.037 A 
HETATM   19  C6  UNK     1       4.610   2.184  -1.582  1.00  0.00     0.002 A 
HETATM   20  C10 UNK     1       3.976   2.404  -2.800  1.00  0.00     0.123 A 
HETATM   21  C16 UNK     1       5.997   2.332  -1.507  1.00  0.00     0.014 A 
HETATM   22  C15 UNK     1       4.687   2.767  -3.942  1.00  0.00     0.102 A 
HETATM   23  O2  UNK     1       2.579   2.265  -2.915  1.00  0.00    -0.271 OA
HETATM   24  C20 UNK     1       6.070   2.913  -3.859  1.00  0.00     0.040 A 
HETATM   25  C21 UNK     1       6.724   2.695  -2.645  1.00  0.00     0.004 A 
HETATM   26  C17 UNK     1       1.785   1.905  -1.830  1.00  0.00     0.304 A 
HETATM   27  O6  UNK     1       0.569   1.785  -1.940  1.00  0.00    -0.259 OA
BRANCH  22  28
HETATM   28  O3  UNK     1       4.054   2.980  -5.127  1.00  0.00    -0.353 OA
HETATM   29  C25 UNK     1       3.898   1.856  -5.992  1.00  0.00     0.210 C 
ENDBRANCH  22  28
ENDBRANCH  14  17
ENDBRANCH   5  13
BRANCH   3  30
HETATM   30  C8  UNK     1      -1.918  -1.070  -0.150  1.00  0.00     0.297 C 
HETATM   31  O4  UNK     1      -1.359  -0.782  -1.218  1.00  0.00    -0.259 OA
BRANCH  30  32
HETATM   32  O1  UNK     1      -3.085  -1.802  -0.106  1.00  0.00    -0.313 OA
BRANCH  32  33
HETATM   33  C9  UNK     1      -3.973  -1.671  -1.222  1.00  0.00     0.124 C 
HETATM   34  C18 UNK     1      -5.180  -2.571  -1.010  1.00  0.00     0.040 C 
HETATM   35  C19 UNK     1      -4.373  -0.211  -1.375  1.00  0.00     0.040 C 
ENDBRANCH  32  33
ENDBRANCH  30  32
ENDBRANCH   3  30
TORSDOF 6
