REMARK  2 active torsions:
REMARK  status: ('A' for Active; 'I' for Inactive)
REMARK    1  A    between atoms: C5_11  and  N1_6 
REMARK       I    between atoms: C6_12  and  N1_6 
REMARK    2  A    between atoms: C2_8  and  C6_12 
ROOT
HETATM    1 Br1  UNK     1       6.554   2.536  -1.487  1.00  0.00    -0.051 Br
HETATM    2  O1  UNK     1       0.734   1.341  -2.715  1.00  0.00    -0.274 OA
HETATM    3  O3  UNK     1      -1.334   0.645  -2.038  1.00  0.00    -0.259 OA
HETATM    4  C1  UNK     1       2.560   1.417  -1.111  1.00  0.00     0.000 A 
HETATM    5  C2  UNK     1       0.368   0.677  -0.390  1.00  0.00     0.108 A 
HETATM    6  C3  UNK     1       2.081   1.611  -2.403  1.00  0.00     0.089 A 
HETATM    7  C4  UNK     1       1.647   0.931  -0.088  1.00  0.00     0.037 A 
HETATM    8  C8  UNK     1       3.902   1.695  -0.841  1.00  0.00     0.033 A 
HETATM    9  C10 UNK     1      -0.163   0.876  -1.757  1.00  0.00     0.304 A 
HETATM   10  C11 UNK     1       2.903   2.074  -3.428  1.00  0.00     0.039 A 
HETATM   11  C14 UNK     1       4.739   2.160  -1.859  1.00  0.00     0.011 A 
HETATM   12  C15 UNK     1       4.240   2.349  -3.150  1.00  0.00     0.022 A 
ENDROOT
BRANCH   5  13
HETATM   13  C6  UNK     1      -0.474   0.191   0.709  1.00  0.00     0.262 C 
HETATM   14  O2  UNK     1      -0.229   0.537   1.864  1.00  0.00    -0.267 OA
HETATM   15  N1  UNK     1      -1.490  -0.642   0.262  1.00  0.00    -0.320 N 
HETATM   16  H2  UNK     1      -1.546  -0.850  -0.732  1.00  0.00     0.169 HD
BRANCH  15  17
HETATM   17  C5  UNK     1      -2.482  -1.288   1.039  1.00  0.00     0.074 A 
HETATM   18  C12 UNK     1      -3.421  -2.090   0.411  1.00  0.00     0.143 A 
HETATM   19  C16 UNK     1      -4.396  -2.726   1.179  1.00  0.00     0.045 A 
HETATM   20  F1  UNK     1      -3.408  -2.265  -0.918  1.00  0.00    -0.204 F 
HETATM   21  C13 UNK     1      -4.419  -2.551   2.563  1.00  0.00     0.010 A 
HETATM   22  C7  UNK     1      -3.466  -1.740   3.179  1.00  0.00    -0.060 A 
HETATM   23  C17 UNK     1      -3.491  -1.553   4.658  1.00  0.00     0.048 C 
HETATM   24  C9  UNK     1      -2.491  -1.104   2.412  1.00  0.00     0.039 A 
ENDBRANCH  15  17
ENDBRANCH   5  13
TORSDOF 2
