REMARK  2 active torsions:
REMARK  status: ('A' for Active; 'I' for Inactive)
REMARK    1  A    between atoms: C8_14  and  N1_5 
REMARK    2  A    between atoms: C1_7  and  C5_11 
ROOT
HETATM    1  O1  UNK     1      -0.647   0.518  -2.050  1.00  0.00    -0.291 OA
HETATM    2  O2  UNK     1       2.662   0.397   0.506  1.00  0.00    -0.274 OA
HETATM    3  O3  UNK     1       1.558  -1.056   1.872  1.00  0.00    -0.259 OA
HETATM    4  N2  UNK     1      -3.914  -2.701  -0.581  1.00  0.00    -0.191 NA
HETATM    5  C1  UNK     1      -0.888  -1.042   0.354  1.00  0.00     0.115 C 
HETATM    6  C2  UNK     1       0.367  -0.272  -0.031  1.00  0.00     0.067 A 
HETATM    7  C3  UNK     1       0.410   0.449  -1.161  1.00  0.00     0.104 A 
HETATM    8  C4  UNK     1      -1.896  -1.088  -0.795  1.00  0.00     0.086 C 
HETATM    9  C6  UNK     1       1.597   1.219  -1.521  1.00  0.00     0.033 A 
HETATM   10  C7  UNK     1       1.550  -0.357   0.864  1.00  0.00     0.298 A 
HETATM   11  C8  UNK     1      -1.746  -0.325  -1.902  1.00  0.00     0.159 C 
HETATM   12  C9  UNK     1       2.695   1.174  -0.667  1.00  0.00     0.092 A 
HETATM   13  C11 UNK     1       1.691   2.004  -2.677  1.00  0.00     0.017 A 
HETATM   14  C12 UNK     1       3.868   1.882  -0.929  1.00  0.00     0.038 A 
HETATM   15  C14 UNK     1       2.861   2.720  -2.954  1.00  0.00     0.001 A 
HETATM   16  C16 UNK     1      -3.011  -1.979  -0.677  1.00  0.00     0.100 C 
HETATM   17  C17 UNK     1       3.948   2.659  -2.081  1.00  0.00     0.003 A 
ENDROOT
BRANCH   5  18
HETATM   18  C5  UNK     1      -1.505  -0.522   1.611  1.00  0.00    -0.004 A 
HETATM   19  C10 UNK     1      -2.032   0.720   1.841  1.00  0.00     0.016 A 
HETATM   20  C13 UNK     1      -2.531   0.841   3.170  1.00  0.00     0.008 A 
HETATM   21  C15 UNK     1      -2.361  -0.319   3.893  1.00  0.00     0.050 A 
HETATM   22  S1  UNK     1      -1.603  -1.547   2.971  1.00  0.00    -0.105 SA
ENDBRANCH   5  18
BRANCH  11  23
HETATM   23  N1  UNK     1      -2.611  -0.293  -2.961  1.00  0.00    -0.379 N 
HETATM   24  H10 UNK     1      -3.447  -0.863  -2.968  1.00  0.00     0.158 HD
HETATM   25  H9  UNK     1      -2.402   0.315  -3.743  1.00  0.00     0.158 HD
ENDBRANCH  11  23
TORSDOF 2
