REMARK  3 active torsions:
REMARK  status: ('A' for Active; 'I' for Inactive)
REMARK    1  A    between atoms: C9_13  and  O2_2 
REMARK    2  A    between atoms: C4_8  and  O3_3 
REMARK    3  A    between atoms: C3_7  and  C6_10 
ROOT
HETATM    1  O1  UNK     1       0.179  -0.672   0.337  1.00  0.00    -0.306 OA
HETATM    2  O4  UNK     1       1.040  -1.314   4.267  1.00  0.00    -0.287 OA
HETATM    3  C1  UNK     1       0.831  -2.218   2.094  1.00  0.00     0.051 A 
HETATM    4  C2  UNK     1       0.526  -1.928   0.764  1.00  0.00     0.126 A 
HETATM    5  C3  UNK     1       0.124   0.352   1.270  1.00  0.00     0.090 A 
HETATM    6  C4  UNK     1       0.568  -2.939  -0.196  1.00  0.00     0.134 A 
HETATM    7  C5  UNK     1       0.782  -1.133   3.085  1.00  0.00     0.187 A 
HETATM    8  C7  UNK     1       0.402   0.200   2.575  1.00  0.00     0.093 A 
HETATM    9  C8  UNK     1       1.179  -3.516   2.472  1.00  0.00     0.021 A 
HETATM   10  C9  UNK     1       0.914  -4.238   0.178  1.00  0.00     0.104 A 
HETATM   11  C10 UNK     1       1.219  -4.525   1.509  1.00  0.00     0.041 A 
ENDROOT
BRANCH   5  12
HETATM   12  C6  UNK     1      -0.252   1.662   0.703  1.00  0.00    -0.002 A 
HETATM   13  C11 UNK     1       0.734   2.523   0.213  1.00  0.00     0.014 A 
HETATM   14  C13 UNK     1       0.380   3.761  -0.323  1.00  0.00     0.001 A 
HETATM   15  C15 UNK     1      -0.961   4.143  -0.371  1.00  0.00     0.000 A 
HETATM   16  C14 UNK     1      -1.948   3.286   0.117  1.00  0.00     0.001 A 
HETATM   17  C12 UNK     1      -1.594   2.048   0.653  1.00  0.00     0.014 A 
ENDBRANCH   5  12
BRANCH   6  18
HETATM   18  O3  UNK     1       0.271  -2.665  -1.498  1.00  0.00    -0.356 OA
HETATM   19  H9  UNK     1       0.354  -3.487  -2.012  1.00  0.00     0.218 HD
ENDBRANCH   6  18
BRANCH  10  20
HETATM   20  O2  UNK     1       0.959  -5.237  -0.748  1.00  0.00    -0.353 OA
HETATM   21  C16 UNK     1       1.322  -6.535  -0.283  1.00  0.00     0.210 C 
ENDBRANCH  10  20
TORSDOF 3
