REMARK  5 active torsions:
REMARK  status: ('A' for Active; 'I' for Inactive)
REMARK    1  A    between atoms: C13_19  and  O2_2 
REMARK    2  A    between atoms: C5_11  and  O2_2 
REMARK    3  A    between atoms: C7_13  and  N1_5 
REMARK       I    between atoms: C8_14  and  N1_5 
REMARK    4  A    between atoms: C3_9  and  C8_14 
REMARK    5  A    between atoms: C12_18  and  C7_13 
ROOT
HETATM    1  O1  UNK     1       1.123   0.401  -1.740  1.00  0.00    -0.271 OA
HETATM    2  O4  UNK     1      -0.714  -0.882  -1.292  1.00  0.00    -0.259 OA
HETATM    3  C1  UNK     1       2.371   1.394   0.095  1.00  0.00     0.002 A 
HETATM    4  C2  UNK     1       2.192   1.188  -1.269  1.00  0.00     0.123 A 
HETATM    5  C3  UNK     1       0.422   0.036   0.574  1.00  0.00     0.108 A 
HETATM    6  C4  UNK     1       1.435   0.784   1.027  1.00  0.00     0.037 A 
HETATM    7  C5  UNK     1       3.051   1.745  -2.214  1.00  0.00     0.103 A 
HETATM    8  C6  UNK     1       3.442   2.181   0.524  1.00  0.00     0.014 A 
HETATM    9  C9  UNK     1       0.213  -0.197  -0.873  1.00  0.00     0.304 A 
HETATM   10  C10 UNK     1       4.118   2.529  -1.778  1.00  0.00     0.040 A 
HETATM   11  C11 UNK     1       4.313   2.746  -0.413  1.00  0.00     0.004 A 
ENDROOT
BRANCH   5  12
HETATM   12  C8  UNK     1      -0.467  -0.537   1.592  1.00  0.00     0.258 C 
HETATM   13  O3  UNK     1      -0.655   0.038   2.662  1.00  0.00    -0.267 OA
HETATM   14  N1  UNK     1      -1.025  -1.741   1.202  1.00  0.00    -0.352 N 
HETATM   15  H7  UNK     1      -0.794  -2.144   0.299  1.00  0.00     0.163 HD
BRANCH  14  16
HETATM   16  C7  UNK     1      -1.932  -2.496   2.036  1.00  0.00     0.162 C 
BRANCH  16  17
HETATM   17  C12 UNK     1      -3.364  -2.108   1.805  1.00  0.00    -0.023 A 
HETATM   18  C14 UNK     1      -3.945  -1.095   2.546  1.00  0.00     0.012 A 
HETATM   19  C17 UNK     1      -5.273  -0.757   2.309  1.00  0.00     0.020 A 
HETATM   20  C18 UNK     1      -5.957  -1.461   1.330  1.00  0.00     0.116 A 
HETATM   21  N2  UNK     1      -5.413  -2.455   0.593  1.00  0.00    -0.273 NA
HETATM   22  C15 UNK     1      -4.120  -2.755   0.851  1.00  0.00     0.124 A 
ENDBRANCH  16  17
ENDBRANCH  14  16
ENDBRANCH   5  12
BRANCH   7  23
HETATM   23  O2  UNK     1       2.865   1.536  -3.545  1.00  0.00    -0.349 OA
BRANCH  23  24
HETATM   24  C13 UNK     1       3.292   2.570  -4.432  1.00  0.00     0.171 C 
HETATM   25  C16 UNK     1       2.422   2.548  -5.670  1.00  0.00     0.034 C 
ENDBRANCH  23  24
ENDBRANCH   7  23
TORSDOF 5
