REMARK  6 active torsions:
REMARK  status: ('A' for Active; 'I' for Inactive)
REMARK    1  A    between atoms: C1_6  and  P1_2 
REMARK    2  A    between atoms: C2_7  and  P1_2 
REMARK    3  A    between atoms: C3_8  and  P1_2 
REMARK    4  A    between atoms: C4_9  and  P1_2 
REMARK    5  A    between atoms: C11_16  and  C4_9 
REMARK    6  A    between atoms: C11_16  and  C12_17 
ROOT
HETATM    1  P1  UNK     1      -1.403  -0.567   0.886  1.00  0.00    -0.025 P 
ENDROOT
BRANCH   1   2
HETATM    2  C1  UNK     1      -1.450  -0.439   2.647  1.00  0.00    -0.023 A 
HETATM    3  C5  UNK     1      -2.152  -1.383   3.396  1.00  0.00     0.013 A 
HETATM    4  C13 UNK     1      -2.188  -1.283   4.787  1.00  0.00     0.001 A 
HETATM    5  C19 UNK     1      -1.523  -0.238   5.428  1.00  0.00     0.000 A 
HETATM    6  C16 UNK     1      -0.821   0.706   4.679  1.00  0.00     0.001 A 
HETATM    7  C8  UNK     1      -0.784   0.605   3.288  1.00  0.00     0.013 A 
ENDBRANCH   1   2
BRANCH   1   8
HETATM    8  C2  UNK     1      -2.837  -1.314   0.183  1.00  0.00    -0.023 A 
HETATM    9  C6  UNK     1      -4.094  -0.736   0.375  1.00  0.00     0.013 A 
HETATM   10  C14 UNK     1      -5.228  -1.327  -0.182  1.00  0.00     0.001 A 
HETATM   11  C20 UNK     1      -5.108  -2.496  -0.932  1.00  0.00     0.000 A 
HETATM   12  C17 UNK     1      -3.854  -3.075  -1.126  1.00  0.00     0.001 A 
HETATM   13  C9  UNK     1      -2.719  -2.484  -0.569  1.00  0.00     0.013 A 
ENDBRANCH   1   8
BRANCH   1  14
HETATM   14  C3  UNK     1       0.130  -1.228   0.315  1.00  0.00    -0.023 A 
HETATM   15  C10 UNK     1       0.350  -1.402  -1.053  1.00  0.00     0.013 A 
HETATM   16  C18 UNK     1       1.561  -1.925  -1.505  1.00  0.00     0.001 A 
HETATM   17  C21 UNK     1       2.555  -2.275  -0.590  1.00  0.00     0.000 A 
HETATM   18  C15 UNK     1       2.337  -2.101   0.777  1.00  0.00     0.001 A 
HETATM   19  C7  UNK     1       1.125  -1.578   1.229  1.00  0.00     0.013 A 
ENDBRANCH   1  14
BRANCH   1  20
HETATM   20  C4  UNK     1      -1.425   1.101   0.305  1.00  0.00     0.071 C 
BRANCH  20  21
HETATM   21  C11 UNK     1      -1.396   1.450  -1.137  1.00  0.00     0.189 C 
HETATM   22  O1  UNK     1      -2.445   1.582  -1.739  1.00  0.00    -0.287 OA
BRANCH  21  23
HETATM   23  C12 UNK     1      -0.067   1.602  -1.741  1.00  0.00     0.090 A 
HETATM   24  C22 UNK     1       0.907   2.028  -0.928  1.00  0.00     0.036 A 
HETATM   25  C23 UNK     1       2.258   2.209  -1.434  1.00  0.00     0.000 A 
HETATM   26  C25 UNK     1       2.518   1.934  -2.773  1.00  0.00     0.089 A 
HETATM   27  C26 UNK     1       3.305   2.652  -0.621  1.00  0.00     0.033 A 
HETATM   28  O2  UNK     1       1.489   1.485  -3.624  1.00  0.00    -0.274 OA
HETATM   29  C27 UNK     1       3.790   2.088  -3.320  1.00  0.00     0.039 A 
HETATM   30  C24 UNK     1       0.186   1.302  -3.168  1.00  0.00     0.302 A 
HETATM   31  O3  UNK     1      -0.703   0.912  -3.916  1.00  0.00    -0.259 OA
HETATM   32  C29 UNK     1       4.828   2.529  -2.503  1.00  0.00     0.022 A 
HETATM   33  C28 UNK     1       4.586   2.811  -1.157  1.00  0.00     0.011 A 
HETATM   34 Br1  UNK     1       6.000   3.410  -0.053  1.00  0.00    -0.051 Br
ENDBRANCH  21  23
ENDBRANCH  20  21
ENDBRANCH   1  20
TORSDOF 6
