REMARK  2 active torsions:
REMARK  status: ('A' for Active; 'I' for Inactive)
REMARK    1  A    between atoms: C7_10  and  O2_2 
REMARK    2  A    between atoms: C3_6  and  C8_11 
ROOT
HETATM    1  O1  UNK     1       0.160  -0.972  -0.120  1.00  0.00    -0.306 OA
HETATM    2  O3  UNK     1       1.113  -2.260   3.627  1.00  0.00    -0.284 OA
HETATM    3  C1  UNK     1       0.819  -2.790   1.348  1.00  0.00     0.051 A 
HETATM    4  C2  UNK     1       0.482  -2.288   0.093  1.00  0.00     0.090 A 
HETATM    5  C3  UNK     1       0.184  -0.103   0.960  1.00  0.00     0.123 A 
HETATM    6  C4  UNK     1       1.137  -4.141   1.505  1.00  0.00     0.025 A 
HETATM    7  C5  UNK     1       0.831  -1.876   2.500  1.00  0.00     0.220 A 
HETATM    8  C6  UNK     1       1.116  -4.987   0.395  1.00  0.00    -0.061 A 
HETATM    9  C7  UNK     1       0.483  -0.462   2.222  1.00  0.00     0.152 A 
HETATM   10  C9  UNK     1       0.461  -3.135  -1.015  1.00  0.00     0.039 A 
HETATM   11  C10 UNK     1       0.779  -4.485  -0.863  1.00  0.00     0.009 A 
HETATM   12  C11 UNK     1       1.455  -6.431   0.554  1.00  0.00     0.048 C 
ENDROOT
BRANCH   5  13
HETATM   13  C8  UNK     1      -0.179   1.277   0.595  1.00  0.00     0.001 A 
HETATM   14  C12 UNK     1       0.812   2.184   0.218  1.00  0.00     0.014 A 
HETATM   15  C14 UNK     1       0.468   3.491  -0.127  1.00  0.00     0.001 A 
HETATM   16  C16 UNK     1      -0.868   3.892  -0.097  1.00  0.00     0.000 A 
HETATM   17  C15 UNK     1      -1.859   2.986   0.280  1.00  0.00     0.001 A 
HETATM   18  C13 UNK     1      -1.515   1.679   0.625  1.00  0.00     0.014 A 
ENDBRANCH   5  13
BRANCH   9  19
HETATM   19  O2  UNK     1       0.465   0.422   3.279  1.00  0.00    -0.355 OA
HETATM   20  H12 UNK     1       0.220   1.307   2.965  1.00  0.00     0.218 HD
ENDBRANCH   9  19
TORSDOF 2
