REMARK  12 active torsions:
REMARK  status: ('A' for Active; 'I' for Inactive)
REMARK    1  A    between atoms: C4_12  and  O1_1 
REMARK    2  A    between atoms: C3_11  and  O2_2 
REMARK    3  A    between atoms: C6_14  and  O3_3 
REMARK    4  A    between atoms: C5_13  and  O4_4 
REMARK    5  A    between atoms: C8_16  and  O5_5 
REMARK    6  A    between atoms: C7_15  and  O6_6 
REMARK    7  A    between atoms: C1_9  and  C16_24 
REMARK    8  A    between atoms: C15_23  and  C2_10 
REMARK    9  A    between atoms: C21_29  and  C9_17 
REMARK   10  A    between atoms: C10_18  and  C22_30 
REMARK   11  A    between atoms: C21_29  and  C23_31 
REMARK   12  A    between atoms: C22_30  and  C24_32 
ROOT
HETATM    1  C9  UNK     1       1.751   0.351  -3.422  1.00  0.00     0.014 A 
HETATM    2  C10 UNK     1      -0.465  -0.689  -2.085  1.00  0.00     0.014 A 
HETATM    3  C17 UNK     1       0.537   1.038  -3.445  1.00  0.00     0.016 A 
HETATM    4  C18 UNK     1      -0.571   0.518  -2.776  1.00  0.00     0.016 A 
HETATM    5  C19 UNK     1       0.749  -1.376  -2.062  1.00  0.00     0.016 A 
HETATM    6  C20 UNK     1       1.857  -0.856  -2.731  1.00  0.00     0.016 A 
ENDROOT
BRANCH   1   7
HETATM    7  C21 UNK     1       2.906   0.893  -4.120  1.00  0.00     0.182 C 
HETATM    8  O8  UNK     1       2.768   1.567  -5.152  1.00  0.00    -0.288 OA
BRANCH   7   9
HETATM    9  C23 UNK     1       4.278   0.593  -3.584  1.00  0.00     0.056 C 
HETATM   10  C15 UNK     1       4.633   0.995  -2.354  1.00  0.00     0.015 C 
BRANCH  10  11
HETATM   11  C2  UNK     1       3.758   1.742  -1.434  1.00  0.00    -0.031 A 
HETATM   12  C11 UNK     1       3.254   2.988  -1.807  1.00  0.00     0.051 A 
HETATM   13  C5  UNK     1       2.425   3.694  -0.936  1.00  0.00     0.105 A 
HETATM   14  C3  UNK     1       2.099   3.155   0.308  1.00  0.00     0.135 A 
HETATM   15  C7  UNK     1       2.603   1.909   0.682  1.00  0.00     0.105 A 
HETATM   16  C14 UNK     1       3.433   1.203  -0.189  1.00  0.00     0.051 A 
BRANCH  13  17
HETATM   17  O4  UNK     1       1.939   4.910  -1.313  1.00  0.00    -0.353 OA
HETATM   18  C27 UNK     1       2.320   5.389  -2.601  1.00  0.00     0.210 C 
ENDBRANCH  13  17
BRANCH  14  19
HETATM   19  O2  UNK     1       1.288   3.845   1.159  1.00  0.00    -0.351 OA
HETATM   20  C26 UNK     1      -0.114   3.608   1.052  1.00  0.00     0.210 C 
ENDBRANCH  14  19
BRANCH  15  21
HETATM   21  O6  UNK     1       2.293   1.371   1.894  1.00  0.00    -0.353 OA
HETATM   22  C30 UNK     1       2.850   0.094   2.198  1.00  0.00     0.210 C 
ENDBRANCH  15  21
ENDBRANCH  10  11
ENDBRANCH   7   9
ENDBRANCH   1   7
BRANCH   2  23
HETATM   23  C22 UNK     1      -1.620  -1.232  -1.388  1.00  0.00     0.182 C 
HETATM   24  O7  UNK     1      -1.481  -1.949  -0.386  1.00  0.00    -0.288 OA
BRANCH  23  25
HETATM   25  C24 UNK     1      -2.991  -0.931  -1.926  1.00  0.00     0.056 C 
HETATM   26  C16 UNK     1      -4.051  -0.882  -1.106  1.00  0.00     0.015 C 
BRANCH  26  27
HETATM   27  C1  UNK     1      -3.993  -1.107   0.349  1.00  0.00    -0.031 A 
HETATM   28  C12 UNK     1      -3.205  -0.280   1.152  1.00  0.00     0.051 A 
HETATM   29  C6  UNK     1      -3.151  -0.492   2.529  1.00  0.00     0.105 A 
HETATM   30  C4  UNK     1      -3.884  -1.530   3.105  1.00  0.00     0.135 A 
HETATM   31  C8  UNK     1      -4.671  -2.356   2.302  1.00  0.00     0.105 A 
HETATM   32  C13 UNK     1      -4.725  -2.144   0.925  1.00  0.00     0.051 A 
BRANCH  29  33
HETATM   33  O3  UNK     1      -2.377   0.321   3.301  1.00  0.00    -0.353 OA
HETATM   34  C28 UNK     1      -1.024  -0.077   3.508  1.00  0.00     0.210 C 
ENDBRANCH  29  33
BRANCH  30  35
HETATM   35  O1  UNK     1      -3.830  -1.737   4.451  1.00  0.00    -0.351 OA
HETATM   36  C25 UNK     1      -4.792  -1.050   5.249  1.00  0.00     0.210 C 
ENDBRANCH  30  35
BRANCH  31  37
HETATM   37  O5  UNK     1      -5.391  -3.374   2.852  1.00  0.00    -0.353 OA
HETATM   38  C29 UNK     1      -4.747  -4.642   2.954  1.00  0.00     0.210 C 
ENDBRANCH  31  37
ENDBRANCH  26  27
ENDBRANCH  23  25
ENDBRANCH   2  23
TORSDOF 12
