REMARK  8 active torsions:
REMARK  status: ('A' for Active; 'I' for Inactive)
REMARK    1  A    between atoms: C2_9  and  O1_2 
REMARK    2  A    between atoms: C3_10  and  O1_2 
REMARK    3  A    between atoms: C10_17  and  O2_3 
REMARK    4  A    between atoms: C4_11  and  O2_3 
REMARK    5  A    between atoms: C20_27  and  N1_6 
REMARK    6  A    between atoms: C1_8  and  C5_12 
REMARK    7  A    between atoms: C3_10  and  C4_11 
REMARK    8  A    between atoms: C6_13  and  C7_14 
ROOT
HETATM    1  N2  UNK     1       1.641   3.346   1.464  1.00  0.00    -0.191 NA
HETATM    2  C5  UNK     1       1.707   0.367  -0.272  1.00  0.00     0.038 C 
HETATM    3  C7  UNK     1       1.064   0.898   0.802  1.00  0.00     0.055 C 
HETATM    4  C24 UNK     1       1.390   2.254   1.161  1.00  0.00     0.100 C 
ENDROOT
BRANCH   3   5
HETATM    5  C6  UNK     1       0.074   0.181   1.590  1.00  0.00    -0.015 A 
HETATM    6  C14 UNK     1      -0.961   0.878   2.213  1.00  0.00     0.015 A 
HETATM    7  C21 UNK     1      -1.911   0.188   2.966  1.00  0.00     0.037 A 
HETATM    8  C20 UNK     1      -1.827  -1.198   3.096  1.00  0.00     0.102 A 
HETATM    9  C22 UNK     1      -0.792  -1.895   2.472  1.00  0.00     0.037 A 
HETATM   10  C15 UNK     1       0.158  -1.205   1.719  1.00  0.00     0.015 A 
BRANCH   8  11
HETATM   11  N1  UNK     1      -2.794  -1.900   3.862  1.00  0.00    -0.116 N 
HETATM   12  O3  UNK     1      -3.716  -1.255   4.416  1.00  0.00    -0.532 OA
HETATM   13  O4  UNK     1      -2.699  -3.147   3.965  1.00  0.00    -0.532 OA
ENDBRANCH   8  11
ENDBRANCH   3   5
BRANCH   2  14
HETATM   14  C1  UNK     1       2.708   1.057  -1.099  1.00  0.00     0.000 A 
HETATM   15  C2  UNK     1       2.320   1.777  -2.220  1.00  0.00     0.079 A 
HETATM   16  C9  UNK     1       3.287   2.422  -2.991  1.00  0.00     0.039 A 
HETATM   17  C12 UNK     1       4.632   2.341  -2.633  1.00  0.00     0.026 A 
HETATM   18  C11 UNK     1       5.011   1.615  -1.504  1.00  0.00     0.035 A 
HETATM   19 Cl1  UNK     1       6.672   1.515  -1.066  1.00  0.00    -0.084 Cl
HETATM   20  C8  UNK     1       4.044   0.970  -0.733  1.00  0.00     0.038 A 
BRANCH  15  21
HETATM   21  O1  UNK     1       1.012   1.871  -2.593  1.00  0.00    -0.348 OA
BRANCH  21  22
HETATM   22  C3  UNK     1       0.669   1.372  -3.884  1.00  0.00     0.202 C 
BRANCH  22  23
HETATM   23  C4  UNK     1      -0.336   0.247  -3.728  1.00  0.00     0.202 C 
BRANCH  23  24
HETATM   24  O2  UNK     1      -1.490   0.745  -3.062  1.00  0.00    -0.349 OA
BRANCH  24  25
HETATM   25  C10 UNK     1      -2.200  -0.151  -2.306  1.00  0.00     0.068 A 
HETATM   26  C16 UNK     1      -2.217  -1.493  -2.667  1.00  0.00     0.037 A 
HETATM   27  C18 UNK     1      -2.941  -2.406  -1.898  1.00  0.00     0.009 A 
HETATM   28  C13 UNK     1      -3.643  -1.969  -0.775  1.00  0.00    -0.062 A 
HETATM   29  C19 UNK     1      -3.621  -0.620  -0.419  1.00  0.00     0.009 A 
HETATM   30  C23 UNK     1      -4.416  -2.944   0.047  1.00  0.00     0.048 C 
HETATM   31  C17 UNK     1      -2.897   0.292  -1.187  1.00  0.00     0.037 A 
ENDBRANCH  24  25
ENDBRANCH  23  24
ENDBRANCH  22  23
ENDBRANCH  21  22
ENDBRANCH  15  21
ENDBRANCH   2  14
TORSDOF 8
