REMARK  5 active torsions:
REMARK  status: ('A' for Active; 'I' for Inactive)
REMARK    1  A    between atoms: C7_13  and  O2_2 
REMARK    2  A    between atoms: C10_16  and  O3_3 
REMARK    3  A    between atoms: C1_7  and  N1_6 
REMARK       I    between atoms: C6_12  and  N1_6 
REMARK    4  A    between atoms: C1_7  and  C2_8 
REMARK    5  A    between atoms: C6_12  and  C8_14 
ROOT
HETATM    1  O4  UNK     1       0.078   0.280   2.718  1.00  0.00    -0.267 OA
HETATM    2  N1  UNK     1       0.619  -0.175   0.497  1.00  0.00    -0.348 N 
HETATM    3  C6  UNK     1      -0.218  -0.129   1.597  1.00  0.00     0.258 C 
HETATM    4  H2  UNK     1       0.284  -0.592  -0.366  1.00  0.00     0.163 HD
ENDROOT
BRANCH   2   5
HETATM    5  C1  UNK     1       1.995   0.269   0.534  1.00  0.00     0.114 C 
HETATM    6  C3  UNK     1       2.888  -0.879   1.011  1.00  0.00     0.037 C 
BRANCH   5   7
HETATM    7  C2  UNK     1       2.441   0.809  -0.810  1.00  0.00    -0.033 A 
HETATM    8  C4  UNK     1       2.838   2.130  -0.905  1.00  0.00     0.049 A 
HETATM    9  C7  UNK     1       3.249   2.628  -2.142  1.00  0.00     0.102 A 
HETATM   10  C10 UNK     1       3.255   1.796  -3.262  1.00  0.00     0.101 A 
HETATM   11  C9  UNK     1       2.850   0.466  -3.144  1.00  0.00     0.040 A 
HETATM   12  C5  UNK     1       2.440  -0.032  -1.908  1.00  0.00     0.012 A 
BRANCH   9  13
HETATM   13  O2  UNK     1       3.643   3.928  -2.244  1.00  0.00    -0.353 OA
HETATM   14  C19 UNK     1       3.607   4.711  -1.053  1.00  0.00     0.210 C 
ENDBRANCH   9  13
BRANCH  10  15
HETATM   15  O3  UNK     1       3.655   2.270  -4.474  1.00  0.00    -0.353 OA
HETATM   16  C20 UNK     1       5.041   2.154  -4.791  1.00  0.00     0.210 C 
ENDBRANCH  10  15
ENDBRANCH   5   7
ENDBRANCH   2   5
BRANCH   3  17
HETATM   17  C8  UNK     1      -1.566  -0.632   1.310  1.00  0.00     0.108 A 
HETATM   18  C12 UNK     1      -2.216  -1.200   2.333  1.00  0.00     0.037 A 
HETATM   19  C11 UNK     1      -3.558  -1.729   2.146  1.00  0.00    -0.001 A 
HETATM   20  C13 UNK     1      -4.150  -1.635   0.891  1.00  0.00     0.089 A 
HETATM   21  C15 UNK     1      -4.274  -2.328   3.185  1.00  0.00     0.014 A 
HETATM   22  O1  UNK     1      -3.461  -1.037  -0.182  1.00  0.00    -0.274 OA
HETATM   23  C16 UNK     1      -5.432  -2.122   0.645  1.00  0.00     0.038 A 
HETATM   24  C14 UNK     1      -2.176  -0.521  -0.034  1.00  0.00     0.304 A 
HETATM   25  O5  UNK     1      -1.584  -0.002  -0.974  1.00  0.00    -0.259 OA
HETATM   26  C18 UNK     1      -6.139  -2.718   1.687  1.00  0.00     0.003 A 
HETATM   27  C17 UNK     1      -5.561  -2.822   2.955  1.00  0.00     0.001 A 
ENDBRANCH   3  17
TORSDOF 5
