REMARK  3 active torsions:
REMARK  status: ('A' for Active; 'I' for Inactive)
REMARK    1  A    between atoms: C21_28  and  O4_5 
REMARK    2  A    between atoms: C1_8  and  C8_15 
REMARK    3  A    between atoms: C6_13  and  C9_16 
ROOT
HETATM    1  O1  UNK     1      -0.078   3.154   0.964  1.00  0.00    -0.293 OA
HETATM    2  N1  UNK     1      -0.143  -0.739  -1.879  1.00  0.00    -0.357 N 
HETATM    3  N2  UNK     1      -2.613   0.707  -0.964  1.00  0.00    -0.375 N 
HETATM    4  C1  UNK     1       2.176   2.171  -1.663  1.00  0.00     0.031 C 
HETATM    5  C2  UNK     1       1.793   0.693  -1.763  1.00  0.00     0.067 C 
HETATM    6  C3  UNK     1      -0.267   1.229  -0.440  1.00  0.00     0.037 C 
HETATM    7  C4  UNK     1       1.903   2.663  -0.249  1.00  0.00     0.093 C 
HETATM    8  C5  UNK     1       0.365   0.415  -1.314  1.00  0.00     0.022 C 
HETATM    9  C6  UNK     1      -1.657   0.993   0.093  1.00  0.00     0.160 C 
HETATM   10  C7  UNK     1       0.463   2.418   0.137  1.00  0.00     0.160 C 
HETATM   11  C10 UNK     1      -1.468  -1.157  -2.115  1.00  0.00     0.059 A 
HETATM   12  C11 UNK     1      -2.618  -0.440  -1.743  1.00  0.00     0.055 A 
HETATM   13  C16 UNK     1      -1.627  -2.365  -2.834  1.00  0.00     0.032 A 
HETATM   14  C17 UNK     1      -3.879  -0.935  -2.147  1.00  0.00     0.031 A 
HETATM   15  C22 UNK     1      -2.882  -2.844  -3.205  1.00  0.00     0.002 A 
HETATM   16  C23 UNK     1      -4.013  -2.120  -2.868  1.00  0.00     0.002 A 
HETATM   17  H7  UNK     1       0.562  -1.343  -2.294  1.00  0.00     0.166 HD
HETATM   18  H8  UNK     1      -3.488   1.221  -0.920  1.00  0.00     0.160 HD
ENDROOT
BRANCH   9  19
HETATM   19  C9  UNK     1      -1.706  -0.062   1.159  1.00  0.00     0.042 A 
HETATM   20  C14 UNK     1      -3.017  -0.388   1.775  1.00  0.00     0.195 A 
HETATM   21  O3  UNK     1      -4.051   0.175   1.441  1.00  0.00    -0.287 OA
HETATM   22  C18 UNK     1      -3.008  -1.431   2.817  1.00  0.00     0.050 A 
HETATM   23  C24 UNK     1      -1.799  -2.040   3.157  1.00  0.00     0.089 A 
HETATM   24  C25 UNK     1      -4.191  -1.809   3.458  1.00  0.00     0.042 A 
HETATM   25  O2  UNK     1      -0.609  -1.709   2.561  1.00  0.00    -0.321 OA
HETATM   26  C26 UNK     1      -1.767  -3.030   4.140  1.00  0.00     0.040 A 
HETATM   27  C15 UNK     1      -0.632  -0.735   1.593  1.00  0.00     0.156 A 
HETATM   28  C28 UNK     1      -2.947  -3.408   4.781  1.00  0.00     0.026 A 
HETATM   29  C27 UNK     1      -4.156  -2.799   4.440  1.00  0.00     0.035 A 
HETATM   30 Cl1  UNK     1      -5.608  -3.272   5.236  1.00  0.00    -0.084 Cl
ENDBRANCH   9  19
BRANCH   4  31
HETATM   31  C8  UNK     1       3.609   2.422  -2.092  1.00  0.00    -0.053 A 
HETATM   32  C12 UNK     1       3.873   3.245  -3.185  1.00  0.00     0.010 A 
HETATM   33  C19 UNK     1       5.191   3.474  -3.579  1.00  0.00     0.037 A 
HETATM   34  C21 UNK     1       6.242   2.881  -2.880  1.00  0.00     0.068 A 
HETATM   35  C20 UNK     1       5.975   2.058  -1.786  1.00  0.00     0.037 A 
HETATM   36  C13 UNK     1       4.657   1.828  -1.392  1.00  0.00     0.010 A 
BRANCH  34  37
HETATM   37  O4  UNK     1       7.528   3.106  -3.265  1.00  0.00    -0.356 OA
HETATM   38  C29 UNK     1       8.554   2.469  -2.506  1.00  0.00     0.210 C 
ENDBRANCH  34  37
ENDBRANCH   4  31
TORSDOF 3
