REMARK  3 active torsions:
REMARK  status: ('A' for Active; 'I' for Inactive)
REMARK    1  A    between atoms: C5_13  and  N1_6 
REMARK    2  A    between atoms: C9_17  and  N2_7 
REMARK    3  A    between atoms: C7_15  and  N3_8 
ROOT
HETATM    1  O1  UNK     1       2.658   1.474  -1.529  1.00  0.00    -0.273 OA
HETATM    2  O3  UNK     1       1.907   1.359  -3.680  1.00  0.00    -0.257 OA
HETATM    3  C5  UNK     1       0.173   0.322  -0.681  1.00  0.00     0.083 A 
HETATM    4  C6  UNK     1       1.225   0.691   0.302  1.00  0.00     0.027 A 
HETATM    5  C7  UNK     1       0.467   0.569  -1.968  1.00  0.00     0.205 A 
HETATM    6  C8  UNK     1       2.424   1.250  -0.157  1.00  0.00     0.092 A 
HETATM    7  C10 UNK     1       1.102   0.519   1.691  1.00  0.00     0.017 A 
HETATM    8  C11 UNK     1       1.710   1.158  -2.487  1.00  0.00     0.324 A 
HETATM    9  C12 UNK     1       3.462   1.622   0.702  1.00  0.00     0.038 A 
HETATM   10  C13 UNK     1       2.133   0.888   2.565  1.00  0.00     0.001 A 
HETATM   11  C14 UNK     1       3.312   1.439   2.071  1.00  0.00     0.003 A 
ENDROOT
BRANCH   3  12
HETATM   12  N1  UNK     1      -0.983  -0.227  -0.208  1.00  0.00    -0.375 N 
HETATM   13  C1  UNK     1      -1.153  -1.673  -0.040  1.00  0.00     0.143 C 
HETATM   14  C3  UNK     1      -1.670  -1.973   1.365  1.00  0.00     0.145 C 
HETATM   15  N2  UNK     1      -2.842  -1.158   1.672  1.00  0.00    -0.356 N 
HETATM   16  C4  UNK     1      -2.699   0.280   1.463  1.00  0.00     0.145 C 
HETATM   17  C2  UNK     1      -2.181   0.575   0.057  1.00  0.00     0.143 C 
BRANCH  15  18
HETATM   18  C9  UNK     1      -3.989  -1.707   2.215  1.00  0.00     0.350 C 
HETATM   19  O2  UNK     1      -4.189  -2.881   2.505  1.00  0.00    -0.284 OA
ENDBRANCH  15  18
ENDBRANCH   3  12
BRANCH   5  20
HETATM   20  N3  UNK     1      -0.521   0.229  -2.943  1.00  0.00    -0.107 N 
HETATM   21  O4  UNK     1      -1.573  -0.268  -2.526  1.00  0.00    -0.531 OA
HETATM   22  O5  UNK     1      -0.244   0.458  -4.126  1.00  0.00    -0.531 OA
ENDBRANCH   5  20
TORSDOF 3
