REMARK  3 active torsions:
REMARK  status: ('A' for Active; 'I' for Inactive)
REMARK    1  A    between atoms: C11_18  and  N2_7 
REMARK    2  A    between atoms: C9_16  and  N2_7 
REMARK    3  A    between atoms: C2_9  and  C5_12 
ROOT
HETATM    1  S1  UNK     1       0.431  -0.032   3.619  1.00  0.00    -0.061 SA
HETATM    2  N1  UNK     1      -0.558  -0.115   1.232  1.00  0.00    -0.223 NA
HETATM    3  C5  UNK     1       0.664   0.516   1.162  1.00  0.00     0.082 A 
HETATM    4  C9  UNK     1      -0.786  -0.449   2.483  1.00  0.00     0.171 A 
HETATM    5  C10 UNK     1       1.350   0.657   2.345  1.00  0.00     0.086 A 
ENDROOT
BRANCH   3   6
HETATM    6  C2  UNK     1       1.139   0.982  -0.117  1.00  0.00     0.070 A 
HETATM    7  C3  UNK     1       2.449   1.050  -0.404  1.00  0.00     0.034 A 
HETATM    8  C1  UNK     1       2.922   1.516  -1.697  1.00  0.00     0.000 A 
HETATM    9  C4  UNK     1       1.990   1.893  -2.654  1.00  0.00     0.089 A 
HETATM   10  C7  UNK     1       4.281   1.595  -2.011  1.00  0.00     0.033 A 
HETATM   11  O1  UNK     1       0.614   1.828  -2.370  1.00  0.00    -0.274 OA
HETATM   12  C8  UNK     1       2.374   2.345  -3.915  1.00  0.00     0.039 A 
HETATM   13  C6  UNK     1       0.130   1.402  -1.136  1.00  0.00     0.301 A 
HETATM   14  O2  UNK     1      -1.076   1.383  -0.908  1.00  0.00    -0.259 OA
HETATM   15  C13 UNK     1       3.730   2.421  -4.221  1.00  0.00     0.022 A 
HETATM   16  C12 UNK     1       4.683   2.047  -3.271  1.00  0.00     0.011 A 
HETATM   17 Br1  UNK     1       6.523   2.147  -3.694  1.00  0.00    -0.051 Br
ENDBRANCH   3   6
BRANCH   4  18
HETATM   18  N2  UNK     1      -1.904  -1.092   2.913  1.00  0.00    -0.335 N 
HETATM   19  H5  UNK     1      -2.042  -1.164   3.918  1.00  0.00     0.168 HD
BRANCH  18  20
HETATM   20  C11 UNK     1      -2.975  -1.655   2.171  1.00  0.00     0.034 A 
HETATM   21  C14 UNK     1      -4.217  -1.824   2.773  1.00  0.00     0.031 A 
HETATM   22  C16 UNK     1      -5.269  -2.378   2.043  1.00  0.00     0.021 A 
HETATM   23  C18 UNK     1      -5.073  -2.759   0.716  1.00  0.00     0.011 A 
HETATM   24 Br2  UNK     1      -6.498  -3.511  -0.272  1.00  0.00    -0.051 Br
HETATM   25  C17 UNK     1      -3.824  -2.586   0.118  1.00  0.00     0.021 A 
HETATM   26  C15 UNK     1      -2.772  -2.033   0.848  1.00  0.00     0.031 A 
ENDBRANCH  18  20
ENDBRANCH   4  18
TORSDOF 3
