REMARK  5 active torsions:
REMARK  status: ('A' for Active; 'I' for Inactive)
REMARK    1  A    between atoms: C3_8  and  O1_1 
REMARK    2  A    between atoms: C5_10  and  O1_1 
REMARK    3  A    between atoms: C12_17  and  O3_3 
REMARK    4  A    between atoms: C14_19  and  O3_3 
REMARK    5  A    between atoms: C12_17  and  C5_10 
ROOT
HETATM    1  O2  UNK     1      -2.319  -1.061  -0.798  1.00  0.00    -0.275 OA
HETATM    2  O5  UNK     1      -4.404  -1.765  -1.419  1.00  0.00    -0.260 OA
HETATM    3  C1  UNK     1      -1.797  -0.817   1.576  1.00  0.00     0.004 A 
HETATM    4  C2  UNK     1      -1.418  -0.733   0.235  1.00  0.00     0.092 A 
HETATM    5  C3  UNK     1       0.791   0.011   0.821  1.00  0.00     0.072 A 
HETATM    6  C4  UNK     1      -3.162  -1.256   1.895  1.00  0.00    -0.043 A 
HETATM    7  C6  UNK     1      -0.141  -0.325  -0.155  1.00  0.00     0.075 A 
HETATM    8  C7  UNK     1      -0.843  -0.474   2.544  1.00  0.00     0.017 A 
HETATM    9  C8  UNK     1       0.441  -0.063   2.168  1.00  0.00     0.038 A 
HETATM   10  C9  UNK     1      -3.997  -1.561   0.892  1.00  0.00     0.090 A 
HETATM   11  C11 UNK     1      -3.601  -1.356   3.327  1.00  0.00     0.049 C 
HETATM   12  C13 UNK     1      -3.612  -1.478  -0.527  1.00  0.00     0.288 A 
ENDROOT
BRANCH   5  13
HETATM   13  O1  UNK     1       2.041   0.411   0.463  1.00  0.00    -0.336 OA
BRANCH  13  14
HETATM   14  C5  UNK     1       2.141   1.578  -0.353  1.00  0.00     0.224 C 
HETATM   15  C10 UNK     1       2.968   2.608   0.397  1.00  0.00     0.051 C 
BRANCH  14  16
HETATM   16  C12 UNK     1       2.792   1.197  -1.667  1.00  0.00     0.288 C 
HETATM   17  O4  UNK     1       3.197   0.075  -1.941  1.00  0.00    -0.262 OA
BRANCH  16  18
HETATM   18  O3  UNK     1       2.829   2.283  -2.494  1.00  0.00    -0.320 OA
BRANCH  18  19
HETATM   19  C14 UNK     1       3.397   2.055  -3.787  1.00  0.00     0.174 C 
HETATM   20  C15 UNK     1       3.364   3.347  -4.576  1.00  0.00     0.034 C 
ENDBRANCH  18  19
ENDBRANCH  16  18
ENDBRANCH  14  16
ENDBRANCH  13  14
ENDBRANCH   5  13
TORSDOF 5
