REMARK  4 active torsions:
REMARK  status: ('A' for Active; 'I' for Inactive)
REMARK    1  A    between atoms: C13_19  and  O3_3 
REMARK    2  A    between atoms: C19_25  and  O3_3 
REMARK    3  A    between atoms: C1_7  and  C10_16 
REMARK    4  A    between atoms: C13_19  and  C6_12 
ROOT
HETATM    1  O1  UNK     1       1.278  -1.422  -3.051  1.00  0.00    -0.293 OA
HETATM    2  N1  UNK     1       1.866   2.636  -0.677  1.00  0.00    -0.362 N 
HETATM    3  C1  UNK     1       1.358  -0.148  -0.464  1.00  0.00     0.104 C 
HETATM    4  C2  UNK     1       1.474   0.584  -1.796  1.00  0.00     0.024 C 
HETATM    5  C3  UNK     1       1.693   1.916  -1.844  1.00  0.00     0.020 C 
HETATM    6  C4  UNK     1       1.765   2.697  -3.130  1.00  0.00     0.058 C 
HETATM    7  C5  UNK     1       1.090   1.968  -4.284  1.00  0.00     0.014 C 
HETATM    8  C6  UNK     1       1.715   0.739   0.731  1.00  0.00     0.052 C 
HETATM    9  C7  UNK     1       1.583   0.536  -4.382  1.00  0.00     0.084 C 
HETATM   10  C8  UNK     1       1.407  -0.198  -3.070  1.00  0.00     0.158 C 
HETATM   11  C9  UNK     1       1.924   2.068   0.586  1.00  0.00     0.018 C 
HETATM   12  C12 UNK     1       2.229   3.032   1.700  1.00  0.00     0.069 C 
HETATM   13  H8  UNK     1       2.031   3.633  -0.756  1.00  0.00     0.165 HD
ENDROOT
BRANCH   3  14
HETATM   14  C10 UNK     1      -0.028  -0.711  -0.298  1.00  0.00     0.029 A 
HETATM   15  C11 UNK     1      -1.174   0.231  -0.249  1.00  0.00     0.194 A 
HETATM   16  O4  UNK     1      -1.026   1.443  -0.340  1.00  0.00    -0.287 OA
HETATM   17  C15 UNK     1      -2.510  -0.372  -0.084  1.00  0.00     0.048 A 
HETATM   18  C16 UNK     1      -2.620  -1.759   0.015  1.00  0.00     0.089 A 
HETATM   19  C17 UNK     1      -3.652   0.430  -0.027  1.00  0.00     0.018 A 
HETATM   20  O2  UNK     1      -1.532  -2.595  -0.036  1.00  0.00    -0.321 OA
HETATM   21  C18 UNK     1      -3.873  -2.352   0.171  1.00  0.00     0.038 A 
HETATM   22  C14 UNK     1      -0.295  -2.019  -0.189  1.00  0.00     0.154 A 
HETATM   23  C21 UNK     1      -5.015  -1.553   0.228  1.00  0.00     0.003 A 
HETATM   24  C20 UNK     1      -4.905  -0.165   0.130  1.00  0.00     0.001 A 
ENDBRANCH   3  14
BRANCH   8  25
HETATM   25  C13 UNK     1       1.867   0.061   2.029  1.00  0.00     0.292 C 
HETATM   26  O5  UNK     1       2.915  -0.423   2.411  1.00  0.00    -0.259 OA
BRANCH  25  27
HETATM   27  O3  UNK     1       0.672   0.089   2.667  1.00  0.00    -0.318 OA
BRANCH  27  28
HETATM   28  C19 UNK     1       0.658  -0.536   3.955  1.00  0.00     0.174 C 
HETATM   29  C22 UNK     1      -0.733  -0.427   4.541  1.00  0.00     0.034 C 
ENDBRANCH  27  28
ENDBRANCH  25  27
ENDBRANCH   8  25
TORSDOF 4
