REMARK  1 active torsions:
REMARK  status: ('A' for Active; 'I' for Inactive)
REMARK    1  A    between atoms: C10_15  and  C6_11 
ROOT
HETATM    1  O1  UNK     1       0.391  -2.003   2.768  1.00  0.00    -0.293 OA
HETATM    2  N1  UNK     1      -2.487   0.283  -0.348  1.00  0.00    -0.357 N 
HETATM    3  N2  UNK     1      -0.269  -1.565  -1.191  1.00  0.00    -0.375 N 
HETATM    4  C1  UNK     1      -3.151  -1.215   3.021  1.00  0.00    -0.036 C 
HETATM    5  C2  UNK     1      -3.177  -0.141   1.921  1.00  0.00     0.067 C 
HETATM    6  C3  UNK     1      -1.729  -1.303   3.572  1.00  0.00     0.092 C 
HETATM    7  C4  UNK     1      -2.115  -0.310   0.843  1.00  0.00     0.022 C 
HETATM    8  C5  UNK     1      -0.952  -0.945   1.102  1.00  0.00     0.037 C 
HETATM    9  C6  UNK     1       0.174  -1.111   0.116  1.00  0.00     0.160 C 
HETATM   10  C7  UNK     1      -0.688  -1.477   2.489  1.00  0.00     0.160 C 
HETATM   11  C8  UNK     1      -3.613  -2.581   2.474  1.00  0.00     0.015 C 
HETATM   12  C9  UNK     1      -4.111  -0.804   4.153  1.00  0.00     0.015 C 
HETATM   13  C11 UNK     1      -2.068   0.060  -1.674  1.00  0.00     0.059 A 
HETATM   14  C12 UNK     1      -1.076  -0.854  -2.065  1.00  0.00     0.055 A 
HETATM   15  C15 UNK     1      -2.755   0.783  -2.679  1.00  0.00     0.032 A 
HETATM   16  C16 UNK     1      -0.842  -1.042  -3.447  1.00  0.00     0.031 A 
HETATM   17  C18 UNK     1      -2.494   0.594  -4.034  1.00  0.00     0.002 A 
HETATM   18  C19 UNK     1      -1.540  -0.330  -4.421  1.00  0.00     0.002 A 
HETATM   19  H12 UNK     1      -3.272   0.923  -0.265  1.00  0.00     0.166 HD
HETATM   20  H13 UNK     1       0.278  -2.316  -1.603  1.00  0.00     0.160 HD
ENDROOT
BRANCH   9  21
HETATM   21  C10 UNK     1       1.029   0.114  -0.001  1.00  0.00     0.042 A 
HETATM   22  C13 UNK     1       2.194   0.081  -0.921  1.00  0.00     0.195 A 
HETATM   23  O3  UNK     1       2.473  -0.910  -1.582  1.00  0.00    -0.287 OA
HETATM   24  C17 UNK     1       3.002   1.312  -0.996  1.00  0.00     0.048 A 
HETATM   25  C20 UNK     1       2.636   2.412  -0.219  1.00  0.00     0.089 A 
HETATM   26  C21 UNK     1       4.119   1.382  -1.832  1.00  0.00     0.018 A 
HETATM   27  O2  UNK     1       1.550   2.400   0.618  1.00  0.00    -0.321 OA
HETATM   28  C22 UNK     1       3.386   3.588  -0.275  1.00  0.00     0.038 A 
HETATM   29  C14 UNK     1       0.807   1.247   0.679  1.00  0.00     0.156 A 
HETATM   30  C24 UNK     1       4.502   3.659  -1.110  1.00  0.00     0.003 A 
HETATM   31  C23 UNK     1       4.867   2.558  -1.886  1.00  0.00     0.001 A 
ENDBRANCH   9  21
TORSDOF 1
