REMARK  4 active torsions:
REMARK  status: ('A' for Active; 'I' for Inactive)
REMARK    1  A    between atoms: C12_17  and  O3_3 
REMARK    2  A    between atoms: C16_21  and  O3_3 
REMARK    3  A    between atoms: C1_6  and  N1_5 
REMARK       I    between atoms: C6_11  and  N1_5 
REMARK    4  A    between atoms: C6_11  and  C7_12 
ROOT
HETATM    1  O2  UNK     1      -1.514  -0.085  -0.358  1.00  0.00    -0.271 OA
HETATM    2  O4  UNK     1      -0.154   0.963  -1.864  1.00  0.00    -0.259 OA
HETATM    3  C7  UNK     1       0.738   0.602   0.301  1.00  0.00     0.108 A 
HETATM    4  C8  UNK     1       0.554   0.118   1.535  1.00  0.00     0.037 A 
HETATM    5  C9  UNK     1      -0.708  -0.509   1.896  1.00  0.00     0.002 A 
HETATM    6  C10 UNK     1      -0.319   0.521  -0.733  1.00  0.00     0.304 A 
HETATM    7  C11 UNK     1      -1.714  -0.596   0.940  1.00  0.00     0.123 A 
HETATM    8  C12 UNK     1      -2.945  -1.185   1.222  1.00  0.00     0.103 A 
HETATM    9  C13 UNK     1      -0.943  -1.026   3.172  1.00  0.00     0.014 A 
HETATM   10  C14 UNK     1      -3.172  -1.699   2.497  1.00  0.00     0.040 A 
HETATM   11  C15 UNK     1      -2.174  -1.620   3.470  1.00  0.00     0.004 A 
ENDROOT
BRANCH   3  12
HETATM   12  C6  UNK     1       2.044   1.216   0.033  1.00  0.00     0.258 C 
HETATM   13  O1  UNK     1       2.678   1.770   0.929  1.00  0.00    -0.267 OA
HETATM   14  N1  UNK     1       2.435   1.094  -1.289  1.00  0.00    -0.352 N 
HETATM   15  H10 UNK     1       1.829   0.624  -1.954  1.00  0.00     0.163 HD
BRANCH  14  16
HETATM   16  C1  UNK     1       3.679   1.620  -1.792  1.00  0.00     0.084 C 
HETATM   17  C2  UNK     1       3.509   3.028  -2.350  1.00  0.00     0.025 C 
HETATM   18  C4  UNK     1       2.965   2.819  -3.761  1.00  0.00     0.002 C 
HETATM   19  C5  UNK     1       3.432   1.429  -4.193  1.00  0.00     0.002 C 
HETATM   20  C3  UNK     1       4.181   0.837  -3.000  1.00  0.00     0.025 C 
ENDBRANCH  14  16
ENDBRANCH   3  12
BRANCH   8  21
HETATM   21  O3  UNK     1      -3.920  -1.264   0.277  1.00  0.00    -0.349 OA
BRANCH  21  22
HETATM   22  C16 UNK     1      -4.818  -2.370   0.361  1.00  0.00     0.171 C 
HETATM   23  C17 UNK     1      -5.304  -2.717  -1.031  1.00  0.00     0.034 C 
ENDBRANCH  21  22
ENDBRANCH   8  21
TORSDOF 4
