REMARK  3 active torsions:
REMARK  status: ('A' for Active; 'I' for Inactive)
REMARK    1  A    between atoms: C4_7  and  O1_1 
REMARK    2  A    between atoms: C5_8  and  O1_1 
REMARK    3  A    between atoms: C10_13  and  C3_6 
ROOT
HETATM    1  O2  UNK     1       0.454   1.152   1.161  1.00  0.00    -0.321 OA
HETATM    2  O3  UNK     1      -1.897  -1.307  -1.092  1.00  0.00    -0.286 OA
HETATM    3  C1  UNK     1       0.025   0.046  -0.956  1.00  0.00     0.049 A 
HETATM    4  C2  UNK     1       0.785   0.886  -0.143  1.00  0.00     0.091 A 
HETATM    5  C3  UNK     1      -1.497  -0.287   1.022  1.00  0.00     0.048 A 
HETATM    6  C5  UNK     1       2.318   1.266  -1.968  1.00  0.00     0.071 A 
HETATM    7  C6  UNK     1      -1.186  -0.586  -0.403  1.00  0.00     0.197 A 
HETATM    8  C7  UNK     1       1.932   1.498  -0.648  1.00  0.00     0.075 A 
HETATM    9  C8  UNK     1       0.410  -0.188  -2.279  1.00  0.00     0.021 A 
HETATM   10  C9  UNK     1       1.558   0.425  -2.782  1.00  0.00     0.038 A 
HETATM   11  C11 UNK     1      -0.665   0.541   1.672  1.00  0.00     0.159 A 
ENDROOT
BRANCH   5  12
HETATM   12  C10 UNK     1      -2.655  -0.883   1.709  1.00  0.00    -0.020 A 
HETATM   13  C15 UNK     1      -2.526  -2.109   2.365  1.00  0.00     0.012 A 
HETATM   14  C17 UNK     1      -3.623  -2.673   3.016  1.00  0.00     0.001 A 
HETATM   15  C18 UNK     1      -4.852  -2.013   3.012  1.00  0.00     0.000 A 
HETATM   16  C16 UNK     1      -4.983  -0.789   2.358  1.00  0.00     0.001 A 
HETATM   17  C14 UNK     1      -3.886  -0.224   1.707  1.00  0.00     0.012 A 
ENDBRANCH   5  12
BRANCH   6  18
HETATM   18  O1  UNK     1       3.438   1.860  -2.464  1.00  0.00    -0.347 OA
BRANCH  18  19
HETATM   19  C4  UNK     1       3.469   3.287  -2.467  1.00  0.00     0.120 C 
HETATM   20  C12 UNK     1       4.622   3.765  -1.598  1.00  0.00     0.040 C 
HETATM   21  C13 UNK     1       3.596   3.781  -3.900  1.00  0.00     0.040 C 
ENDBRANCH  18  19
ENDBRANCH   6  18
TORSDOF 3
