REMARK  4 active torsions:
REMARK  status: ('A' for Active; 'I' for Inactive)
REMARK    1  A    between atoms: C3_7  and  O1_2 
REMARK    2  A    between atoms: C6_10  and  O2_3 
REMARK    3  A    between atoms: C1_5  and  C4_8 
REMARK    4  A    between atoms: C7_11  and  C8_12 
ROOT
HETATM    1  N1  UNK     1      -4.286  -2.274  -1.555  1.00  0.00    -0.191 NA
HETATM    2  C4  UNK     1      -1.414  -0.395  -1.880  1.00  0.00     0.035 C 
HETATM    3  C8  UNK     1      -2.168  -0.926  -0.881  1.00  0.00     0.055 C 
HETATM    4  C15 UNK     1      -3.339  -1.671  -1.264  1.00  0.00     0.100 C 
ENDROOT
BRANCH   3   5
HETATM    5  C7  UNK     1      -1.852  -0.788   0.532  1.00  0.00    -0.015 A 
HETATM    6  C10 UNK     1      -1.042  -1.733   1.162  1.00  0.00     0.014 A 
HETATM    7  C12 UNK     1      -0.740  -1.601   2.517  1.00  0.00     0.024 A 
HETATM    8  C14 UNK     1      -1.248  -0.523   3.243  1.00  0.00     0.034 A 
HETATM    9  C13 UNK     1      -2.058   0.422   2.613  1.00  0.00     0.024 A 
HETATM   10 Cl1  UNK     1      -0.876  -0.361   4.915  1.00  0.00    -0.084 Cl
HETATM   11  C11 UNK     1      -2.360   0.289   1.258  1.00  0.00     0.014 A 
ENDBRANCH   3   5
BRANCH   2  12
HETATM   12  C1  UNK     1      -0.199   0.413  -1.700  1.00  0.00    -0.032 A 
HETATM   13  C2  UNK     1       1.035  -0.216  -1.631  1.00  0.00     0.051 A 
HETATM   14  C3  UNK     1       2.187   0.551  -1.459  1.00  0.00     0.102 A 
HETATM   15  C6  UNK     1       2.092   1.939  -1.357  1.00  0.00     0.101 A 
HETATM   16  C9  UNK     1       0.845   2.560  -1.427  1.00  0.00     0.040 A 
HETATM   17  C5  UNK     1      -0.307   1.793  -1.600  1.00  0.00     0.014 A 
BRANCH  14  18
HETATM   18  O1  UNK     1       3.400  -0.067  -1.392  1.00  0.00    -0.353 OA
HETATM   19  C16 UNK     1       3.856  -0.461  -0.100  1.00  0.00     0.210 C 
ENDBRANCH  14  18
BRANCH  15  20
HETATM   20  O2  UNK     1       3.210   2.699  -1.190  1.00  0.00    -0.353 OA
HETATM   21  C17 UNK     1       3.862   3.161  -2.372  1.00  0.00     0.210 C 
ENDBRANCH  15  20
ENDBRANCH   2  12
TORSDOF 4
