REMARK  2 active torsions:
REMARK  status: ('A' for Active; 'I' for Inactive)
REMARK    1  A    between atoms: C8_14  and  N1_5 
REMARK    2  A    between atoms: C1_7  and  C4_10 
ROOT
HETATM    1  O1  UNK     1      -0.333   0.683  -2.289  1.00  0.00    -0.291 OA
HETATM    2  O2  UNK     1       2.765   0.399   0.508  1.00  0.00    -0.274 OA
HETATM    3  O3  UNK     1       1.542  -1.100   1.715  1.00  0.00    -0.259 OA
HETATM    4  N2  UNK     1      -3.732  -2.562  -1.234  1.00  0.00    -0.191 NA
HETATM    5  C1  UNK     1      -0.775  -0.985   0.012  1.00  0.00     0.110 C 
HETATM    6  C2  UNK     1       0.513  -0.215  -0.237  1.00  0.00     0.066 A 
HETATM    7  C3  UNK     1       0.651   0.558  -1.325  1.00  0.00     0.104 A 
HETATM    8  C5  UNK     1      -1.691  -0.965  -1.214  1.00  0.00     0.086 C 
HETATM    9  C6  UNK     1       1.869   1.330  -1.554  1.00  0.00     0.033 A 
HETATM   10  C7  UNK     1       1.621  -0.357   0.743  1.00  0.00     0.298 A 
HETATM   11  C8  UNK     1      -1.447  -0.153  -2.267  1.00  0.00     0.159 C 
HETATM   12  C9  UNK     1       2.897   1.231  -0.620  1.00  0.00     0.092 A 
HETATM   13  C12 UNK     1       2.061   2.168  -2.659  1.00  0.00     0.017 A 
HETATM   14  C13 UNK     1       4.093   1.935  -0.755  1.00  0.00     0.038 A 
HETATM   15  C16 UNK     1       3.255   2.880  -2.810  1.00  0.00     0.001 A 
HETATM   16  C17 UNK     1      -2.818  -1.847  -1.225  1.00  0.00     0.100 C 
HETATM   17  C18 UNK     1       4.269   2.764  -1.859  1.00  0.00     0.003 A 
ENDROOT
BRANCH   5  18
HETATM   18  C4  UNK     1      -1.496  -0.437   1.208  1.00  0.00    -0.027 A 
HETATM   19  C10 UNK     1      -1.737  -1.216   2.337  1.00  0.00     0.018 A 
HETATM   20 Br1  UNK     1      -1.171  -3.023   2.442  1.00  0.00    -0.051 Br
HETATM   21  C14 UNK     1      -2.412  -0.666   3.427  1.00  0.00     0.019 A 
HETATM   22  C19 UNK     1      -2.843   0.660   3.384  1.00  0.00     0.001 A 
HETATM   23  C15 UNK     1      -2.599   1.436   2.251  1.00  0.00     0.001 A 
HETATM   24  C11 UNK     1      -1.924   0.887   1.161  1.00  0.00     0.009 A 
ENDBRANCH   5  18
BRANCH  11  25
HETATM   25  N1  UNK     1      -2.226  -0.060  -3.388  1.00  0.00    -0.379 N 
HETATM   26  H10 UNK     1      -3.064  -0.618  -3.487  1.00  0.00     0.158 HD
HETATM   27  H9  UNK     1      -1.952   0.582  -4.121  1.00  0.00     0.158 HD
ENDBRANCH  11  25
TORSDOF 2
