REMARK  4 active torsions:
REMARK  status: ('A' for Active; 'I' for Inactive)
REMARK    1  A    between atoms: C4_9  and  O2_2 
REMARK    2  A    between atoms: C9_14  and  O3_3 
REMARK    3  A    between atoms: C13_18  and  O5_5 
REMARK    4  A    between atoms: C2_7  and  C5_10 
ROOT
HETATM    1  O1  UNK     1      -0.853  -0.017  -0.875  1.00  0.00    -0.306 OA
HETATM    2  O4  UNK     1      -0.811   1.170   3.023  1.00  0.00    -0.284 OA
HETATM    3  C1  UNK     1      -1.730  -0.246   1.377  1.00  0.00     0.053 A 
HETATM    4  C2  UNK     1       0.012   0.970  -0.429  1.00  0.00     0.123 A 
HETATM    5  C3  UNK     1      -1.697  -0.605   0.031  1.00  0.00     0.090 A 
HETATM    6  C4  UNK     1       0.073   1.414   0.840  1.00  0.00     0.154 A 
HETATM    7  C6  UNK     1      -0.824   0.809   1.854  1.00  0.00     0.221 A 
HETATM    8  C7  UNK     1      -2.613  -0.880   2.254  1.00  0.00     0.055 A 
HETATM    9  C8  UNK     1      -2.550  -1.601  -0.447  1.00  0.00     0.041 A 
HETATM   10  C9  UNK     1      -3.464  -1.877   1.774  1.00  0.00     0.069 A 
HETATM   11  C11 UNK     1      -3.433  -2.236   0.426  1.00  0.00     0.039 A 
ENDROOT
BRANCH   4  12
HETATM   12  C5  UNK     1       0.862   1.517  -1.502  1.00  0.00     0.003 A 
HETATM   13  C10 UNK     1       2.110   0.951  -1.762  1.00  0.00     0.051 A 
HETATM   14  C13 UNK     1       2.914   1.470  -2.777  1.00  0.00     0.069 A 
HETATM   15  C15 UNK     1       2.469   2.555  -3.532  1.00  0.00     0.037 A 
HETATM   16  C14 UNK     1       1.221   3.121  -3.273  1.00  0.00     0.004 A 
HETATM   17  C12 UNK     1       0.418   2.603  -2.258  1.00  0.00     0.014 A 
BRANCH  14  18
HETATM   18  O5  UNK     1       4.133   0.919  -3.030  1.00  0.00    -0.356 OA
HETATM   19  C18 UNK     1       4.525  -0.188  -2.220  1.00  0.00     0.210 C 
ENDBRANCH  14  18
ENDBRANCH   4  12
BRANCH   6  20
HETATM   20  O2  UNK     1       0.923   2.421   1.245  1.00  0.00    -0.350 OA
HETATM   21  C16 UNK     1       2.168   1.892   1.661  1.00  0.00     0.210 C 
ENDBRANCH   6  20
BRANCH  10  22
HETATM   22  O3  UNK     1      -4.330  -2.498   2.622  1.00  0.00    -0.356 OA
HETATM   23  C17 UNK     1      -5.174  -3.505   2.064  1.00  0.00     0.210 C 
ENDBRANCH  10  22
TORSDOF 4
