REMARK  5 active torsions:
REMARK  status: ('A' for Active; 'I' for Inactive)
REMARK    1  A    between atoms: C5_12  and  N1_5 
REMARK    2  A    between atoms: C6_13  and  N2_6 
REMARK       I    between atoms: C8_15  and  N3_7 
REMARK    3  A    between atoms: C5_12  and  C7_14 
REMARK    4  A    between atoms: C6_13  and  C8_15 
REMARK    5  A    between atoms: C18_25  and  C24_31 
ROOT
HETATM    1  N1  UNK     1       2.022  -0.159  -0.787  1.00  0.00     0.096 N 
HETATM    2  N2  UNK     1       0.229  -1.238   1.207  1.00  0.00     0.100 N 
HETATM    3  C1  UNK     1       0.659  -0.579  -1.135  1.00  0.00     0.303 C 
HETATM    4  C2  UNK     1       2.527  -0.942   0.348  1.00  0.00     0.303 C 
HETATM    5  C3  UNK     1      -0.275  -0.455   0.073  1.00  0.00     0.303 C 
HETATM    6  C4  UNK     1       1.592  -0.816   1.555  1.00  0.00     0.303 C 
ENDROOT
BRANCH   1   7
HETATM    7  C5  UNK     1       2.913  -0.282  -1.939  1.00  0.00     0.312 C 
BRANCH   7   8
HETATM    8  C7  UNK     1       2.775   0.862  -2.882  1.00  0.00    -0.011 A 
HETATM    9  C12 UNK     1       1.893   0.826  -3.891  1.00  0.00     0.092 A 
HETATM   10  C19 UNK     1       1.720   1.932  -4.848  1.00  0.00     0.288 A 
HETATM   11  O3  UNK     1       2.524   3.046  -4.663  1.00  0.00    -0.275 OA
HETATM   12  O4  UNK     1       0.901   1.863  -5.757  1.00  0.00    -0.260 OA
HETATM   13  C14 UNK     1       3.459   3.114  -3.611  1.00  0.00     0.090 A 
HETATM   14  C9  UNK     1       3.613   2.057  -2.713  1.00  0.00     0.007 A 
HETATM   15  C20 UNK     1       4.215   4.284  -3.522  1.00  0.00     0.039 A 
HETATM   16  C16 UNK     1       4.565   2.202  -1.695  1.00  0.00     0.022 A 
HETATM   17  C18 UNK     1       5.330   3.370  -1.593  1.00  0.00    -0.058 A 
HETATM   18  C23 UNK     1       5.155   4.409  -2.505  1.00  0.00     0.010 A 
BRANCH  17  19
HETATM   19  C24 UNK     1       6.339   3.503  -0.501  1.00  0.00     0.034 C 
HETATM   20  C27 UNK     1       5.749   4.124   0.761  1.00  0.00     0.010 C 
ENDBRANCH  17  19
ENDBRANCH   7   8
ENDBRANCH   1   7
BRANCH   2  21
HETATM   21  C6  UNK     1      -0.662  -1.117   2.359  1.00  0.00     0.375 C 
BRANCH  21  22
HETATM   22  C8  UNK     1      -1.863  -2.026   2.223  1.00  0.00     0.253 C 
HETATM   23  O2  UNK     1      -1.712  -3.101   1.639  1.00  0.00    -0.271 OA
HETATM   24  N3  UNK     1      -3.054  -1.558   2.801  1.00  0.00    -0.312 N 
HETATM   25  C10 UNK     1      -3.055  -0.666   3.970  1.00  0.00     0.159 C 
HETATM   26  C11 UNK     1      -4.366  -1.881   2.298  1.00  0.00     0.071 A 
HETATM   27  C13 UNK     1      -4.198  -1.015   4.900  1.00  0.00     0.196 C 
HETATM   28  O1  UNK     1      -5.447  -0.838   4.241  1.00  0.00    -0.347 OA
HETATM   29  C15 UNK     1      -5.504  -1.489   3.033  1.00  0.00     0.095 A 
HETATM   30  C22 UNK     1      -6.798  -1.727   2.554  1.00  0.00     0.039 A 
HETATM   31  C25 UNK     1      -6.984  -2.379   1.341  1.00  0.00     0.009 A 
HETATM   32  C21 UNK     1      -5.878  -2.778   0.602  1.00  0.00    -0.060 A 
HETATM   33  C17 UNK     1      -4.583  -2.527   1.071  1.00  0.00     0.039 A 
HETATM   34  C26 UNK     1      -6.071  -3.466  -0.709  1.00  0.00     0.048 C 
ENDBRANCH  21  22
ENDBRANCH   2  21
TORSDOF 5
