REMARK  4 active torsions:
REMARK  status: ('A' for Active; 'I' for Inactive)
REMARK    1  A    between atoms: C11_14  and  O1_1 
REMARK    2  A    between atoms: C15_18  and  O1_1 
REMARK    3  A    between atoms: C6_9  and  C7_10 
REMARK    4  A    between atoms: C15_18  and  C16_19 
ROOT
HETATM    1  C7  UNK     1      -0.369  -0.301  -1.784  1.00  0.00    -0.033 A 
HETATM    2  C10 UNK     1      -1.216  -0.082  -0.710  1.00  0.00     0.048 A 
HETATM    3  C11 UNK     1      -1.704  -1.175   0.005  1.00  0.00     0.070 A 
HETATM    4  C14 UNK     1       0.004  -1.578  -2.163  1.00  0.00     0.011 A 
HETATM    5  C17 UNK     1      -1.339  -2.470  -0.363  1.00  0.00     0.037 A 
HETATM    6  C18 UNK     1      -0.485  -2.672  -1.448  1.00  0.00     0.004 A 
ENDROOT
BRANCH   1   7
HETATM    7  C6  UNK     1       0.148   0.855  -2.541  1.00  0.00     0.031 C 
HETATM    8  C3  UNK     1       1.263   1.533  -2.269  1.00  0.00     0.067 A 
HETATM    9  C4  UNK     1       1.765   2.694  -3.046  1.00  0.00     0.197 A 
HETATM   10  C5  UNK     1       2.186   1.236  -1.145  1.00  0.00     0.197 A 
HETATM   11  C1  UNK     1       3.006   3.084  -2.361  1.00  0.00     0.029 A 
HETATM   12  O2  UNK     1       1.274   3.214  -4.025  1.00  0.00    -0.286 OA
HETATM   13  C2  UNK     1       3.249   2.246  -1.268  1.00  0.00     0.029 A 
HETATM   14  C8  UNK     1       3.865   4.115  -2.688  1.00  0.00     0.016 A 
HETATM   15  C9  UNK     1       4.359   2.409  -0.463  1.00  0.00     0.016 A 
HETATM   16  C13 UNK     1       5.237   3.448  -0.781  1.00  0.00     0.001 A 
HETATM   17  C12 UNK     1       4.993   4.293  -1.882  1.00  0.00     0.001 A 
HETATM   18  O3  UNK     1       2.098   0.364  -0.308  1.00  0.00    -0.286 OA
ENDBRANCH   1   7
BRANCH   3  19
HETATM   19  O1  UNK     1      -2.538  -0.979   1.063  1.00  0.00    -0.347 OA
BRANCH  19  20
HETATM   20  C15 UNK     1      -3.000  -2.141   1.750  1.00  0.00     0.214 C 
BRANCH  20  21
HETATM   21  C16 UNK     1      -3.964  -1.798   2.836  1.00  0.00    -0.034 A 
HETATM   22  C19 UNK     1      -3.498  -1.541   4.126  1.00  0.00     0.009 A 
HETATM   23  C21 UNK     1      -4.399  -1.221   5.141  1.00  0.00     0.001 A 
HETATM   24  C23 UNK     1      -5.765  -1.158   4.867  1.00  0.00     0.000 A 
HETATM   25  C22 UNK     1      -6.231  -1.416   3.578  1.00  0.00     0.001 A 
HETATM   26  C20 UNK     1      -5.330  -1.736   2.562  1.00  0.00     0.009 A 
ENDBRANCH  20  21
ENDBRANCH  19  20
ENDBRANCH   3  19
TORSDOF 4
