REMARK  2 active torsions:
REMARK  status: ('A' for Active; 'I' for Inactive)
REMARK    1  A    between atoms: C1_7  and  C8_14 
REMARK    2  A    between atoms: C6_12  and  C9_15 
ROOT
HETATM    1  O1  UNK     1       0.361   3.043   1.150  1.00  0.00    -0.293 OA
HETATM    2  N1  UNK     1       0.062  -0.769  -1.785  1.00  0.00    -0.357 N 
HETATM    3  N2  UNK     1      -2.307   0.862  -0.914  1.00  0.00    -0.375 N 
HETATM    4  C1  UNK     1       2.609   1.929  -1.428  1.00  0.00     0.033 C 
HETATM    5  C2  UNK     1       2.106   0.490  -1.575  1.00  0.00     0.067 C 
HETATM    6  C3  UNK     1       0.057   1.172  -0.305  1.00  0.00     0.037 C 
HETATM    7  C4  UNK     1       0.646   0.326  -1.178  1.00  0.00     0.022 C 
HETATM    8  C5  UNK     1       2.332   2.412  -0.012  1.00  0.00     0.093 C 
HETATM    9  C6  UNK     1      -1.366   1.043   0.179  1.00  0.00     0.160 C 
HETATM   10  C7  UNK     1       0.865   2.282   0.323  1.00  0.00     0.160 C 
HETATM   11  C10 UNK     1      -1.285  -1.068  -2.072  1.00  0.00     0.059 A 
HETATM   12  C11 UNK     1      -2.383  -0.264  -1.720  1.00  0.00     0.055 A 
HETATM   13  C16 UNK     1      -1.522  -2.243  -2.824  1.00  0.00     0.032 A 
HETATM   14  C17 UNK     1      -3.667  -0.641  -2.174  1.00  0.00     0.031 A 
HETATM   15  C21 UNK     1      -2.799  -2.605  -3.245  1.00  0.00     0.002 A 
HETATM   16  C22 UNK     1      -3.876  -1.795  -2.927  1.00  0.00     0.002 A 
HETATM   17  H7  UNK     1       0.726  -1.421  -2.193  1.00  0.00     0.166 HD
HETATM   18  H8  UNK     1      -3.136   1.448  -0.884  1.00  0.00     0.160 HD
ENDROOT
BRANCH   9  19
HETATM   19  C9  UNK     1      -1.538  -0.026   1.217  1.00  0.00     0.042 A 
HETATM   20  C14 UNK     1      -2.891  -0.252   1.785  1.00  0.00     0.195 A 
HETATM   21  O3  UNK     1      -3.863   0.403   1.433  1.00  0.00    -0.287 OA
HETATM   22  C18 UNK     1      -3.004  -1.315   2.802  1.00  0.00     0.048 A 
HETATM   23  C23 UNK     1      -1.863  -2.031   3.164  1.00  0.00     0.089 A 
HETATM   24  C25 UNK     1      -4.235  -1.604   3.396  1.00  0.00     0.018 A 
HETATM   25  O2  UNK     1      -0.630  -1.789   2.613  1.00  0.00    -0.321 OA
HETATM   26  C26 UNK     1      -1.947  -3.040   4.124  1.00  0.00     0.038 A 
HETATM   27  C15 UNK     1      -0.540  -0.797   1.668  1.00  0.00     0.156 A 
HETATM   28  C28 UNK     1      -3.175  -3.331   4.718  1.00  0.00     0.003 A 
HETATM   29  C27 UNK     1      -4.316  -2.614   4.355  1.00  0.00     0.001 A 
ENDBRANCH   9  19
BRANCH   4  30
HETATM   30  C8  UNK     1       4.071   2.066  -1.807  1.00  0.00    -0.032 A 
HETATM   31  C12 UNK     1       4.482   2.877  -2.865  1.00  0.00     0.040 A 
HETATM   32 Cl1  UNK     1       3.342   3.772  -3.803  1.00  0.00    -0.084 Cl
HETATM   33  C19 UNK     1       5.836   2.979  -3.182  1.00  0.00     0.024 A 
HETATM   34  C24 UNK     1       6.781   2.269  -2.441  1.00  0.00     0.002 A 
HETATM   35  C20 UNK     1       6.371   1.457  -1.383  1.00  0.00     0.001 A 
HETATM   36  C13 UNK     1       5.017   1.356  -1.066  1.00  0.00     0.009 A 
ENDBRANCH   4  30
TORSDOF 2
