REMARK  4 active torsions:
REMARK  status: ('A' for Active; 'I' for Inactive)
REMARK    1  A    between atoms: C1_8  and  S1_1 
REMARK    2  A    between atoms: N1_7  and  S1_1 
REMARK    3  A    between atoms: C4_11  and  N1_7 
REMARK    4  A    between atoms: C4_11  and  C8_15 
ROOT
HETATM    1  O1  UNK     1      -1.735  -1.881   1.715  1.00  0.00    -0.275 OA
HETATM    2  O5  UNK     1      -3.954  -2.198   2.184  1.00  0.00    -0.260 OA
HETATM    3  C1  UNK     1       1.361   0.634   0.473  1.00  0.00     0.080 A 
HETATM    4  C2  UNK     1      -0.986   0.311   0.967  1.00  0.00    -0.001 A 
HETATM    5  C3  UNK     1       0.060   1.139   0.553  1.00  0.00     0.039 A 
HETATM    6  C5  UNK     1       1.623  -0.697   0.806  1.00  0.00     0.028 A 
HETATM    7  C6  UNK     1      -0.707  -1.013   1.294  1.00  0.00     0.089 A 
HETATM    8  C7  UNK     1       0.585  -1.530   1.220  1.00  0.00     0.040 A 
HETATM    9  C9  UNK     1      -2.356   0.784   1.067  1.00  0.00     0.020 A 
HETATM   10  C11 UNK     1      -3.325  -0.044   1.467  1.00  0.00     0.083 A 
HETATM   11  C12 UNK     1      -3.054  -1.450   1.819  1.00  0.00     0.288 A 
ENDROOT
BRANCH   3  12
HETATM   12  S1  UNK     1       2.666   1.673  -0.046  1.00  0.00     0.259 S 
HETATM   13  O2  UNK     1       2.304   3.056   0.235  1.00  0.00    -0.201 OA
HETATM   14  O3  UNK     1       3.905   1.135   0.500  1.00  0.00    -0.201 OA
BRANCH  12  15
HETATM   15  N1  UNK     1       2.670   1.442  -1.739  1.00  0.00    -0.309 N 
HETATM   16  H2  UNK     1       3.311   0.750  -2.146  1.00  0.00     0.172 HD
BRANCH  15  17
HETATM   17  C4  UNK     1       1.472   1.771  -2.526  1.00  0.00     0.197 C 
BRANCH  17  18
HETATM   18  C8  UNK     1       0.474   0.650  -2.630  1.00  0.00     0.070 A 
HETATM   19  C10 UNK     1       0.623  -0.693  -2.660  1.00  0.00     0.036 A 
HETATM   20  C13 UNK     1      -0.693  -1.205  -2.768  1.00  0.00     0.027 A 
HETATM   21  C14 UNK     1      -1.527  -0.112  -2.793  1.00  0.00     0.142 A 
HETATM   22  O4  UNK     1      -0.809   1.039  -2.708  1.00  0.00    -0.325 OA
ENDBRANCH  17  18
ENDBRANCH  15  17
ENDBRANCH  12  15
ENDBRANCH   3  12
TORSDOF 4
