REMARK  6 active torsions:
REMARK  status: ('A' for Active; 'I' for Inactive)
REMARK    1  A    between atoms: C10_18  and  O2_3 
REMARK    2  A    between atoms: C22_30  and  O2_3 
REMARK    3  A    between atoms: C4_12  and  N1_7 
REMARK       I    between atoms: C8_16  and  N1_7 
REMARK    4  A    between atoms: C7_15  and  N2_8 
REMARK       I    between atoms: C9_17  and  N2_8 
REMARK    5  A    between atoms: C2_10  and  C9_17 
REMARK    6  A    between atoms: C3_11  and  C8_16 
ROOT
HETATM    1  S1  UNK     1      -1.757  -0.226  -3.501  1.00  0.00    -0.083 SA
HETATM    2  C2  UNK     1       0.522   0.257  -2.418  1.00  0.00     0.066 A 
HETATM    3  C4  UNK     1      -0.752  -0.120  -2.135  1.00  0.00     0.092 A 
HETATM    4  C13 UNK     1       0.695   0.472  -3.816  1.00  0.00     0.027 A 
HETATM    5  C17 UNK     1      -0.465   0.245  -4.522  1.00  0.00     0.053 A 
ENDROOT
BRANCH   3   6
HETATM    6  N1  UNK     1      -1.355  -0.429  -0.912  1.00  0.00    -0.316 N 
HETATM    7  C8  UNK     1      -2.676  -0.808  -0.724  1.00  0.00     0.262 C 
HETATM    8  O3  UNK     1      -3.562  -0.946  -1.566  1.00  0.00    -0.267 OA
HETATM    9  H2  UNK     1      -0.728  -0.378  -0.113  1.00  0.00     0.169 HD
BRANCH   7  10
HETATM   10  C3  UNK     1      -2.978  -1.059   0.690  1.00  0.00     0.108 A 
HETATM   11  C12 UNK     1      -2.276  -0.346   1.781  1.00  0.00     0.304 A 
HETATM   12  O1  UNK     1      -2.651  -0.670   3.082  1.00  0.00    -0.274 OA
HETATM   13  O5  UNK     1      -1.408   0.490   1.556  1.00  0.00    -0.259 OA
HETATM   14  C5  UNK     1      -3.647  -1.628   3.352  1.00  0.00     0.089 A 
HETATM   15  C1  UNK     1      -4.294  -2.287   2.311  1.00  0.00    -0.001 A 
HETATM   16  C14 UNK     1      -3.954  -1.885   4.686  1.00  0.00     0.038 A 
HETATM   17  C6  UNK     1      -3.926  -1.970   0.940  1.00  0.00     0.037 A 
HETATM   18  C11 UNK     1      -5.277  -3.231   2.619  1.00  0.00     0.014 A 
HETATM   19  C16 UNK     1      -5.596  -3.500   3.953  1.00  0.00     0.001 A 
HETATM   20  C19 UNK     1      -4.936  -2.828   4.984  1.00  0.00     0.003 A 
ENDBRANCH   7  10
ENDBRANCH   3   6
BRANCH   2  21
HETATM   21  C9  UNK     1       1.553   0.416  -1.425  1.00  0.00     0.259 C 
HETATM   22  O4  UNK     1       1.539  -0.239  -0.368  1.00  0.00    -0.267 OA
HETATM   23  N2  UNK     1       2.535   1.378  -1.722  1.00  0.00    -0.320 N 
HETATM   24  H3  UNK     1       2.443   1.890  -2.597  1.00  0.00     0.169 HD
BRANCH  23  25
HETATM   25  C7  UNK     1       3.644   1.785  -0.939  1.00  0.00     0.068 A 
HETATM   26  C10 UNK     1       4.482   2.787  -1.397  1.00  0.00     0.095 A 
HETATM   27  C18 UNK     1       5.570   3.177  -0.615  1.00  0.00     0.039 A 
HETATM   28  C21 UNK     1       5.804   2.557   0.613  1.00  0.00     0.003 A 
HETATM   29  C20 UNK     1       4.950   1.549   1.059  1.00  0.00     0.002 A 
HETATM   30  C15 UNK     1       3.862   1.160   0.277  1.00  0.00     0.032 A 
BRANCH  26  31
HETATM   31  O2  UNK     1       4.272   3.405  -2.594  1.00  0.00    -0.349 OA
BRANCH  31  32
HETATM   32  C22 UNK     1       5.312   3.309  -3.564  1.00  0.00     0.171 C 
HETATM   33  C23 UNK     1       4.700   3.335  -4.948  1.00  0.00     0.034 C 
ENDBRANCH  31  32
ENDBRANCH  26  31
ENDBRANCH  23  25
ENDBRANCH   2  21
TORSDOF 6
