REMARK  5 active torsions:
REMARK  status: ('A' for Active; 'I' for Inactive)
REMARK    1  A    between atoms: C9_15  and  O2_2 
REMARK    2  A    between atoms: C10_16  and  O4_4 
REMARK    3  A    between atoms: C15_21  and  O5_5 
REMARK    4  A    between atoms: C17_23  and  O5_5 
REMARK    5  A    between atoms: C2_8  and  C5_11 
ROOT
HETATM    1  O1  UNK     1       1.522   2.500   0.712  1.00  0.00    -0.321 OA
HETATM    2  O3  UNK     1      -0.153  -0.503  -1.485  1.00  0.00    -0.286 OA
HETATM    3  C1  UNK     1       1.477   1.188  -1.330  1.00  0.00     0.052 A 
HETATM    4  C2  UNK     1      -0.122   0.718   0.559  1.00  0.00     0.048 A 
HETATM    5  C3  UNK     1       2.003   2.209  -0.539  1.00  0.00     0.092 A 
HETATM    6  C4  UNK     1       0.356   0.383  -0.811  1.00  0.00     0.198 A 
HETATM    7  C6  UNK     1       2.007   0.938  -2.599  1.00  0.00     0.058 A 
HETATM    8  C7  UNK     1       0.492   1.729   1.193  1.00  0.00     0.159 A 
HETATM    9  C8  UNK     1       3.061   2.986  -1.013  1.00  0.00     0.077 A 
HETATM   10  C9  UNK     1       3.065   1.716  -3.070  1.00  0.00     0.102 A 
HETATM   11  C10 UNK     1       3.591   2.738  -2.279  1.00  0.00     0.101 A 
ENDROOT
BRANCH   4  12
HETATM   12  C5  UNK     1      -1.207  -0.032   1.211  1.00  0.00    -0.020 A 
HETATM   13  C11 UNK     1      -2.365   0.629   1.619  1.00  0.00     0.015 A 
HETATM   14  C13 UNK     1      -3.394  -0.082   2.237  1.00  0.00     0.038 A 
HETATM   15  C15 UNK     1      -3.264  -1.455   2.447  1.00  0.00     0.079 A 
HETATM   16  C14 UNK     1      -2.106  -2.116   2.039  1.00  0.00     0.038 A 
HETATM   17  C12 UNK     1      -1.078  -1.405   1.421  1.00  0.00     0.015 A 
BRANCH  15  18
HETATM   18  O5  UNK     1      -4.268  -2.149   3.050  1.00  0.00    -0.279 OA
BRANCH  18  19
HETATM   19  C17 UNK     1      -5.223  -2.667   2.159  1.00  0.00     0.260 C 
HETATM   20  O6  UNK     1      -5.210  -2.538   0.942  1.00  0.00    -0.265 OA
HETATM   21  C18 UNK     1      -6.282  -3.411   2.918  1.00  0.00     0.126 C 
ENDBRANCH  18  19
ENDBRANCH  15  18
ENDBRANCH   4  12
BRANCH  10  22
HETATM   22  O2  UNK     1       3.579   1.467  -4.307  1.00  0.00    -0.353 OA
HETATM   23  C16 UNK     1       2.996   2.167  -5.404  1.00  0.00     0.210 C 
ENDBRANCH  10  22
BRANCH  11  24
HETATM   24  O4  UNK     1       4.625   3.500  -2.732  1.00  0.00    -0.358 OA
HETATM   25  H8  UNK     1       4.857   4.157  -2.052  1.00  0.00     0.217 HD
ENDBRANCH  11  24
TORSDOF 5
