REMARK  6 active torsions:
REMARK  status: ('A' for Active; 'I' for Inactive)
REMARK    1  A    between atoms: C10_17  and  O2_3 
REMARK    2  A    between atoms: C12_19  and  O3_4 
REMARK       I    between atoms: C11_18  and  N1_7 
REMARK    3  A    between atoms: C13_20  and  N1_7 
REMARK    4  A    between atoms: C3_10  and  C4_11 
REMARK    5  A    between atoms: C11_18  and  C4_11 
REMARK    6  A    between atoms: C13_20  and  C14_21 
ROOT
HETATM    1  O1  UNK     1       1.675  -0.914  -0.317  1.00  0.00    -0.274 OA
HETATM    2  O4  UNK     1       0.064  -2.513  -0.300  1.00  0.00    -0.259 OA
HETATM    3  C1  UNK     1       0.173   0.497  -2.258  1.00  0.00    -0.036 A 
HETATM    4  C2  UNK     1       1.465   1.024  -1.772  1.00  0.00     0.007 A 
HETATM    5  C3  UNK     1      -0.276  -0.688  -1.793  1.00  0.00     0.033 A 
HETATM    6  C5  UNK     1       2.171   0.300  -0.816  1.00  0.00     0.093 A 
HETATM    7  C6  UNK     1       2.044   2.221  -2.223  1.00  0.00     0.054 A 
HETATM    8  C7  UNK     1       0.478  -1.452  -0.758  1.00  0.00     0.295 A 
HETATM    9  C8  UNK     1      -0.580   1.346  -3.251  1.00  0.00     0.050 C 
HETATM   10  C9  UNK     1       3.400   0.726  -0.305  1.00  0.00     0.077 A 
HETATM   11  C10 UNK     1       3.274   2.664  -1.722  1.00  0.00     0.102 A 
HETATM   12  C12 UNK     1       3.951   1.917  -0.762  1.00  0.00     0.104 A 
ENDROOT
BRANCH   5  13
HETATM   13  C4  UNK     1      -1.542  -1.368  -2.250  1.00  0.00     0.148 C 
BRANCH  13  14
HETATM   14  C11 UNK     1      -2.680  -0.905  -1.373  1.00  0.00     0.222 C 
HETATM   15  O5  UNK     1      -3.012   0.277  -1.294  1.00  0.00    -0.273 OA
HETATM   16  N1  UNK     1      -3.270  -1.947  -0.677  1.00  0.00    -0.357 N 
HETATM   17  H10 UNK     1      -2.911  -2.891  -0.786  1.00  0.00     0.162 HD
BRANCH  16  18
HETATM   18  C13 UNK     1      -4.369  -1.758   0.242  1.00  0.00     0.161 C 
BRANCH  18  19
HETATM   19  C14 UNK     1      -3.889  -1.499   1.646  1.00  0.00    -0.040 A 
HETATM   20  C15 UNK     1      -3.689  -2.568   2.508  1.00  0.00     0.010 A 
HETATM   21  C17 UNK     1      -3.245  -2.328   3.808  1.00  0.00     0.024 A 
HETATM   22  C21 UNK     1      -3.006  -1.021   4.234  1.00  0.00     0.034 A 
HETATM   23  C18 UNK     1      -3.211   0.046   3.358  1.00  0.00     0.024 A 
HETATM   24 Cl1  UNK     1      -2.459  -0.725   5.838  1.00  0.00    -0.084 Cl
HETATM   25  C16 UNK     1      -3.655  -0.194   2.058  1.00  0.00     0.010 A 
ENDBRANCH  18  19
ENDBRANCH  16  18
ENDBRANCH  13  14
ENDBRANCH   5  13
BRANCH  11  26
HETATM   26  O2  UNK     1       3.801   3.832  -2.186  1.00  0.00    -0.353 OA
HETATM   27  C19 UNK     1       3.046   4.538  -3.168  1.00  0.00     0.210 C 
ENDBRANCH  11  26
BRANCH  12  28
HETATM   28  O3  UNK     1       5.148   2.338  -0.269  1.00  0.00    -0.353 OA
HETATM   29  C20 UNK     1       6.321   1.904  -0.954  1.00  0.00     0.210 C 
ENDBRANCH  12  28
TORSDOF 6
