REMARK  6 active torsions:
REMARK  status: ('A' for Active; 'I' for Inactive)
REMARK    1  A    between atoms: C11_19  and  O2_3 
REMARK    2  A    between atoms: C16_24  and  O3_4 
REMARK       I    between atoms: C10_18  and  N1_8 
REMARK    3  A    between atoms: C3_11  and  N1_8 
REMARK    4  A    between atoms: C1_9  and  C5_13 
REMARK    5  A    between atoms: C16_24  and  C2_10 
REMARK    6  A    between atoms: C10_18  and  C6_14 
ROOT
HETATM    1  O4  UNK     1       1.930   0.431   1.963  1.00  0.00    -0.267 OA
HETATM    2  N1  UNK     1       0.131  -0.011   0.508  1.00  0.00    -0.316 N 
HETATM    3  C10 UNK     1       1.404   0.423   0.851  1.00  0.00     0.262 C 
HETATM    4  H3  UNK     1      -0.170   0.063  -0.460  1.00  0.00     0.169 HD
ENDROOT
BRANCH   2   5
HETATM    5  C3  UNK     1      -0.859  -0.548   1.367  1.00  0.00     0.094 A 
HETATM    6  C2  UNK     1      -2.102  -0.982   1.085  1.00  0.00     0.085 A 
HETATM    7  C1  UNK     1      -2.750  -1.443   2.267  1.00  0.00    -0.000 A 
HETATM    8  C9  UNK     1      -1.944  -1.327   3.378  1.00  0.00     0.065 A 
HETATM    9  S1  UNK     1      -0.413  -0.663   2.995  1.00  0.00    -0.082 SA
BRANCH   6  10
HETATM   10  C16 UNK     1      -2.678  -0.970  -0.237  1.00  0.00     0.296 C 
HETATM   11  O6  UNK     1      -3.523  -1.768  -0.668  1.00  0.00    -0.259 OA
BRANCH  10  12
HETATM   12  O3  UNK     1      -2.175   0.057  -1.001  1.00  0.00    -0.322 OA
HETATM   13  C23 UNK     1      -2.674   0.171  -2.339  1.00  0.00     0.213 C 
ENDBRANCH  10  12
ENDBRANCH   6  10
BRANCH   7  14
HETATM   14  C5  UNK     1      -4.080  -1.982   2.389  1.00  0.00    -0.024 A 
HETATM   15  C14 UNK     1      -5.153  -1.130   2.644  1.00  0.00     0.012 A 
HETATM   16  C19 UNK     1      -6.441  -1.651   2.762  1.00  0.00     0.001 A 
HETATM   17  C21 UNK     1      -6.654  -3.023   2.624  1.00  0.00     0.000 A 
HETATM   18  C20 UNK     1      -5.578  -3.873   2.368  1.00  0.00     0.001 A 
HETATM   19  C15 UNK     1      -4.290  -3.352   2.251  1.00  0.00     0.012 A 
ENDBRANCH   7  14
ENDBRANCH   2   5
BRANCH   3  20
HETATM   20  C6  UNK     1       2.152   0.917  -0.312  1.00  0.00     0.108 A 
HETATM   21  C13 UNK     1       1.926   0.387  -1.675  1.00  0.00     0.304 A 
HETATM   22  O1  UNK     1       2.696   0.937  -2.696  1.00  0.00    -0.271 OA
HETATM   23  O5  UNK     1       1.101  -0.493  -1.900  1.00  0.00    -0.259 OA
HETATM   24  C7  UNK     1       3.646   1.947  -2.448  1.00  0.00     0.123 A 
HETATM   25  C11 UNK     1       4.370   2.434  -3.534  1.00  0.00     0.102 A 
HETATM   26  C4  UNK     1       3.844   2.430  -1.159  1.00  0.00     0.002 A 
HETATM   27  C17 UNK     1       5.317   3.433  -3.320  1.00  0.00     0.040 A 
HETATM   28  C18 UNK     1       5.530   3.931  -2.033  1.00  0.00     0.004 A 
HETATM   29  C12 UNK     1       4.796   3.432  -0.953  1.00  0.00     0.014 A 
HETATM   30  C8  UNK     1       3.053   1.877  -0.071  1.00  0.00     0.037 A 
BRANCH  25  31
HETATM   31  O2  UNK     1       4.167   1.953  -4.789  1.00  0.00    -0.353 OA
HETATM   32  C22 UNK     1       3.180   2.608  -5.585  1.00  0.00     0.210 C 
ENDBRANCH  25  31
ENDBRANCH   3  20
TORSDOF 6
