REMARK  4 active torsions:
REMARK  status: ('A' for Active; 'I' for Inactive)
REMARK    1  A    between atoms: C14_20  and  O4_4 
REMARK    2  A    between atoms: C3_9  and  N1_6 
REMARK       I    between atoms: C7_13  and  N1_6 
REMARK    3  A    between atoms: C1_7  and  C3_9 
REMARK    4  A    between atoms: C7_13  and  C8_14 
ROOT
HETATM    1  O2  UNK     1       1.967   0.494  -0.060  1.00  0.00    -0.271 OA
HETATM    2  O5  UNK     1       0.676  -1.050   1.021  1.00  0.00    -0.259 OA
HETATM    3  C8  UNK     1      -0.175  -0.194  -1.018  1.00  0.00     0.108 A 
HETATM    4  C9  UNK     1      -0.002   0.626  -2.062  1.00  0.00     0.037 A 
HETATM    5  C10 UNK     1       1.196   1.444  -2.161  1.00  0.00     0.002 A 
HETATM    6  C11 UNK     1       0.831  -0.300   0.063  1.00  0.00     0.304 A 
HETATM    7  C12 UNK     1       2.155   1.359  -1.156  1.00  0.00     0.123 A 
HETATM    8  C13 UNK     1       1.418   2.314  -3.231  1.00  0.00     0.014 A 
HETATM    9  C14 UNK     1       3.324   2.116  -1.190  1.00  0.00     0.102 A 
HETATM   10  C15 UNK     1       3.538   2.980  -2.262  1.00  0.00     0.040 A 
HETATM   11  C16 UNK     1       2.587   3.080  -3.280  1.00  0.00     0.004 A 
ENDROOT
BRANCH   3  12
HETATM   12  C7  UNK     1      -1.416  -0.978  -1.008  1.00  0.00     0.258 C 
HETATM   13  O3  UNK     1      -1.956  -1.318  -2.059  1.00  0.00    -0.267 OA
HETATM   14  N1  UNK     1      -1.863  -1.261   0.270  1.00  0.00    -0.350 N 
HETATM   15  H12 UNK     1      -1.326  -0.955   1.075  1.00  0.00     0.163 HD
BRANCH  14  16
HETATM   16  C3  UNK     1      -3.065  -2.018   0.534  1.00  0.00     0.109 C 
HETATM   17  C6  UNK     1      -2.747  -3.507   0.587  1.00  0.00     0.035 C 
BRANCH  16  18
HETATM   18  C1  UNK     1      -3.719  -1.550   1.820  1.00  0.00     0.143 C 
HETATM   19  O1  UNK     1      -2.829  -1.767   2.928  1.00  0.00    -0.384 OA
HETATM   20  C5  UNK     1      -2.895  -0.624   3.793  1.00  0.00     0.168 C 
HETATM   21  C4  UNK     1      -4.042   0.235   3.304  1.00  0.00     0.029 C 
HETATM   22  C2  UNK     1      -4.050  -0.068   1.827  1.00  0.00     0.036 C 
ENDBRANCH  16  18
ENDBRANCH  14  16
ENDBRANCH   3  12
BRANCH   9  23
HETATM   23  O4  UNK     1       4.253   2.022  -0.202  1.00  0.00    -0.353 OA
HETATM   24  C17 UNK     1       5.281   1.045  -0.365  1.00  0.00     0.210 C 
ENDBRANCH   9  23
TORSDOF 4
