REMARK  1 active torsions:
REMARK  status: ('A' for Active; 'I' for Inactive)
REMARK       I    between atoms: C6_10  and  N1_4 
REMARK    1  A    between atoms: C6_10  and  C7_11 
ROOT
HETATM    1  O2  UNK     1       0.460   1.547  -2.264  1.00  0.00    -0.274 OA
HETATM    2  O3  UNK     1      -1.638   0.672  -2.488  1.00  0.00    -0.259 OA
HETATM    3  C7  UNK     1      -0.245  -0.316  -0.845  1.00  0.00     0.108 A 
HETATM    4  C8  UNK     1       0.943  -0.332  -0.229  1.00  0.00     0.037 A 
HETATM    5  C9  UNK     1       1.979   0.615  -0.609  1.00  0.00    -0.001 A 
HETATM    6  C10 UNK     1      -0.550   0.653  -1.922  1.00  0.00     0.304 A 
HETATM    7  C11 UNK     1       1.713   1.534  -1.619  1.00  0.00     0.089 A 
HETATM    8  C12 UNK     1       3.233   0.634   0.005  1.00  0.00     0.014 A 
HETATM    9  C13 UNK     1       2.662   2.469  -2.030  1.00  0.00     0.038 A 
HETATM   10  C14 UNK     1       4.195   1.565  -0.396  1.00  0.00     0.001 A 
HETATM   11  C15 UNK     1       3.910   2.480  -1.411  1.00  0.00     0.003 A 
ENDROOT
BRANCH   3  12
HETATM   12  C6  UNK     1      -1.231  -1.316  -0.388  1.00  0.00     0.259 C 
HETATM   13  N1  UNK     1      -2.088  -0.957   0.650  1.00  0.00    -0.348 N 
HETATM   14  C4  UNK     1      -3.080  -1.928   1.121  1.00  0.00     0.126 C 
HETATM   15  C5  UNK     1      -2.139   0.350   1.322  1.00  0.00     0.126 C 
HETATM   16  C2  UNK     1      -2.994  -2.125   2.631  1.00  0.00     0.020 C 
HETATM   17  C1  UNK     1      -3.101  -0.790   3.363  1.00  0.00     0.003 C 
HETATM   18  C3  UNK     1      -2.058   0.195   2.841  1.00  0.00     0.020 C 
HETATM   19  O1  UNK     1      -1.238  -2.408  -0.958  1.00  0.00    -0.267 OA
ENDBRANCH   3  12
TORSDOF 1
