REMARK  3 active torsions:
REMARK  status: ('A' for Active; 'I' for Inactive)
REMARK    1  A    between atoms: C5_11  and  N1_5 
REMARK       I    between atoms: C6_12  and  N1_5 
REMARK    2  A    between atoms: C2_8  and  C6_12 
REMARK    3  A    between atoms: C10_16  and  C5_11 
ROOT
HETATM    1 Br1  UNK     1       5.838   3.603  -1.837  1.00  0.00    -0.051 Br
HETATM    2  O1  UNK     1       0.578   0.670  -2.575  1.00  0.00    -0.274 OA
HETATM    3  O3  UNK     1      -1.149  -0.554  -1.715  1.00  0.00    -0.259 OA
HETATM    4  C1  UNK     1       2.383   1.390  -1.114  1.00  0.00     0.000 A 
HETATM    5  C2  UNK     1       0.554   0.092  -0.199  1.00  0.00     0.108 A 
HETATM    6  C3  UNK     1       1.799   1.344  -2.376  1.00  0.00     0.089 A 
HETATM    7  C4  UNK     1       1.713   0.731  -0.004  1.00  0.00     0.037 A 
HETATM    8  C7  UNK     1       3.594   2.069  -0.956  1.00  0.00     0.033 A 
HETATM    9  C8  UNK     1      -0.086   0.030  -1.532  1.00  0.00     0.304 A 
HETATM   10  C9  UNK     1       2.388   1.956  -3.480  1.00  0.00     0.039 A 
HETATM   11  C11 UNK     1       4.198   2.687  -2.056  1.00  0.00     0.011 A 
HETATM   12  C12 UNK     1       3.596   2.630  -3.315  1.00  0.00     0.022 A 
ENDROOT
BRANCH   5  13
HETATM   13  C6  UNK     1      -0.045  -0.542   0.982  1.00  0.00     0.258 C 
HETATM   14  O2  UNK     1       0.136  -0.080   2.107  1.00  0.00    -0.267 OA
HETATM   15  N1  UNK     1      -0.791  -1.664   0.670  1.00  0.00    -0.351 N 
HETATM   16  H5  UNK     1      -0.866  -1.977  -0.293  1.00  0.00     0.163 HD
BRANCH  15  17
HETATM   17  C5  UNK     1      -1.474  -2.458   1.666  1.00  0.00     0.182 C 
BRANCH  17  18
HETATM   18  C10 UNK     1      -2.874  -1.952   1.837  1.00  0.00     0.051 A 
HETATM   19  N2  UNK     1      -3.055  -0.993   2.769  1.00  0.00    -0.264 NA
HETATM   20  C15 UNK     1      -4.320  -0.541   2.920  1.00  0.00     0.117 A 
HETATM   21  C16 UNK     1      -5.401  -1.001   2.185  1.00  0.00     0.019 A 
HETATM   22  C14 UNK     1      -5.169  -1.990   1.236  1.00  0.00     0.003 A 
HETATM   23  C13 UNK     1      -3.881  -2.481   1.052  1.00  0.00     0.029 A 
ENDBRANCH  17  18
ENDBRANCH  15  17
ENDBRANCH   5  13
TORSDOF 3
