REMARK  4 active torsions:
REMARK  status: ('A' for Active; 'I' for Inactive)
REMARK    1  A    between atoms: C1_5  and  N1_4 
REMARK       I    between atoms: C5_9  and  N1_4 
REMARK    2  A    between atoms: C1_5  and  C2_6 
REMARK    3  A    between atoms: C1_5  and  C3_7 
REMARK    4  A    between atoms: C5_9  and  C8_12 
ROOT
HETATM    1  O2  UNK     1      -1.355   1.797   0.441  1.00  0.00    -0.267 OA
HETATM    2  N1  UNK     1      -1.525  -0.364  -0.415  1.00  0.00    -0.348 N 
HETATM    3  C5  UNK     1      -0.911   0.859  -0.217  1.00  0.00     0.258 C 
HETATM    4  H4  UNK     1      -1.037  -1.097  -0.921  1.00  0.00     0.163 HD
ENDROOT
BRANCH   3   5
HETATM    5  C8  UNK     1       0.391   0.959  -0.888  1.00  0.00     0.108 A 
HETATM    6  C10 UNK     1       1.298   1.752  -0.305  1.00  0.00     0.037 A 
HETATM    7  C9  UNK     1       2.617   1.915  -0.895  1.00  0.00    -0.001 A 
HETATM    8  C13 UNK     1       2.917   1.234  -2.071  1.00  0.00     0.089 A 
HETATM    9  C16 UNK     1       3.594   2.733  -0.322  1.00  0.00     0.014 A 
HETATM   10  O1  UNK     1       1.959   0.400  -2.679  1.00  0.00    -0.274 OA
HETATM   11  C17 UNK     1       4.162   1.347  -2.687  1.00  0.00     0.038 A 
HETATM   12  C14 UNK     1       0.689   0.225  -2.138  1.00  0.00     0.304 A 
HETATM   13  O3  UNK     1      -0.140  -0.503  -2.675  1.00  0.00    -0.259 OA
HETATM   14  C19 UNK     1       5.130   2.165  -2.109  1.00  0.00     0.003 A 
HETATM   15  C18 UNK     1       4.847   2.856  -0.928  1.00  0.00     0.001 A 
ENDBRANCH   3   5
BRANCH   2  16
HETATM   16  C1  UNK     1      -2.813  -0.699   0.149  1.00  0.00     0.117 C 
BRANCH  16  17
HETATM   17  C2  UNK     1      -3.600  -1.643  -0.777  1.00  0.00     0.025 C 
HETATM   18  C4  UNK     1      -3.733  -1.096  -2.193  1.00  0.00     0.007 C 
ENDBRANCH  16  17
BRANCH  16  19
HETATM   19  C3  UNK     1      -2.654  -1.281   1.539  1.00  0.00    -0.035 A 
HETATM   20  C6  UNK     1      -3.617  -1.012   2.496  1.00  0.00     0.009 A 
HETATM   21  C11 UNK     1      -3.471  -1.548   3.775  1.00  0.00     0.001 A 
HETATM   22  C15 UNK     1      -2.365  -2.343   4.076  1.00  0.00     0.000 A 
HETATM   23  C12 UNK     1      -1.405  -2.603   3.098  1.00  0.00     0.001 A 
HETATM   24  C7  UNK     1      -1.551  -2.067   1.818  1.00  0.00     0.009 A 
ENDBRANCH  16  19
ENDBRANCH   2  16
TORSDOF 4
