REMARK  3 active torsions:
REMARK  status: ('A' for Active; 'I' for Inactive)
REMARK    1  A    between atoms: C1_7  and  N1_6 
REMARK       I    between atoms: C5_11  and  N1_6 
REMARK    2  A    between atoms: C1_7  and  C2_8 
REMARK    3  A    between atoms: C5_11  and  C6_12 
ROOT
HETATM    1  C1  UNK     1       3.354   1.508  -1.536  1.00  0.00     0.092 C 
HETATM    2  C3  UNK     1       4.369   0.918  -0.549  1.00  0.00     0.053 C 
HETATM    3  C7  UNK     1       3.749   1.161  -2.915  1.00  0.00    -0.086 C 
HETATM    4  C16 UNK     1       4.074   0.878  -4.036  1.00  0.00     0.015 C 
ENDROOT
BRANCH   1   5
HETATM    5  N1  UNK     1       2.066   0.925  -1.238  1.00  0.00    -0.337 N 
HETATM    6  C5  UNK     1       1.432   1.077  -0.018  1.00  0.00     0.259 C 
HETATM    7  O2  UNK     1       1.859   1.706   0.948  1.00  0.00    -0.267 OA
HETATM    8  H3  UNK     1       1.634   0.349  -1.956  1.00  0.00     0.164 HD
BRANCH   6   9
HETATM    9  C6  UNK     1       0.135   0.394   0.040  1.00  0.00     0.108 A 
HETATM   10  C11 UNK     1      -0.707   0.203  -1.162  1.00  0.00     0.304 A 
HETATM   11  O1  UNK     1      -1.917  -0.461  -0.979  1.00  0.00    -0.272 OA
HETATM   12  O3  UNK     1      -0.361   0.606  -2.267  1.00  0.00    -0.259 OA
HETATM   13  C10 UNK     1      -2.324  -0.930   0.286  1.00  0.00     0.111 A 
HETATM   14  C8  UNK     1      -1.517  -0.740   1.403  1.00  0.00     0.002 A 
HETATM   15  C13 UNK     1      -3.552  -1.584   0.370  1.00  0.00     0.070 A 
HETATM   16  C12 UNK     1      -1.955  -1.219   2.640  1.00  0.00     0.038 A 
HETATM   17  C9  UNK     1      -0.247  -0.049   1.244  1.00  0.00     0.037 A 
HETATM   18  C14 UNK     1      -3.185  -1.876   2.740  1.00  0.00     0.036 A 
HETATM   19 Cl2  UNK     1      -3.719  -2.466   4.267  1.00  0.00    -0.084 Cl
HETATM   20  C15 UNK     1      -3.981  -2.059   1.607  1.00  0.00     0.050 A 
HETATM   21 Cl1  UNK     1      -4.551  -1.820  -1.015  1.00  0.00    -0.081 Cl
ENDBRANCH   6   9
ENDBRANCH   1   5
BRANCH   1  22
HETATM   22  C2  UNK     1       3.269   3.037  -1.344  1.00  0.00     0.040 C 
HETATM   23  C4  UNK     1       2.239   3.739  -2.226  1.00  0.00     0.009 C 
ENDBRANCH   1  22
TORSDOF 3
