REMARK  4 active torsions:
REMARK  status: ('A' for Active; 'I' for Inactive)
REMARK    1  A    between atoms: C1_6  and  N1_5 
REMARK       I    between atoms: C5_10  and  N1_5 
REMARK    2  A    between atoms: C1_6  and  C2_7 
REMARK    3  A    between atoms: C1_6  and  C3_8 
REMARK    4  A    between atoms: C5_10  and  C8_13 
ROOT
HETATM    1  O2  UNK     1      -0.370   2.336  -0.474  1.00  0.00    -0.267 OA
HETATM    2  N1  UNK     1       1.531   1.058  -0.039  1.00  0.00    -0.348 N 
HETATM    3  C5  UNK     1       0.176   1.337  -0.009  1.00  0.00     0.258 C 
HETATM    4  H4  UNK     1       1.869   0.168   0.315  1.00  0.00     0.163 HD
ENDROOT
BRANCH   3   5
HETATM    5  C8  UNK     1      -0.608   0.291   0.658  1.00  0.00     0.108 A 
HETATM    6  C10 UNK     1      -1.864   0.128   0.227  1.00  0.00     0.037 A 
HETATM    7  C9  UNK     1      -2.719  -0.885   0.826  1.00  0.00     0.001 A 
HETATM    8  C11 UNK     1      -2.209  -1.677   1.849  1.00  0.00     0.089 A 
HETATM    9  C16 UNK     1      -4.036  -1.090   0.408  1.00  0.00     0.038 A 
HETATM   10  O1  UNK     1      -0.886  -1.501   2.299  1.00  0.00    -0.274 OA
HETATM   11  C17 UNK     1      -2.976  -2.665   2.465  1.00  0.00     0.040 A 
HETATM   12  C14 UNK     1      -0.044  -0.540   1.745  1.00  0.00     0.304 A 
HETATM   13  O3  UNK     1       1.107  -0.394   2.143  1.00  0.00    -0.259 OA
HETATM   14  C19 UNK     1      -4.288  -2.862   2.042  1.00  0.00     0.026 A 
HETATM   15  C18 UNK     1      -4.818  -2.077   1.016  1.00  0.00     0.035 A 
HETATM   16 Cl1  UNK     1      -6.441  -2.326   0.497  1.00  0.00    -0.084 Cl
ENDBRANCH   3   5
BRANCH   2  17
HETATM   17  C1  UNK     1       2.503   1.939  -0.645  1.00  0.00     0.117 C 
BRANCH  17  18
HETATM   18  C2  UNK     1       3.851   1.874   0.093  1.00  0.00     0.025 C 
HETATM   19  C4  UNK     1       3.713   2.136   1.587  1.00  0.00     0.007 C 
ENDBRANCH  17  18
BRANCH  17  20
HETATM   20  C3  UNK     1       2.657   1.633  -2.121  1.00  0.00    -0.035 A 
HETATM   21  C6  UNK     1       2.904   2.670  -3.002  1.00  0.00     0.009 A 
HETATM   22  C12 UNK     1       3.045   2.389  -4.361  1.00  0.00     0.001 A 
HETATM   23  C15 UNK     1       2.936   1.074  -4.816  1.00  0.00     0.000 A 
HETATM   24  C13 UNK     1       2.686   0.042  -3.912  1.00  0.00     0.001 A 
HETATM   25  C7  UNK     1       2.545   0.324  -2.553  1.00  0.00     0.009 A 
ENDBRANCH  17  20
ENDBRANCH   2  17
TORSDOF 4
