REMARK  4 active torsions:
REMARK  status: ('A' for Active; 'I' for Inactive)
REMARK    1  A    between atoms: C1_10  and  N1_8 
REMARK       I    between atoms: C9_18  and  N1_8 
REMARK    2  A    between atoms: C18_27  and  N2_9 
REMARK    3  A    between atoms: C1_10  and  C2_11 
REMARK    4  A    between atoms: C10_19  and  C9_18 
ROOT
HETATM    1  O4  UNK     1      -0.885  -0.699  -2.738  1.00  0.00    -0.267 OA
HETATM    2  N1  UNK     1      -1.609  -0.384  -0.544  1.00  0.00    -0.348 N 
HETATM    3  C9  UNK     1      -0.693  -0.333  -1.580  1.00  0.00     0.258 C 
HETATM    4  H2  UNK     1      -1.359   0.005   0.360  1.00  0.00     0.163 HD
ENDROOT
BRANCH   3   5
HETATM    5  C10 UNK     1       0.601   0.227  -1.171  1.00  0.00     0.108 A 
HETATM    6  C12 UNK     1       1.290   0.877  -2.116  1.00  0.00     0.037 A 
HETATM    7  C11 UNK     1       2.583   1.467  -1.806  1.00  0.00     0.001 A 
HETATM    8  C13 UNK     1       3.088   1.341  -0.516  1.00  0.00     0.089 A 
HETATM    9  C16 UNK     1       3.336   2.155  -2.761  1.00  0.00     0.050 A 
HETATM   10  O3  UNK     1       2.359   0.655   0.474  1.00  0.00    -0.274 OA
HETATM   11  C17 UNK     1       4.320   1.882  -0.154  1.00  0.00     0.041 A 
HETATM   12  C15 UNK     1       1.118   0.082   0.209  1.00  0.00     0.304 A 
HETATM   13  O5  UNK     1       0.491  -0.514   1.077  1.00  0.00    -0.259 OA
HETATM   14  C19 UNK     1       5.065   2.566  -1.113  1.00  0.00     0.039 A 
HETATM   15  C18 UNK     1       4.574   2.703  -2.413  1.00  0.00     0.103 A 
BRANCH  15  16
HETATM   16  N2  UNK     1       5.336   3.401  -3.387  1.00  0.00    -0.116 N 
HETATM   17  O6  UNK     1       6.446   3.885  -3.057  1.00  0.00    -0.532 OA
HETATM   18  O7  UNK     1       4.880   3.513  -4.550  1.00  0.00    -0.532 OA
ENDBRANCH  15  16
ENDBRANCH   3   5
BRANCH   2  19
HETATM   19  C1  UNK     1      -2.952  -0.893  -0.705  1.00  0.00     0.114 C 
HETATM   20  C4  UNK     1      -3.875   0.226  -1.192  1.00  0.00     0.037 C 
BRANCH  19  21
HETATM   21  C2  UNK     1      -3.462  -1.524   0.575  1.00  0.00    -0.033 A 
HETATM   22  C3  UNK     1      -3.585  -0.737   1.708  1.00  0.00     0.049 A 
HETATM   23  C5  UNK     1      -4.054  -1.356   2.849  1.00  0.00     0.105 A 
HETATM   24  O1  UNK     1      -4.243  -0.762   4.059  1.00  0.00    -0.323 OA
HETATM   25  C7  UNK     1      -4.385  -2.691   2.864  1.00  0.00     0.105 A 
HETATM   26  C14 UNK     1      -4.732  -1.874   4.837  1.00  0.00     0.352 A 
HETATM   27  O2  UNK     1      -4.823  -3.101   4.085  1.00  0.00    -0.323 OA
HETATM   28  C8  UNK     1      -4.265  -3.482   1.739  1.00  0.00     0.040 A 
HETATM   29  C6  UNK     1      -3.793  -2.879   0.571  1.00  0.00     0.012 A 
ENDBRANCH  19  21
ENDBRANCH   2  19
TORSDOF 4
