REMARK  3 active torsions:
REMARK  status: ('A' for Active; 'I' for Inactive)
REMARK    1  A    between atoms: C5_10  and  O2_2 
REMARK    2  A    between atoms: C4_9  and  O3_3 
REMARK    3  A    between atoms: C6_11  and  O4_4 
ROOT
HETATM    1  O1  UNK     1      -1.284  -0.527   1.516  1.00  0.00    -0.272 OA
HETATM    2  O5  UNK     1      -3.298  -1.421   2.140  1.00  0.00    -0.260 OA
HETATM    3  C1  UNK     1      -0.791  -0.260  -0.853  1.00  0.00     0.004 A 
HETATM    4  C2  UNK     1      -0.415  -0.125   0.481  1.00  0.00     0.125 A 
HETATM    5  C3  UNK     1       0.097   0.150  -1.849  1.00  0.00     0.054 A 
HETATM    6  C4  UNK     1       0.821   0.407   0.844  1.00  0.00     0.137 A 
HETATM    7  C5  UNK     1       1.341   0.685  -1.500  1.00  0.00     0.105 A 
HETATM    8  C6  UNK     1       1.701   0.814  -0.157  1.00  0.00     0.135 A 
HETATM    9  C7  UNK     1      -2.095  -0.823  -1.160  1.00  0.00     0.020 A 
HETATM   10  C8  UNK     1      -2.912  -1.201  -0.174  1.00  0.00     0.083 A 
HETATM   11  C9  UNK     1      -2.537  -1.068   1.246  1.00  0.00     0.288 A 
ENDROOT
BRANCH   6  12
HETATM   12  O3  UNK     1       1.165   0.529   2.155  1.00  0.00    -0.356 OA
HETATM   13  H4  UNK     1       0.429   0.196   2.698  1.00  0.00     0.218 HD
ENDBRANCH   6  12
BRANCH   8  14
HETATM   14  O4  UNK     1       2.916   1.336   0.175  1.00  0.00    -0.356 OA
HETATM   15  H5  UNK     1       3.408   1.520  -0.643  1.00  0.00     0.218 HD
ENDBRANCH   8  14
BRANCH   7  16
HETATM   16  O2  UNK     1       2.196   1.080  -2.485  1.00  0.00    -0.353 OA
HETATM   17  C10 UNK     1       2.094   2.432  -2.927  1.00  0.00     0.210 C 
ENDBRANCH   7  16
TORSDOF 3
