REMARK  6 active torsions:
REMARK  status: ('A' for Active; 'I' for Inactive)
REMARK    1  A    between atoms: C11_16  and  O1_1 
REMARK    2  A    between atoms: C4_9  and  O1_1 
REMARK    3  A    between atoms: C23_28  and  N1_4 
REMARK    4  A    between atoms: C2_7  and  C4_9 
REMARK    5  A    between atoms: C13_18  and  C18_23 
REMARK    6  A    between atoms: C19_24  and  C20_25 
ROOT
HETATM    1  N2  UNK     1       4.060   3.110  -5.378  1.00  0.00    -0.191 NA
HETATM    2  C18 UNK     1       1.464   1.339  -4.029  1.00  0.00     0.034 C 
HETATM    3  C20 UNK     1       2.592   1.915  -3.608  1.00  0.00     0.055 C 
HETATM    4  C26 UNK     1       3.402   2.574  -4.586  1.00  0.00     0.100 C 
ENDROOT
BRANCH   3   5
HETATM    5  C19 UNK     1       3.072   1.908  -2.211  1.00  0.00    -0.015 A 
HETATM    6  C21 UNK     1       2.702   2.939  -1.366  1.00  0.00     0.015 A 
HETATM    7  C24 UNK     1       3.154   2.932  -0.046  1.00  0.00     0.037 A 
HETATM    8  C23 UNK     1       3.970   1.895   0.406  1.00  0.00     0.102 A 
HETATM    9  C25 UNK     1       4.334   0.865  -0.461  1.00  0.00     0.037 A 
HETATM   10  C22 UNK     1       3.881   0.871  -1.781  1.00  0.00     0.015 A 
BRANCH   8  11
HETATM   11  N1  UNK     1       4.431   1.888   1.749  1.00  0.00    -0.116 N 
HETATM   12  O2  UNK     1       4.092   2.824   2.513  1.00  0.00    -0.532 OA
HETATM   13  O3  UNK     1       5.163   0.946   2.136  1.00  0.00    -0.532 OA
ENDBRANCH   8  11
ENDBRANCH   3   5
BRANCH   2  14
HETATM   14  C13 UNK     1       0.537   0.646  -3.148  1.00  0.00    -0.035 A 
HETATM   15  C16 UNK     1       0.708  -0.713  -2.885  1.00  0.00     0.014 A 
HETATM   16  C14 UNK     1      -0.181  -1.377  -2.040  1.00  0.00     0.037 A 
HETATM   17  C11 UNK     1      -1.234  -0.677  -1.463  1.00  0.00     0.069 A 
HETATM   18  C15 UNK     1      -1.411   0.677  -1.720  1.00  0.00     0.037 A 
HETATM   19  C17 UNK     1      -0.522   1.341  -2.565  1.00  0.00     0.014 A 
BRANCH  17  20
HETATM   20  O1  UNK     1      -2.107  -1.330  -0.632  1.00  0.00    -0.347 OA
BRANCH  20  21
HETATM   21  C4  UNK     1      -3.161  -0.559  -0.075  1.00  0.00     0.215 C 
BRANCH  21  22
HETATM   22  C2  UNK     1      -3.984  -1.428   0.826  1.00  0.00    -0.023 A 
HETATM   23  C1  UNK     1      -3.694  -1.568   2.193  1.00  0.00    -0.018 A 
HETATM   24  C3  UNK     1      -4.510  -2.404   2.991  1.00  0.00    -0.025 A 
HETATM   25  C6  UNK     1      -2.612  -0.897   2.785  1.00  0.00     0.013 A 
HETATM   26  C7  UNK     1      -5.592  -3.076   2.399  1.00  0.00     0.012 A 
HETATM   27  C8  UNK     1      -4.220  -2.545   4.358  1.00  0.00     0.012 A 
HETATM   28  C9  UNK     1      -5.865  -2.925   1.039  1.00  0.00     0.002 A 
HETATM   29  C5  UNK     1      -5.062  -2.103   0.254  1.00  0.00     0.010 A 
HETATM   30  C12 UNK     1      -3.141  -1.870   4.930  1.00  0.00     0.001 A 
HETATM   31  C10 UNK     1      -2.338  -1.048   4.145  1.00  0.00     0.001 A 
ENDBRANCH  21  22
ENDBRANCH  20  21
ENDBRANCH  17  20
ENDBRANCH   2  14
TORSDOF 6
