REMARK  10 active torsions:
REMARK  status: ('A' for Active; 'I' for Inactive)
REMARK    1  A    between atoms: C1_12  and  O2_2 
REMARK    2  A    between atoms: C2_13  and  O3_3 
REMARK    3  A    between atoms: C4_15  and  O4_4 
REMARK    4  A    between atoms: C7_18  and  O5_5 
REMARK    5  A    between atoms: C8_19  and  O6_6 
REMARK    6  A    between atoms: C9_20  and  O8_8 
REMARK    7  A    between atoms: C18_29  and  O10_10 
REMARK    8  A    between atoms: C19_30  and  O11_11 
REMARK    9  A    between atoms: C3_14  and  C6_17 
REMARK   10  A    between atoms: C5_16  and  C7_18 
ROOT
HETATM    1  O7  UNK     1      -2.810   1.700  -0.464  1.00  0.00    -0.309 OA
HETATM    2  O9  UNK     1      -1.638  -2.085   0.556  1.00  0.00    -0.286 OA
HETATM    3  C6  UNK     1       1.272   0.899  -0.255  1.00  0.00     0.041 A 
HETATM    4  C8  UNK     1       0.374  -0.131   0.025  1.00  0.00     0.094 A 
HETATM    5  C9  UNK     1       0.799   2.167  -0.597  1.00  0.00     0.080 A 
HETATM    6  C10 UNK     1      -1.000   0.116  -0.040  1.00  0.00     0.083 A 
HETATM    7  C11 UNK     1      -1.477   1.382  -0.381  1.00  0.00     0.095 A 
HETATM    8  C12 UNK     1      -0.573   2.409  -0.660  1.00  0.00     0.075 A 
HETATM    9  C13 UNK     1      -1.971  -0.950   0.251  1.00  0.00     0.200 A 
HETATM   10  C14 UNK     1      -3.394  -0.590   0.155  1.00  0.00     0.052 A 
HETATM   11  C15 UNK     1      -3.731   0.717  -0.197  1.00  0.00     0.093 A 
HETATM   12  C16 UNK     1      -4.389  -1.536   0.412  1.00  0.00     0.057 A 
HETATM   13  C17 UNK     1      -5.076   1.080  -0.293  1.00  0.00     0.077 A 
HETATM   14  C18 UNK     1      -5.731  -1.167   0.313  1.00  0.00     0.099 A 
HETATM   15  C19 UNK     1      -6.074   0.139  -0.039  1.00  0.00     0.101 A 
ENDROOT
BRANCH   3  16
HETATM   16  C3  UNK     1       2.766   0.646  -0.190  1.00  0.00     0.192 C 
HETATM   17  C1  UNK     1       3.345   0.932   1.210  1.00  0.00     0.183 C 
HETATM   18  C2  UNK     1       4.844   0.618   1.259  1.00  0.00     0.181 C 
HETATM   19  C4  UNK     1       5.125  -0.775   0.678  1.00  0.00     0.180 C 
HETATM   20  C5  UNK     1       4.459  -0.964  -0.690  1.00  0.00     0.177 C 
HETATM   21  O1  UNK     1       3.056  -0.698  -0.595  1.00  0.00    -0.368 OA
BRANCH  17  22
HETATM   22  O2  UNK     1       2.681   0.110   2.172  1.00  0.00    -0.390 OA
HETATM   23  H8  UNK     1       2.690  -0.807   1.849  1.00  0.00     0.210 HD
ENDBRANCH  17  22
BRANCH  18  24
HETATM   24  O3  UNK     1       5.569   1.620   0.547  1.00  0.00    -0.390 OA
HETATM   25  H9  UNK     1       6.508   1.365   0.562  1.00  0.00     0.210 HD
ENDBRANCH  18  24
BRANCH  19  26
HETATM   26  O4  UNK     1       6.528  -0.988   0.573  1.00  0.00    -0.390 OA
HETATM   27  H10 UNK     1       6.909  -0.870   1.460  1.00  0.00     0.210 HD
ENDBRANCH  19  26
BRANCH  20  28
HETATM   28  C7  UNK     1       4.618  -2.393  -1.201  1.00  0.00     0.198 C 
BRANCH  28  29
HETATM   29  O5  UNK     1       3.973  -2.497  -2.457  1.00  0.00    -0.398 OA
HETATM   30  H12 UNK     1       4.083  -3.414  -2.760  1.00  0.00     0.209 HD
ENDBRANCH  28  29
ENDBRANCH  20  28
ENDBRANCH   3  16
BRANCH   4  31
HETATM   31  O6  UNK     1       0.869  -1.358   0.354  1.00  0.00    -0.359 OA
HETATM   32  H13 UNK     1       0.150  -1.984   0.529  1.00  0.00     0.217 HD
ENDBRANCH   4  31
BRANCH   5  33
HETATM   33  O8  UNK     1       1.665   3.182  -0.876  1.00  0.00    -0.360 OA
HETATM   34  H14 UNK     1       1.157   3.983  -1.091  1.00  0.00     0.217 HD
ENDBRANCH   5  33
BRANCH  14  35
HETATM   35  O10 UNK     1      -6.699  -2.092   0.564  1.00  0.00    -0.358 OA
HETATM   36  H17 UNK     1      -6.278  -2.938   0.792  1.00  0.00     0.217 HD
ENDBRANCH  14  35
BRANCH  15  37
HETATM   37  O11 UNK     1      -7.382   0.507  -0.136  1.00  0.00    -0.358 OA
HETATM   38  H18 UNK     1      -7.934  -0.266   0.073  1.00  0.00     0.217 HD
ENDBRANCH  15  37
TORSDOF 10
