REMARK  2 active torsions:
REMARK  status: ('A' for Active; 'I' for Inactive)
REMARK    1  A    between atoms: C11_14  and  O2_2 
REMARK    2  A    between atoms: C3_6  and  C4_7 
ROOT
HETATM    1  O1  UNK     1      -0.211  -0.457  -0.750  1.00  0.00    -0.309 OA
HETATM    2  O3  UNK     1      -0.649   0.524   3.180  1.00  0.00    -0.287 OA
HETATM    3  C1  UNK     1      -1.515  -0.607   1.294  1.00  0.00     0.048 A 
HETATM    4  C2  UNK     1      -1.303  -0.906  -0.051  1.00  0.00     0.090 A 
HETATM    5  C3  UNK     1       0.716   0.335  -0.090  1.00  0.00     0.093 A 
HETATM    6  C5  UNK     1      -2.645  -1.092   1.956  1.00  0.00     0.025 A 
HETATM    7  C6  UNK     1      -0.529   0.225   2.000  1.00  0.00     0.187 A 
HETATM    8  C7  UNK     1      -3.563  -1.881   1.261  1.00  0.00    -0.061 A 
HETATM    9  C8  UNK     1       0.626   0.685   1.203  1.00  0.00     0.094 A 
HETATM   10  C9  UNK     1      -2.222  -1.695  -0.743  1.00  0.00     0.039 A 
HETATM   11  C10 UNK     1      -3.352  -2.182  -0.085  1.00  0.00     0.009 A 
HETATM   12  C13 UNK     1      -4.772  -2.406   1.960  1.00  0.00     0.048 C 
ENDROOT
BRANCH   5  13
HETATM   13  C4  UNK     1       1.852   0.758  -0.933  1.00  0.00     0.031 A 
HETATM   14  C11 UNK     1       1.815   1.953  -1.657  1.00  0.00     0.081 A 
HETATM   15  C14 UNK     1       2.901   2.331  -2.446  1.00  0.00     0.038 A 
HETATM   16  C16 UNK     1       4.030   1.515  -2.516  1.00  0.00     0.003 A 
HETATM   17  C15 UNK     1       4.073   0.321  -1.796  1.00  0.00     0.001 A 
HETATM   18  C12 UNK     1       2.987  -0.057  -1.006  1.00  0.00     0.017 A 
BRANCH  14  19
HETATM   19  O2  UNK     1       0.724   2.770  -1.607  1.00  0.00    -0.355 OA
HETATM   20  C17 UNK     1      -0.299   2.542  -2.573  1.00  0.00     0.210 C 
ENDBRANCH  14  19
ENDBRANCH   5  13
TORSDOF 2
