REMARK  3 active torsions:
REMARK  status: ('A' for Active; 'I' for Inactive)
REMARK    1  A    between atoms: C15_20  and  O2_2 
REMARK       I    between atoms: C11_16  and  N1_5 
REMARK    2  A    between atoms: C4_9  and  N1_5 
REMARK    3  A    between atoms: C10_15  and  C11_16 
ROOT
HETATM    1  O1  UNK     1      -3.570  -1.317  -0.091  1.00  0.00    -0.275 OA
HETATM    2  O4  UNK     1      -5.680  -2.170  -0.309  1.00  0.00    -0.260 OA
HETATM    3  C1  UNK     1      -2.466  -1.401   2.086  1.00  0.00     0.004 A 
HETATM    4  C2  UNK     1      -2.460  -1.051   0.735  1.00  0.00     0.092 A 
HETATM    5  C3  UNK     1      -3.659  -2.057   2.638  1.00  0.00    -0.043 A 
HETATM    6  C4  UNK     1      -0.242  -0.138   0.897  1.00  0.00     0.037 A 
HETATM    7  C5  UNK     1      -1.367  -0.425   0.132  1.00  0.00     0.067 A 
HETATM    8  C6  UNK     1      -1.323  -1.102   2.840  1.00  0.00     0.017 A 
HETATM    9  C7  UNK     1      -0.220  -0.476   2.249  1.00  0.00     0.030 A 
HETATM   10  C8  UNK     1      -4.700  -2.297   1.829  1.00  0.00     0.090 A 
HETATM   11  C9  UNK     1      -3.697  -2.445   4.087  1.00  0.00     0.049 C 
HETATM   12  C12 UNK     1      -4.709  -1.934   0.401  1.00  0.00     0.288 A 
ENDROOT
BRANCH   6  13
HETATM   13  N1  UNK     1       0.861   0.486   0.314  1.00  0.00    -0.323 N 
HETATM   14  C11 UNK     1       0.969   0.875  -1.015  1.00  0.00     0.256 C 
HETATM   15  O3  UNK     1       0.139   0.748  -1.909  1.00  0.00    -0.267 OA
HETATM   16  H5  UNK     1       1.651   0.611   0.939  1.00  0.00     0.169 HD
BRANCH  14  17
HETATM   17  C10 UNK     1       2.249   1.549  -1.358  1.00  0.00     0.035 A 
HETATM   18  C13 UNK     1       2.715   1.474  -2.654  1.00  0.00     0.053 A 
HETATM   19  C15 UNK     1       3.915   2.107  -2.975  1.00  0.00     0.069 A 
HETATM   20  C17 UNK     1       4.623   2.800  -1.993  1.00  0.00     0.037 A 
HETATM   21  C16 UNK     1       4.129   2.861  -0.690  1.00  0.00     0.004 A 
HETATM   22  C14 UNK     1       2.929   2.228  -0.369  1.00  0.00     0.017 A 
BRANCH  19  23
HETATM   23  O2  UNK     1       4.397   2.048  -4.247  1.00  0.00    -0.356 OA
HETATM   24  C18 UNK     1       5.630   2.717  -4.506  1.00  0.00     0.210 C 
ENDBRANCH  19  23
ENDBRANCH  14  17
ENDBRANCH   6  13
TORSDOF 3
