REMARK  4 active torsions:
REMARK  status: ('A' for Active; 'I' for Inactive)
REMARK    1  A    between atoms: C5_7  and  O1_1 
REMARK    2  A    between atoms: C6_8  and  O2_2 
REMARK    3  A    between atoms: C1_3  and  C3_5 
REMARK    4  A    between atoms: C2_4  and  C4_6 
ROOT
HETATM    1  C3  UNK     1      -0.859   0.261  -0.253  1.00  0.00     0.015 C 
HETATM    2  C4  UNK     1       0.355   0.798   0.006  1.00  0.00     0.015 C 
ENDROOT
BRANCH   1   3
HETATM    3  C1  UNK     1      -1.765  -0.287   0.747  1.00  0.00    -0.003 A 
HETATM    4  C5  UNK     1      -2.614  -1.351   0.443  1.00  0.00     0.078 A 
HETATM    5  C9  UNK     1      -3.472  -1.859   1.418  1.00  0.00     0.037 A 
HETATM    6  C13 UNK     1      -3.481  -1.304   2.698  1.00  0.00     0.003 A 
HETATM    7  C11 UNK     1      -2.631  -0.240   3.002  1.00  0.00     0.001 A 
HETATM    8  C7  UNK     1      -1.773   0.268   2.027  1.00  0.00     0.014 A 
BRANCH   4   9
HETATM    9  O1  UNK     1      -2.626  -1.912  -0.800  1.00  0.00    -0.355 OA
HETATM   10  C15 UNK     1      -1.733  -2.999  -1.027  1.00  0.00     0.210 C 
ENDBRANCH   4   9
ENDBRANCH   1   3
BRANCH   2  11
HETATM   11  C2  UNK     1       1.279   1.335  -1.008  1.00  0.00    -0.003 A 
HETATM   12  C6  UNK     1       2.650   1.253  -0.823  1.00  0.00     0.078 A 
HETATM   13  C10 UNK     1       3.505   1.769  -1.798  1.00  0.00     0.037 A 
HETATM   14  C14 UNK     1       2.977   2.360  -2.946  1.00  0.00     0.003 A 
HETATM   15  C12 UNK     1       1.595   2.435  -3.120  1.00  0.00     0.001 A 
HETATM   16  C8  UNK     1       0.741   1.920  -2.145  1.00  0.00     0.014 A 
BRANCH  12  17
HETATM   17  O2  UNK     1       3.192   0.681   0.290  1.00  0.00    -0.355 OA
HETATM   18  C16 UNK     1       3.461  -0.718   0.232  1.00  0.00     0.210 C 
ENDBRANCH  12  17
ENDBRANCH   2  11
TORSDOF 4
