REMARK  1 active torsions:
REMARK  status: ('A' for Active; 'I' for Inactive)
REMARK    1  A    between atoms: C8_12  and  O2_3 
ROOT
HETATM    1  I1  UNK     1       0.392   0.738  -3.554  1.00  0.00    -0.039 I 
HETATM    2  O1  UNK     1      -1.328  -0.345  -1.130  1.00  0.00    -0.273 OA
HETATM    3  O3  UNK     1      -3.362  -1.333  -0.792  1.00  0.00    -0.260 OA
HETATM    4  C1  UNK     1       0.114   0.108   0.789  1.00  0.00     0.005 A 
HETATM    5  C2  UNK     1      -0.913  -0.472   1.666  1.00  0.00    -0.043 A 
HETATM    6  C3  UNK     1      -0.128   0.153  -0.584  1.00  0.00     0.109 A 
HETATM    7  C4  UNK     1       1.332   0.623   1.252  1.00  0.00     0.017 A 
HETATM    8  C5  UNK     1       0.794   0.687  -1.487  1.00  0.00     0.074 A 
HETATM    9  C6  UNK     1      -2.045  -0.938   1.120  1.00  0.00     0.090 A 
HETATM   10  C7  UNK     1      -0.684  -0.535   3.148  1.00  0.00     0.049 C 
HETATM   11  C8  UNK     1       1.998   1.193  -1.007  1.00  0.00     0.085 A 
HETATM   12  C9  UNK     1       2.266   1.162   0.360  1.00  0.00     0.039 A 
HETATM   13  C10 UNK     1      -2.314  -0.898  -0.328  1.00  0.00     0.288 A 
ENDROOT
BRANCH  11  14
HETATM   14  O2  UNK     1       2.941   1.730  -1.832  1.00  0.00    -0.359 OA
HETATM   15  H7  UNK     1       3.702   2.025  -1.303  1.00  0.00     0.217 HD
ENDBRANCH  11  14
TORSDOF 1
