REMARK  5 active torsions:
REMARK  status: ('A' for Active; 'I' for Inactive)
REMARK    1  A    between atoms: C6_12  and  O2_2 
REMARK    2  A    between atoms: C8_14  and  O3_3 
REMARK    3  A    between atoms: C11_17  and  O5_5 
REMARK    4  A    between atoms: C2_8  and  C5_11 
REMARK    5  A    between atoms: C11_17  and  C5_11 
ROOT
HETATM    1  O1  UNK     1      -1.729  -0.085  -2.123  1.00  0.00    -0.275 OA
HETATM    2  O4  UNK     1      -3.771  -1.113  -2.073  1.00  0.00    -0.260 OA
HETATM    3  C1  UNK     1      -0.246  -0.279  -0.191  1.00  0.00     0.008 A 
HETATM    4  C2  UNK     1      -1.266  -1.099   0.477  1.00  0.00    -0.029 A 
HETATM    5  C3  UNK     1      -0.512   0.204  -1.474  1.00  0.00     0.093 A 
HETATM    6  C4  UNK     1       0.987   0.052   0.385  1.00  0.00     0.054 A 
HETATM    7  C6  UNK     1       1.913   0.839  -0.310  1.00  0.00     0.102 A 
HETATM    8  C7  UNK     1       0.402   0.989  -2.179  1.00  0.00     0.077 A 
HETATM    9  C8  UNK     1       1.621   1.307  -1.589  1.00  0.00     0.104 A 
HETATM   10  C9  UNK     1      -2.414  -1.357  -0.165  1.00  0.00     0.091 A 
HETATM   11  C10 UNK     1      -2.709  -0.856  -1.518  1.00  0.00     0.288 A 
ENDROOT
BRANCH   4  12
HETATM   12  C5  UNK     1      -1.011  -1.633   1.856  1.00  0.00     0.149 C 
BRANCH  12  13
HETATM   13  C11 UNK     1      -1.496  -0.651   2.887  1.00  0.00     0.143 C 
HETATM   14  O6  UNK     1      -2.031   0.428   2.684  1.00  0.00    -0.650 OA
BRANCH  13  15
HETATM   15  O5  UNK     1      -1.245  -1.143   4.129  1.00  0.00    -0.776 OA
HETATM   16  H12 UNK     1      -1.545  -0.529   4.832  1.00  0.00     0.167 HD
ENDBRANCH  13  15
ENDBRANCH  12  13
ENDBRANCH   4  12
BRANCH   7  17
HETATM   17  O2  UNK     1       3.104   1.142   0.280  1.00  0.00    -0.353 OA
HETATM   18  C12 UNK     1       3.155   2.335   1.061  1.00  0.00     0.210 C 
ENDBRANCH   7  17
BRANCH   9  19
HETATM   19  O3  UNK     1       2.517   2.073  -2.270  1.00  0.00    -0.353 OA
HETATM   20  C13 UNK     1       3.460   1.391  -3.095  1.00  0.00     0.210 C 
ENDBRANCH   9  19
TORSDOF 5
