REMARK  5 active torsions:
REMARK  status: ('A' for Active; 'I' for Inactive)
REMARK    1  A    between atoms: C12_20  and  O3_5 
REMARK    2  A    between atoms: C20_28  and  O3_5 
REMARK    3  A    between atoms: C7_15  and  N1_8 
REMARK    4  A    between atoms: C1_9  and  C5_13 
REMARK    5  A    between atoms: C12_20  and  C3_11 
ROOT
HETATM    1  O1  UNK     1       0.935  -0.258  -2.462  1.00  0.00    -0.292 OA
HETATM    2  O2  UNK     1       2.034   2.770   0.210  1.00  0.00    -0.274 OA
HETATM    3  O4  UNK     1       0.063   2.507   1.325  1.00  0.00    -0.259 OA
HETATM    4  C1  UNK     1      -0.864   0.316  -0.298  1.00  0.00     0.104 C 
HETATM    5  C2  UNK     1       0.447   1.050  -0.514  1.00  0.00     0.066 A 
HETATM    6  C3  UNK     1      -1.213  -0.572  -1.481  1.00  0.00     0.081 C 
HETATM    7  C4  UNK     1       1.249   0.726  -1.540  1.00  0.00     0.104 A 
HETATM    8  C6  UNK     1       2.528   1.401  -1.740  1.00  0.00     0.033 A 
HETATM    9  C7  UNK     1      -0.339  -0.830  -2.477  1.00  0.00     0.155 C 
HETATM   10  C8  UNK     1       0.806   2.152   0.416  1.00  0.00     0.298 A 
HETATM   11  C9  UNK     1       2.889   2.408  -0.849  1.00  0.00     0.092 A 
HETATM   12  C13 UNK     1       3.415   1.090  -2.778  1.00  0.00     0.017 A 
HETATM   13  C14 UNK     1       4.093   3.102  -0.961  1.00  0.00     0.038 A 
HETATM   14  C17 UNK     1       4.627   1.777  -2.904  1.00  0.00     0.001 A 
HETATM   15  C19 UNK     1       4.966   2.781  -1.996  1.00  0.00     0.003 A 
ENDROOT
BRANCH   4  16
HETATM   16  C5  UNK     1      -0.806  -0.497   0.962  1.00  0.00    -0.043 A 
HETATM   17  C10 UNK     1      -1.687  -0.220   2.001  1.00  0.00     0.033 A 
HETATM   18  C15 UNK     1      -1.633  -0.976   3.172  1.00  0.00     0.056 A 
HETATM   19 Cl1  UNK     1      -2.752  -0.593   4.433  1.00  0.00    -0.083 Cl
HETATM   20  C18 UNK     1      -0.698  -2.004   3.296  1.00  0.00     0.055 A 
HETATM   21  C16 UNK     1       0.183  -2.276   2.249  1.00  0.00     0.026 A 
HETATM   22 Cl2  UNK     1      -0.582  -2.975   4.722  1.00  0.00    -0.083 Cl
HETATM   23  C11 UNK     1       0.128  -1.520   1.078  1.00  0.00     0.010 A 
ENDBRANCH   4  16
BRANCH   6  24
HETATM   24  C12 UNK     1      -2.579  -1.125  -1.504  1.00  0.00     0.294 C 
HETATM   25  O5  UNK     1      -2.861  -2.183  -2.033  1.00  0.00    -0.259 OA
BRANCH  24  26
HETATM   26  O3  UNK     1      -3.398  -0.264  -0.855  1.00  0.00    -0.318 OA
BRANCH  26  27
HETATM   27  C20 UNK     1      -4.770  -0.666  -0.792  1.00  0.00     0.174 C 
HETATM   28  C21 UNK     1      -5.558   0.387  -0.042  1.00  0.00     0.034 C 
ENDBRANCH  26  27
ENDBRANCH  24  26
ENDBRANCH   6  24
BRANCH   9  29
HETATM   29  N1  UNK     1      -0.561  -1.625  -3.565  1.00  0.00    -0.379 N 
HETATM   30  H7  UNK     1       0.177  -1.738  -4.249  1.00  0.00     0.158 HD
HETATM   31  H8  UNK     1      -1.449  -2.093  -3.690  1.00  0.00     0.158 HD
ENDBRANCH   9  29
TORSDOF 5
