REMARK  4 active torsions:
REMARK  status: ('A' for Active; 'I' for Inactive)
REMARK    1  A    between atoms: C7_15  and  S1_1 
REMARK    2  A    between atoms: N1_7  and  S1_1 
REMARK    3  A    between atoms: C12_20  and  N2_8 
REMARK       I    between atoms: C13_21  and  N2_8 
REMARK    4  A    between atoms: C13_21  and  C14_22 
ROOT
HETATM    1  C7  UNK     1       2.770   1.873  -0.212  1.00  0.00     0.074 A 
HETATM    2  C8  UNK     1       2.713   0.518   0.068  1.00  0.00     0.027 A 
HETATM    3  C9  UNK     1       1.630   2.660  -0.201  1.00  0.00     0.027 A 
HETATM    4  C10 UNK     1       1.483  -0.066   0.368  1.00  0.00     0.031 A 
HETATM    5  C11 UNK     1       0.400   2.076   0.098  1.00  0.00     0.031 A 
HETATM    6  C12 UNK     1       0.326   0.713   0.383  1.00  0.00     0.035 A 
ENDROOT
BRANCH   6   7
HETATM    7  N2  UNK     1      -0.905   0.129   0.684  1.00  0.00    -0.323 N 
HETATM    8  C13 UNK     1      -1.167  -1.209   0.993  1.00  0.00     0.262 C 
HETATM    9  O4  UNK     1      -0.374  -2.140   1.062  1.00  0.00    -0.267 OA
HETATM   10  H17 UNK     1      -1.686   0.779   0.690  1.00  0.00     0.169 HD
BRANCH   8  11
HETATM   11  C14 UNK     1      -2.600  -1.457   1.257  1.00  0.00     0.108 A 
HETATM   12  C16 UNK     1      -2.881  -2.443   2.117  1.00  0.00     0.037 A 
HETATM   13  C15 UNK     1      -4.262  -2.763   2.440  1.00  0.00    -0.001 A 
HETATM   14  C17 UNK     1      -5.281  -2.027   1.843  1.00  0.00     0.089 A 
HETATM   15  C19 UNK     1      -4.601  -3.783   3.332  1.00  0.00     0.014 A 
HETATM   16  O3  UNK     1      -4.979  -0.990   0.939  1.00  0.00    -0.274 OA
HETATM   17  C20 UNK     1      -6.624  -2.283   2.110  1.00  0.00     0.038 A 
HETATM   18  C18 UNK     1      -3.667  -0.661   0.610  1.00  0.00     0.304 A 
HETATM   19  O5  UNK     1      -3.414   0.243  -0.179  1.00  0.00    -0.259 OA
HETATM   20  C22 UNK     1      -6.954  -3.303   3.000  1.00  0.00     0.003 A 
HETATM   21  C21 UNK     1      -5.945  -4.052   3.610  1.00  0.00     0.001 A 
ENDBRANCH   8  11
ENDBRANCH   6   7
BRANCH   1  22
HETATM   22  S1  UNK     1       4.327   2.613  -0.591  1.00  0.00     0.243 S 
HETATM   23  O1  UNK     1       4.233   4.024  -0.288  1.00  0.00    -0.206 OA
HETATM   24  O2  UNK     1       5.365   1.791  -0.009  1.00  0.00    -0.206 OA
BRANCH  22  25
HETATM   25  N1  UNK     1       4.347   2.408  -2.293  1.00  0.00    -0.206 NA
HETATM   26  C4  UNK     1       4.276   0.995  -2.765  1.00  0.00     0.108 C 
HETATM   27  C2  UNK     1       4.650   0.929  -4.243  1.00  0.00     0.020 C 
HETATM   28  C1  UNK     1       3.750   1.839  -5.088  1.00  0.00    -0.016 C 
HETATM   29  C3  UNK     1       3.783   3.270  -4.534  1.00  0.00     0.020 C 
HETATM   30  C6  UNK     1       4.173   1.813  -6.554  1.00  0.00     0.010 C 
HETATM   31  C5  UNK     1       3.423   3.300  -3.052  1.00  0.00     0.108 C 
ENDBRANCH  22  25
ENDBRANCH   1  22
TORSDOF 4
