REMARK  6 active torsions:
REMARK  status: ('A' for Active; 'I' for Inactive)
REMARK    1  A    between atoms: C1_6  and  N1_5 
REMARK       I    between atoms: C14_19  and  N1_5 
REMARK    2  A    between atoms: C1_6  and  C3_8 
REMARK    3  A    between atoms: C1_6  and  C5_10 
REMARK    4  A    between atoms: C2_7  and  C4_9 
REMARK    5  A    between atoms: C2_7  and  C6_11 
REMARK    6  A    between atoms: C14_19  and  C15_20 
ROOT
HETATM    1  O2  UNK     1      -0.256   2.154   0.677  1.00  0.00    -0.267 OA
HETATM    2  N1  UNK     1       0.428   0.028   1.346  1.00  0.00    -0.348 N 
HETATM    3  C14 UNK     1       0.434   1.146   0.532  1.00  0.00     0.258 C 
HETATM    4  H14 UNK     1       1.021  -0.765   1.124  1.00  0.00     0.163 HD
ENDROOT
BRANCH   2   5
HETATM    5  C1  UNK     1      -0.421  -0.096   2.509  1.00  0.00     0.117 C 
BRANCH   5   6
HETATM    6  C3  UNK     1      -1.771  -0.666   2.124  1.00  0.00    -0.035 A 
HETATM    7  C7  UNK     1      -2.901   0.116   2.276  1.00  0.00     0.010 A 
HETATM    8  C9  UNK     1      -4.144  -0.409   1.921  1.00  0.00     0.008 A 
HETATM    9  C4  UNK     1      -4.235  -1.707   1.420  1.00  0.00    -0.054 A 
HETATM   10  C10 UNK     1      -3.083  -2.481   1.273  1.00  0.00     0.008 A 
HETATM   11  C8  UNK     1      -1.841  -1.956   1.629  1.00  0.00     0.010 A 
BRANCH   9  12
HETATM   12  C2  UNK     1      -5.563  -2.269   1.041  1.00  0.00     0.014 C 
HETATM   13  C11 UNK     1      -5.934  -3.489   1.910  1.00  0.00     0.015 C 
BRANCH  12  14
HETATM   14  C6  UNK     1      -5.683  -2.677  -0.454  1.00  0.00     0.004 C 
HETATM   15  C13 UNK     1      -5.405  -1.519  -1.404  1.00  0.00     0.006 C 
ENDBRANCH  12  14
ENDBRANCH   9  12
ENDBRANCH   5   6
BRANCH   5  16
HETATM   16  C5  UNK     1       0.250  -0.926   3.617  1.00  0.00     0.025 C 
HETATM   17  C12 UNK     1       1.591  -0.345   4.050  1.00  0.00     0.007 C 
ENDBRANCH   5  16
ENDBRANCH   2   5
BRANCH   3  18
HETATM   18  C15 UNK     1       1.382   1.036  -0.582  1.00  0.00     0.108 A 
HETATM   19  C16 UNK     1       1.914   2.183  -1.022  1.00  0.00     0.037 A 
HETATM   20  C17 UNK     1       2.865   2.176  -2.122  1.00  0.00     0.001 A 
HETATM   21  C19 UNK     1       3.210   0.961  -2.706  1.00  0.00     0.089 A 
HETATM   22  C20 UNK     1       3.445   3.348  -2.614  1.00  0.00     0.038 A 
HETATM   23  O1  UNK     1       2.647  -0.243  -2.239  1.00  0.00    -0.274 OA
HETATM   24  C21 UNK     1       4.113   0.885  -3.764  1.00  0.00     0.040 A 
HETATM   25  C18 UNK     1       1.734  -0.268  -1.188  1.00  0.00     0.304 A 
HETATM   26  O3  UNK     1       1.249  -1.320  -0.788  1.00  0.00    -0.259 OA
HETATM   27  C23 UNK     1       4.687   2.059  -4.248  1.00  0.00     0.026 A 
HETATM   28  C22 UNK     1       4.353   3.288  -3.674  1.00  0.00     0.035 A 
HETATM   29 Cl1  UNK     1       5.066   4.735  -4.276  1.00  0.00    -0.084 Cl
ENDBRANCH   3  18
TORSDOF 6
