REMARK  1 active torsions:
REMARK  status: ('A' for Active; 'I' for Inactive)
REMARK    1  A    between atoms: C1_7  and  C2_8 
ROOT
HETATM    1 Cl1  UNK     1       4.670   2.481   0.045  1.00  0.00    -0.081 Cl
HETATM    2 Cl2  UNK     1       3.297   1.949  -5.135  1.00  0.00    -0.084 Cl
HETATM    3  O1  UNK     1       2.047   1.209   0.580  1.00  0.00    -0.272 OA
HETATM    4  O2  UNK     1       0.633   0.519   2.233  1.00  0.00    -0.259 OA
HETATM    5  C1  UNK     1      -0.107   0.191  -0.006  1.00  0.00     0.086 A 
HETATM    6  C4  UNK     1       1.404   0.958  -1.749  1.00  0.00     0.002 A 
HETATM    7  C6  UNK     1       0.159   0.347  -1.312  1.00  0.00     0.036 A 
HETATM    8  C7  UNK     1       2.321   1.374  -0.791  1.00  0.00     0.111 A 
HETATM    9  C8  UNK     1       0.860   0.638   1.033  1.00  0.00     0.302 A 
HETATM   10  C9  UNK     1       1.711   1.139  -3.100  1.00  0.00     0.038 A 
HETATM   11  C12 UNK     1       3.533   1.965  -1.143  1.00  0.00     0.070 A 
HETATM   12  C13 UNK     1       2.923   1.730  -3.469  1.00  0.00     0.036 A 
HETATM   13  C14 UNK     1       3.832   2.142  -2.492  1.00  0.00     0.050 A 
ENDROOT
BRANCH   5  14
HETATM   14  C2  UNK     1      -1.338  -0.419   0.389  1.00  0.00     0.145 A 
HETATM   15  N1  UNK     1      -1.342  -1.122   1.562  1.00  0.00    -0.338 N 
HETATM   16  C3  UNK     1      -2.606  -1.619   1.749  1.00  0.00     0.062 A 
HETATM   17  H2  UNK     1      -0.559  -1.269   2.186  1.00  0.00     0.167 HD
HETATM   18  C10 UNK     1      -3.169  -2.397   2.761  1.00  0.00     0.032 A 
HETATM   19  C5  UNK     1      -3.320  -1.174   0.640  1.00  0.00     0.086 A 
HETATM   20  C15 UNK     1      -4.521  -2.727   2.623  1.00  0.00     0.002 A 
HETATM   21  C16 UNK     1      -5.264  -2.295   1.522  1.00  0.00     0.002 A 
HETATM   22  C11 UNK     1      -4.678  -1.515   0.517  1.00  0.00     0.034 A 
HETATM   23  N2  UNK     1      -2.516  -0.430  -0.193  1.00  0.00    -0.228 NA
ENDBRANCH   5  14
TORSDOF 1
