REMARK  4 active torsions:
REMARK  status: ('A' for Active; 'I' for Inactive)
REMARK       I    between atoms: C13_18  and  N2_5 
REMARK    1  A    between atoms: C6_11  and  N2_5 
REMARK    2  A    between atoms: C1_6  and  C3_8 
REMARK    3  A    between atoms: C3_8  and  C6_11 
REMARK    4  A    between atoms: C13_18  and  C14_19 
ROOT
HETATM    1  O2  UNK     1      -1.727   1.604  -2.568  1.00  0.00    -0.267 OA
HETATM    2  N2  UNK     1      -1.639  -0.521  -1.612  1.00  0.00    -0.356 N 
HETATM    3  C13 UNK     1      -1.099   0.652  -2.108  1.00  0.00     0.257 C 
HETATM    4  H12 UNK     1      -1.034  -1.238  -1.224  1.00  0.00     0.162 HD
ENDROOT
BRANCH   2   5
HETATM    5  C6  UNK     1      -3.060  -0.779  -1.574  1.00  0.00     0.127 C 
BRANCH   5   6
HETATM    6  C3  UNK     1      -3.669  -0.295  -0.259  1.00  0.00     0.061 C 
BRANCH   6   7
HETATM    7  C1  UNK     1      -3.103  -0.998   0.950  1.00  0.00    -0.022 A 
HETATM    8  C2  UNK     1      -1.982  -0.575   1.683  1.00  0.00    -0.001 A 
HETATM    9  C5  UNK     1      -1.815  -1.510   2.707  1.00  0.00     0.043 A 
HETATM   10  C7  UNK     1      -1.079   0.503   1.595  1.00  0.00     0.021 A 
HETATM   11  N1  UNK     1      -2.815  -2.446   2.568  1.00  0.00    -0.359 N 
HETATM   12  C8  UNK     1      -0.787  -1.420   3.652  1.00  0.00     0.031 A 
HETATM   13  C4  UNK     1      -3.605  -2.137   1.494  1.00  0.00     0.013 A 
HETATM   14  H3  UNK     1      -2.942  -3.245   3.174  1.00  0.00     0.166 HD
HETATM   15  C10 UNK     1      -4.754  -2.987   1.125  1.00  0.00     0.068 C 
HETATM   16  C11 UNK     1       0.097  -0.341   3.545  1.00  0.00     0.009 A 
HETATM   17  C9  UNK     1      -0.046   0.606   2.533  1.00  0.00    -0.061 A 
HETATM   18  C12 UNK     1       0.915   1.745   2.446  1.00  0.00     0.048 C 
ENDBRANCH   6   7
ENDBRANCH   5   6
ENDBRANCH   2   5
BRANCH   3  19
HETATM   19  C14 UNK     1       0.367   0.680  -2.037  1.00  0.00     0.108 A 
HETATM   20  C16 UNK     1       0.929   1.886  -1.887  1.00  0.00     0.037 A 
HETATM   21  C15 UNK     1       2.375   2.016  -1.807  1.00  0.00    -0.001 A 
HETATM   22  C17 UNK     1       3.159   0.870  -1.888  1.00  0.00     0.089 A 
HETATM   23  C19 UNK     1       3.004   3.253  -1.652  1.00  0.00     0.014 A 
HETATM   24  O1  UNK     1       2.562  -0.397  -2.045  1.00  0.00    -0.274 OA
HETATM   25  C20 UNK     1       4.550   0.925  -1.818  1.00  0.00     0.038 A 
HETATM   26  C18 UNK     1       1.181  -0.552  -2.125  1.00  0.00     0.304 A 
HETATM   27  O3  UNK     1       0.670  -1.659  -2.262  1.00  0.00    -0.259 OA
HETATM   28  C22 UNK     1       5.169   2.163  -1.663  1.00  0.00     0.003 A 
HETATM   29  C21 UNK     1       4.399   3.325  -1.580  1.00  0.00     0.001 A 
ENDBRANCH   3  19
TORSDOF 4
