REMARK  4 active torsions:
REMARK  status: ('A' for Active; 'I' for Inactive)
REMARK    1  A    between atoms: C10_15  and  O2_2 
REMARK    2  A    between atoms: C16_21  and  O4_4 
REMARK    3  A    between atoms: C2_7  and  C4_9 
REMARK    4  A    between atoms: C16_21  and  C8_13 
ROOT
HETATM    1  O1  UNK     1       0.186   0.462   0.627  1.00  0.00    -0.309 OA
HETATM    2  O3  UNK     1      -3.295   0.781  -1.466  1.00  0.00    -0.287 OA
HETATM    3  C1  UNK     1      -2.166  -0.106   0.411  1.00  0.00     0.051 A 
HETATM    4  C2  UNK     1       0.108   1.195  -0.547  1.00  0.00     0.091 A 
HETATM    5  C3  UNK     1      -0.944  -0.172   1.078  1.00  0.00     0.090 A 
HETATM    6  C5  UNK     1      -2.254   0.677  -0.831  1.00  0.00     0.187 A 
HETATM    7  C6  UNK     1      -1.011   1.339  -1.275  1.00  0.00     0.093 A 
HETATM    8  C7  UNK     1      -3.284  -0.772   0.917  1.00  0.00     0.055 A 
HETATM    9  C9  UNK     1      -0.833  -0.907   2.259  1.00  0.00     0.041 A 
HETATM   10  C10 UNK     1      -3.171  -1.507   2.098  1.00  0.00     0.069 A 
HETATM   11  C12 UNK     1      -1.948  -1.574   2.768  1.00  0.00     0.039 A 
ENDROOT
BRANCH   4  12
HETATM   12  C4  UNK     1       1.377   1.842  -0.936  1.00  0.00     0.015 A 
HETATM   13  C11 UNK     1       1.655   3.125  -0.455  1.00  0.00     0.015 A 
HETATM   14  C14 UNK     1       2.845   3.764  -0.803  1.00  0.00     0.001 A 
HETATM   15  C15 UNK     1       3.763   3.124  -1.634  1.00  0.00     0.001 A 
HETATM   16  C13 UNK     1       3.492   1.844  -2.118  1.00  0.00     0.019 A 
HETATM   17  C8  UNK     1       2.302   1.204  -1.770  1.00  0.00     0.050 A 
BRANCH  17  18
HETATM   18  C16 UNK     1       2.057  -0.133  -2.297  1.00  0.00     0.177 C 
HETATM   19  O5  UNK     1       1.397  -1.010  -1.735  1.00  0.00    -0.646 OA
BRANCH  18  20
HETATM   20  O4  UNK     1       2.644  -0.326  -3.508  1.00  0.00    -0.773 OA
HETATM   21  H12 UNK     1       2.474  -1.228  -3.857  1.00  0.00     0.167 HD
ENDBRANCH  18  20
ENDBRANCH  17  18
ENDBRANCH   4  12
BRANCH  10  22
HETATM   22  O2  UNK     1      -4.256  -2.159   2.599  1.00  0.00    -0.356 OA
HETATM   23  C17 UNK     1      -4.071  -2.889   3.811  1.00  0.00     0.210 C 
ENDBRANCH  10  22
TORSDOF 4
