REMARK  2 active torsions:
REMARK  status: ('A' for Active; 'I' for Inactive)
REMARK    1  A    between atoms: C11_15  and  O2_3 
REMARK    2  A    between atoms: C5_9  and  O2_3 
ROOT
HETATM    1  I1  UNK     1      -0.012   0.184  -3.297  1.00  0.00    -0.039 I 
HETATM    2  O1  UNK     1      -1.845  -0.623  -0.848  1.00  0.00    -0.273 OA
HETATM    3  O3  UNK     1      -3.965  -1.400  -0.490  1.00  0.00    -0.260 OA
HETATM    4  C1  UNK     1      -0.383  -0.216   1.066  1.00  0.00     0.005 A 
HETATM    5  C2  UNK     1      -0.608  -0.213  -0.311  1.00  0.00     0.109 A 
HETATM    6  C3  UNK     1      -1.466  -0.657   1.956  1.00  0.00    -0.043 A 
HETATM    7  C4  UNK     1       0.875   0.205   1.520  1.00  0.00     0.017 A 
HETATM    8  C5  UNK     1       1.609   0.604  -0.755  1.00  0.00     0.088 A 
HETATM    9  C6  UNK     1       0.367   0.190  -1.225  1.00  0.00     0.074 A 
HETATM   10  C7  UNK     1       1.862   0.611   0.616  1.00  0.00     0.039 A 
HETATM   11  C8  UNK     1      -2.632  -1.040   1.417  1.00  0.00     0.090 A 
HETATM   12  C9  UNK     1      -1.255  -0.672   3.442  1.00  0.00     0.049 C 
HETATM   13  C10 UNK     1      -2.885  -1.043  -0.033  1.00  0.00     0.288 A 
ENDROOT
BRANCH   8  14
HETATM   14  O2  UNK     1       2.605   1.011  -1.591  1.00  0.00    -0.350 OA
BRANCH  14  15
HETATM   15  C11 UNK     1       3.085   2.343  -1.425  1.00  0.00     0.171 C 
HETATM   16  C12 UNK     1       3.581   2.859  -2.760  1.00  0.00     0.034 C 
ENDBRANCH  14  15
ENDBRANCH   8  14
TORSDOF 2
