REMARK  5 active torsions:
REMARK  status: ('A' for Active; 'I' for Inactive)
REMARK    1  A    between atoms: C1_10  and  N1_8 
REMARK       I    between atoms: C7_16  and  N1_8 
REMARK       I    between atoms: C11_20  and  N2_9 
REMARK    2  A    between atoms: C2_11  and  N2_9 
REMARK    3  A    between atoms: C4_13  and  C7_16 
REMARK    4  A    between atoms: C11_20  and  C8_17 
REMARK    5  A    between atoms: C14_23  and  C24_33 
ROOT
HETATM    1  C1  UNK     1       0.784   0.186   2.962  1.00  0.00     0.062 A 
HETATM    2  C2  UNK     1       1.870   0.830   2.393  1.00  0.00     0.062 A 
HETATM    3  C9  UNK     1       0.692   0.003   4.333  1.00  0.00     0.032 A 
HETATM    4  C10 UNK     1       2.892   1.305   3.217  1.00  0.00     0.032 A 
HETATM    5  C18 UNK     1       1.713   0.477   5.156  1.00  0.00     0.002 A 
HETATM    6  C19 UNK     1       2.813   1.128   4.598  1.00  0.00     0.002 A 
ENDROOT
BRANCH   1   7
HETATM    7  N1  UNK     1      -0.265  -0.305   2.147  1.00  0.00    -0.321 N 
HETATM    8  C7  UNK     1      -1.415  -0.968   2.555  1.00  0.00     0.262 C 
HETATM    9  O2  UNK     1      -1.755  -1.263   3.700  1.00  0.00    -0.267 OA
HETATM   10  H2  UNK     1      -0.171  -0.120   1.156  1.00  0.00     0.169 HD
BRANCH   8  11
HETATM   11  C4  UNK     1      -2.279  -1.326   1.424  1.00  0.00     0.108 A 
HETATM   12  C12 UNK     1      -1.732  -1.615   0.079  1.00  0.00     0.304 A 
HETATM   13  O1  UNK     1      -2.652  -1.943  -0.913  1.00  0.00    -0.274 OA
HETATM   14  O4  UNK     1      -0.529  -1.570  -0.156  1.00  0.00    -0.259 OA
HETATM   15  C5  UNK     1      -4.036  -1.999  -0.654  1.00  0.00     0.089 A 
HETATM   16  C15 UNK     1      -4.879  -2.337  -1.710  1.00  0.00     0.038 A 
HETATM   17  C3  UNK     1      -4.529  -1.724   0.618  1.00  0.00    -0.001 A 
HETATM   18  C23 UNK     1      -6.252  -2.401  -1.484  1.00  0.00     0.003 A 
HETATM   19  C22 UNK     1      -6.766  -2.127  -0.215  1.00  0.00     0.001 A 
HETATM   20  C13 UNK     1      -5.907  -1.789   0.836  1.00  0.00     0.014 A 
HETATM   21  C6  UNK     1      -3.592  -1.378   1.676  1.00  0.00     0.037 A 
ENDBRANCH   8  11
ENDBRANCH   1   7
BRANCH   2  22
HETATM   22  N2  UNK     1       1.973   1.019   1.012  1.00  0.00    -0.321 N 
HETATM   23  C11 UNK     1       3.004   1.646   0.303  1.00  0.00     0.256 C 
HETATM   24  O3  UNK     1       4.018   2.151   0.772  1.00  0.00    -0.267 OA
HETATM   25  H3  UNK     1       1.232   0.600   0.465  1.00  0.00     0.169 HD
BRANCH  23  26
HETATM   26  C8  UNK     1       2.811   1.717  -1.169  1.00  0.00     0.032 A 
HETATM   27  C16 UNK     1       3.922   1.774  -1.984  1.00  0.00     0.018 A 
HETATM   28  C20 UNK     1       3.741   1.838  -3.365  1.00  0.00     0.017 A 
HETATM   29  C14 UNK     1       2.453   1.844  -3.900  1.00  0.00     0.048 A 
HETATM   30  C21 UNK     1       1.346   1.785  -3.054  1.00  0.00     0.017 A 
HETATM   31  C17 UNK     1       1.527   1.721  -1.672  1.00  0.00     0.018 A 
BRANCH  29  32
HETATM   32  C24 UNK     1       2.260   1.914  -5.377  1.00  0.00     0.417 C 
HETATM   33  F1  UNK     1       3.430   1.967  -6.080  1.00  0.00    -0.166 F 
HETATM   34  F2  UNK     1       1.584   0.844  -5.892  1.00  0.00    -0.166 F 
HETATM   35  F3  UNK     1       1.551   3.015  -5.763  1.00  0.00    -0.166 F 
ENDBRANCH  29  32
ENDBRANCH  23  26
ENDBRANCH   2  22
TORSDOF 5
