REMARK  2 active torsions:
REMARK  status: ('A' for Active; 'I' for Inactive)
REMARK    1  A    between atoms: C1_8  and  C8_15 
REMARK    2  A    between atoms: C6_13  and  C9_16 
ROOT
HETATM    1  O1  UNK     1      -0.547   3.271  -1.698  1.00  0.00    -0.293 OA
HETATM    2  N1  UNK     1       1.951  -0.043   0.759  1.00  0.00    -0.357 N 
HETATM    3  N2  UNK     1      -0.408   1.462   1.864  1.00  0.00    -0.375 N 
HETATM    4  C1  UNK     1       2.525   1.673  -2.521  1.00  0.00     0.038 C 
HETATM    5  C2  UNK     1       2.895   1.060  -1.168  1.00  0.00     0.068 C 
HETATM    6  C3  UNK     1       0.574   1.615  -0.387  1.00  0.00     0.037 C 
HETATM    7  C4  UNK     1       1.714   0.909  -0.216  1.00  0.00     0.022 C 
HETATM    8  C5  UNK     1       1.728   2.950  -2.298  1.00  0.00     0.094 C 
HETATM    9  C6  UNK     1      -0.675   1.432   0.437  1.00  0.00     0.160 C 
HETATM   10  C7  UNK     1       0.492   2.646  -1.487  1.00  0.00     0.160 C 
HETATM   11  C10 UNK     1       1.368  -0.250   2.025  1.00  0.00     0.059 A 
HETATM   12  C11 UNK     1       0.307   0.501   2.561  1.00  0.00     0.055 A 
HETATM   13  C15 UNK     1       1.947  -1.265   2.824  1.00  0.00     0.032 A 
HETATM   14  C16 UNK     1      -0.098   0.240   3.890  1.00  0.00     0.031 A 
HETATM   15  C21 UNK     1       1.518  -1.517   4.125  1.00  0.00     0.002 A 
HETATM   16  C22 UNK     1       0.496  -0.754   4.664  1.00  0.00     0.002 A 
HETATM   17  H7  UNK     1       2.766  -0.624   0.584  1.00  0.00     0.166 HD
HETATM   18  H8  UNK     1      -1.027   2.048   2.417  1.00  0.00     0.160 HD
ENDROOT
BRANCH   9  19
HETATM   19  C9  UNK     1      -1.455   0.205   0.071  1.00  0.00     0.042 A 
HETATM   20  C13 UNK     1      -2.712  -0.082   0.807  1.00  0.00     0.195 A 
HETATM   21  O3  UNK     1      -3.127   0.650   1.696  1.00  0.00    -0.287 OA
HETATM   22  C17 UNK     1      -3.440  -1.300   0.407  1.00  0.00     0.050 A 
HETATM   23  C20 UNK     1      -2.921  -2.097  -0.614  1.00  0.00     0.089 A 
HETATM   24  C23 UNK     1      -4.634  -1.657   1.040  1.00  0.00     0.042 A 
HETATM   25  O2  UNK     1      -1.754  -1.794  -1.269  1.00  0.00    -0.321 OA
HETATM   26  C24 UNK     1      -3.593  -3.254  -1.008  1.00  0.00     0.040 A 
HETATM   27  C14 UNK     1      -1.087  -0.657  -0.886  1.00  0.00     0.156 A 
HETATM   28  C26 UNK     1      -4.785  -3.612  -0.378  1.00  0.00     0.026 A 
HETATM   29  C25 UNK     1      -5.304  -2.815   0.643  1.00  0.00     0.035 A 
HETATM   30 Cl1  UNK     1      -6.776  -3.263   1.417  1.00  0.00    -0.084 Cl
ENDBRANCH   9  19
BRANCH   4  31
HETATM   31  C8  UNK     1       3.746   1.901  -3.399  1.00  0.00    -0.013 A 
HETATM   32  C12 UNK     1       4.828   2.715  -3.162  1.00  0.00     0.015 A 
HETATM   33  C18 UNK     1       5.776   2.662  -4.223  1.00  0.00     0.008 A 
HETATM   34  C19 UNK     1       5.380   1.809  -5.230  1.00  0.00     0.050 A 
HETATM   35  S1  UNK     1       3.869   1.076  -4.892  1.00  0.00    -0.106 SA
ENDBRANCH   4  31
TORSDOF 2
