REMARK  2 active torsions:
REMARK  status: ('A' for Active; 'I' for Inactive)
REMARK    1  A    between atoms: C4_8  and  O2_2 
REMARK    2  A    between atoms: C6_10  and  O3_3 
ROOT
HETATM    1  O1  UNK     1      -0.962  -0.370   1.675  1.00  0.00    -0.275 OA
HETATM    2  O4  UNK     1      -2.703  -1.446   2.702  1.00  0.00    -0.260 OA
HETATM    3  C1  UNK     1      -0.918  -0.240  -0.755  1.00  0.00     0.001 A 
HETATM    4  C2  UNK     1      -0.343   0.048   0.479  1.00  0.00     0.092 A 
HETATM    5  C3  UNK     1      -0.275   0.191  -1.917  1.00  0.00     0.053 A 
HETATM    6  C4  UNK     1       1.490   1.180  -0.582  1.00  0.00     0.103 A 
HETATM    7  C5  UNK     1       0.855   0.754   0.583  1.00  0.00     0.077 A 
HETATM    8  C6  UNK     1       0.927   0.900  -1.829  1.00  0.00     0.100 A 
HETATM    9  C7  UNK     1      -2.168  -0.980  -0.790  1.00  0.00     0.020 A 
HETATM   10  C8  UNK     1      -2.749  -1.372   0.347  1.00  0.00     0.083 A 
HETATM   11  C9  UNK     1      -2.159  -1.078   1.666  1.00  0.00     0.288 A 
ENDROOT
BRANCH   6  12
HETATM   12  O2  UNK     1       2.661   1.869  -0.491  1.00  0.00    -0.353 OA
HETATM   13  C10 UNK     1       3.865   1.104  -0.495  1.00  0.00     0.210 C 
ENDBRANCH   6  12
BRANCH   8  14
HETATM   14  O3  UNK     1       1.543   1.313  -2.972  1.00  0.00    -0.358 OA
HETATM   15  H5  UNK     1       1.014   1.031  -3.738  1.00  0.00     0.217 HD
ENDBRANCH   8  14
TORSDOF 2
