REMARK  3 active torsions:
REMARK  status: ('A' for Active; 'I' for Inactive)
REMARK    1  A    between atoms: C3_6  and  O1_1 
REMARK    2  A    between atoms: C4_7  and  O1_1 
REMARK    3  A    between atoms: C4_7  and  C6_9 
ROOT
HETATM    1  O2  UNK     1      -1.861  -1.013   2.400  1.00  0.00    -0.275 OA
HETATM    2  O3  UNK     1      -3.044  -1.767   4.211  1.00  0.00    -0.260 OA
HETATM    3  C1  UNK     1      -2.848  -1.194   0.183  1.00  0.00    -0.002 A 
HETATM    4  C2  UNK     1      -1.792  -0.813   1.006  1.00  0.00     0.092 A 
HETATM    5  C3  UNK     1      -0.540  -0.017  -0.881  1.00  0.00     0.071 A 
HETATM    6  C5  UNK     1      -0.637  -0.227   0.493  1.00  0.00     0.075 A 
HETATM    7  C7  UNK     1      -2.743  -0.980  -1.193  1.00  0.00     0.017 A 
HETATM    8  C8  UNK     1      -1.590  -0.393  -1.722  1.00  0.00     0.038 A 
HETATM    9  C9  UNK     1      -4.023  -1.801   0.786  1.00  0.00     0.020 A 
HETATM   10  C12 UNK     1      -4.081  -1.986   2.107  1.00  0.00     0.083 A 
HETATM   11  C13 UNK     1      -2.975  -1.591   2.999  1.00  0.00     0.288 A 
ENDROOT
BRANCH   5  12
HETATM   12  O1  UNK     1       0.579   0.555  -1.405  1.00  0.00    -0.347 OA
BRANCH  12  13
HETATM   13  C4  UNK     1       1.613   0.914  -0.491  1.00  0.00     0.214 C 
BRANCH  13  14
HETATM   14  C6  UNK     1       2.738   1.553  -1.251  1.00  0.00    -0.034 A 
HETATM   15  C10 UNK     1       3.766   0.762  -1.752  1.00  0.00     0.009 A 
HETATM   16  C14 UNK     1       4.813   1.355  -2.458  1.00  0.00     0.001 A 
HETATM   17  C16 UNK     1       4.824   2.736  -2.659  1.00  0.00     0.000 A 
HETATM   18  C15 UNK     1       3.790   3.523  -2.153  1.00  0.00     0.001 A 
HETATM   19  C11 UNK     1       2.743   2.929  -1.447  1.00  0.00     0.009 A 
ENDBRANCH  13  14
ENDBRANCH  12  13
ENDBRANCH   5  12
TORSDOF 3
