REMARK  10 active torsions:
REMARK  status: ('A' for Active; 'I' for Inactive)
REMARK    1  A    between atoms: C1_8  and  O1_1 
REMARK    2  A    between atoms: C5_12  and  O1_1 
REMARK    3  A    between atoms: C10_17  and  O2_2 
REMARK    4  A    between atoms: C6_13  and  O2_2 
REMARK    5  A    between atoms: C14_21  and  O3_3 
REMARK    6  A    between atoms: C3_10  and  O3_3 
REMARK    7  A    between atoms: C22_29  and  N1_6 
REMARK    8  A    between atoms: C2_9  and  C9_16 
REMARK    9  A    between atoms: C5_12  and  C6_13 
REMARK   10  A    between atoms: C12_19  and  C13_20 
ROOT
HETATM    1  N2  UNK     1       5.216   2.298  -3.710  1.00  0.00    -0.191 NA
HETATM    2  C9  UNK     1       2.121   0.796  -3.471  1.00  0.00     0.035 C 
HETATM    3  C12 UNK     1       3.059   1.320  -2.637  1.00  0.00     0.055 C 
HETATM    4  C26 UNK     1       4.250   1.859  -3.240  1.00  0.00     0.100 C 
ENDROOT
BRANCH   3   5
HETATM    5  C13 UNK     1       2.919   1.368  -1.190  1.00  0.00    -0.015 A 
HETATM    6  C17 UNK     1       2.319   2.472  -0.584  1.00  0.00     0.015 A 
HETATM    7  C23 UNK     1       2.183   2.518   0.803  1.00  0.00     0.037 A 
HETATM    8  C22 UNK     1       2.649   1.460   1.585  1.00  0.00     0.102 A 
HETATM    9  C24 UNK     1       3.249   0.357   0.979  1.00  0.00     0.037 A 
HETATM   10  C18 UNK     1       3.384   0.311  -0.409  1.00  0.00     0.015 A 
BRANCH   8  11
HETATM   11  N1  UNK     1       2.511   1.506   2.998  1.00  0.00    -0.116 N 
HETATM   12  O4  UNK     1       1.968   2.508   3.523  1.00  0.00    -0.532 OA
HETATM   13  O5  UNK     1       2.936   0.544   3.682  1.00  0.00    -0.532 OA
ENDBRANCH   8  11
ENDBRANCH   3   5
BRANCH   2  14
HETATM   14  C2  UNK     1       0.853   0.180  -3.055  1.00  0.00    -0.032 A 
HETATM   15  C4  UNK     1      -0.290   0.966  -2.911  1.00  0.00     0.051 A 
HETATM   16  C3  UNK     1      -1.493   0.381  -2.515  1.00  0.00     0.102 A 
HETATM   17  C1  UNK     1      -1.553  -0.990  -2.264  1.00  0.00     0.102 A 
HETATM   18  C7  UNK     1      -0.410  -1.776  -2.408  1.00  0.00     0.040 A 
HETATM   19  C8  UNK     1       0.793  -1.191  -2.803  1.00  0.00     0.014 A 
BRANCH  16  20
HETATM   20  O3  UNK     1      -2.603   1.159  -2.378  1.00  0.00    -0.349 OA
BRANCH  20  21
HETATM   21  C14 UNK     1      -2.399   2.519  -2.000  1.00  0.00     0.171 C 
HETATM   22  C25 UNK     1      -3.604   3.000  -1.220  1.00  0.00     0.034 C 
ENDBRANCH  20  21
ENDBRANCH  16  20
BRANCH  17  23
HETATM   23  O1  UNK     1      -2.722  -1.573  -1.878  1.00  0.00    -0.346 OA
BRANCH  23  24
HETATM   24  C5  UNK     1      -2.627  -2.723  -1.040  1.00  0.00     0.202 C 
BRANCH  24  25
HETATM   25  C6  UNK     1      -3.839  -2.774  -0.130  1.00  0.00     0.202 C 
BRANCH  25  26
HETATM   26  O2  UNK     1      -3.860  -1.605   0.681  1.00  0.00    -0.348 OA
BRANCH  26  27
HETATM   27  C10 UNK     1      -3.224  -1.683   1.892  1.00  0.00     0.074 A 
HETATM   28  C11 UNK     1      -2.161  -0.832   2.195  1.00  0.00    -0.029 A 
HETATM   29  C16 UNK     1      -1.524  -0.925   3.433  1.00  0.00     0.009 A 
HETATM   30  C19 UNK     1      -1.691   0.184   1.207  1.00  0.00     0.051 C 
HETATM   31  C21 UNK     1      -1.951  -1.869   4.368  1.00  0.00     0.001 A 
HETATM   32  C20 UNK     1      -3.014  -2.720   4.064  1.00  0.00     0.003 A 
HETATM   33  C15 UNK     1      -3.650  -2.627   2.826  1.00  0.00     0.037 A 
ENDBRANCH  26  27
ENDBRANCH  25  26
ENDBRANCH  24  25
ENDBRANCH  23  24
ENDBRANCH  17  23
ENDBRANCH   2  14
TORSDOF 10
