REMARK  10 active torsions:
REMARK  status: ('A' for Active; 'I' for Inactive)
REMARK    1  A    between atoms: C6_11  and  O1_1 
REMARK    2  A    between atoms: C8_13  and  O1_1 
REMARK    3  A    between atoms: C15_20  and  O3_3 
REMARK    4  A    between atoms: C17_22  and  O3_3 
REMARK    5  A    between atoms: C20_25  and  O5_5 
REMARK    6  A    between atoms: C1_6  and  C2_7 
REMARK    7  A    between atoms: C1_6  and  C3_8 
REMARK    8  A    between atoms: C2_7  and  C4_9 
REMARK    9  A    between atoms: C3_8  and  C5_10 
REMARK   10  A    between atoms: C4_9  and  C6_11 
ROOT
HETATM    1  O2  UNK     1       0.373  -1.142  -2.872  1.00  0.00    -0.319 OA
HETATM    2  O4  UNK     1       1.011   2.735  -1.763  1.00  0.00    -0.284 OA
HETATM    3  C8  UNK     1      -2.463  -0.717  -0.621  1.00  0.00     0.071 A 
HETATM    4  C9  UNK     1      -0.324   0.793  -1.575  1.00  0.00     0.051 A 
HETATM    5  C10 UNK     1      -0.487  -0.529  -1.994  1.00  0.00     0.092 A 
HETATM    6  C11 UNK     1      -1.557  -1.286  -1.517  1.00  0.00     0.075 A 
HETATM    7  C12 UNK     1      -2.300   0.605  -0.204  1.00  0.00     0.038 A 
HETATM    8  C13 UNK     1      -1.230   1.365  -0.679  1.00  0.00     0.021 A 
HETATM    9  C14 UNK     1       0.815   1.574  -2.092  1.00  0.00     0.220 A 
HETATM   10  C15 UNK     1       1.710   0.865  -3.034  1.00  0.00     0.149 A 
HETATM   11  C16 UNK     1       1.431  -0.404  -3.345  1.00  0.00     0.184 A 
ENDROOT
BRANCH  10  12
HETATM   12  O3  UNK     1       2.796   1.523  -3.562  1.00  0.00    -0.305 OA
BRANCH  12  13
HETATM   13  C17 UNK     1       3.729   1.992  -2.677  1.00  0.00     0.076 A 
HETATM   14  C18 UNK     1       4.166   1.182  -1.630  1.00  0.00     0.040 A 
HETATM   15  C21 UNK     1       5.118   1.660  -0.729  1.00  0.00     0.039 A 
HETATM   16  C20 UNK     1       5.631   2.948  -0.875  1.00  0.00     0.068 A 
HETATM   17  C22 UNK     1       5.193   3.759  -1.922  1.00  0.00     0.039 A 
HETATM   18  C19 UNK     1       4.242   3.281  -2.824  1.00  0.00     0.040 A 
BRANCH  16  19
HETATM   19  O5  UNK     1       6.559   3.415   0.005  1.00  0.00    -0.356 OA
HETATM   20  C23 UNK     1       6.962   2.533   1.052  1.00  0.00     0.210 C 
ENDBRANCH  16  19
ENDBRANCH  12  13
ENDBRANCH  10  12
BRANCH   3  21
HETATM   21  O1  UNK     1      -3.517  -1.457  -0.151  1.00  0.00    -0.351 OA
BRANCH  21  22
HETATM   22  C6  UNK     1      -3.991  -1.143   1.151  1.00  0.00     0.175 C 
BRANCH  22  23
HETATM   23  C4  UNK     1      -4.578  -2.399   1.778  1.00  0.00     0.027 C 
BRANCH  23  24
HETATM   24  C2  UNK     1      -5.095  -2.136   3.191  1.00  0.00     0.002 C 
BRANCH  24  25
HETATM   25  C1  UNK     1      -5.643  -3.415   3.828  1.00  0.00     0.000 C 
BRANCH  25  26
HETATM   26  C3  UNK     1      -6.198  -3.203   5.240  1.00  0.00    -0.000 C 
BRANCH  26  27
HETATM   27  C5  UNK     1      -6.812  -4.464   5.847  1.00  0.00    -0.005 C 
HETATM   28  C7  UNK     1      -7.411  -4.184   7.217  1.00  0.00     0.005 C 
ENDBRANCH  26  27
ENDBRANCH  25  26
ENDBRANCH  24  25
ENDBRANCH  23  24
ENDBRANCH  22  23
ENDBRANCH  21  22
ENDBRANCH   3  21
TORSDOF 10
