REMARK  3 active torsions:
REMARK  status: ('A' for Active; 'I' for Inactive)
REMARK    1  A    between atoms: C1_7  and  O1_2 
REMARK    2  A    between atoms: C7_13  and  O1_2 
REMARK    3  A    between atoms: C7_13  and  C8_14 
ROOT
HETATM    1 Br1  UNK     1       4.418   3.183  -4.778  1.00  0.00    -0.051 Br
HETATM    2  O2  UNK     1       2.499   0.894   0.502  1.00  0.00    -0.274 OA
HETATM    3  O4  UNK     1       0.885  -0.138   1.748  1.00  0.00    -0.259 OA
HETATM    4  C8  UNK     1       0.367   0.281  -0.526  1.00  0.00     0.115 A 
HETATM    5  C9  UNK     1       0.761   0.777  -1.704  1.00  0.00     0.038 A 
HETATM    6  C10 UNK     1       2.080   1.374  -1.844  1.00  0.00     0.000 A 
HETATM    7  C11 UNK     1       1.243   0.317   0.667  1.00  0.00     0.304 A 
HETATM    8  C12 UNK     1       2.920   1.418  -0.736  1.00  0.00     0.089 A 
HETATM    9  C13 UNK     1       2.533   1.905  -3.054  1.00  0.00     0.033 A 
HETATM   10  C14 UNK     1       4.195   1.975  -0.803  1.00  0.00     0.039 A 
HETATM   11  C15 UNK     1       3.810   2.467  -3.137  1.00  0.00     0.011 A 
HETATM   12  C16 UNK     1       4.639   2.502  -2.014  1.00  0.00     0.022 A 
ENDROOT
BRANCH   4  13
HETATM   13  C7  UNK     1      -0.979  -0.300  -0.485  1.00  0.00     0.299 C 
HETATM   14  O3  UNK     1      -1.516  -0.828  -1.445  1.00  0.00    -0.259 OA
BRANCH  13  15
HETATM   15  O1  UNK     1      -1.490  -0.146   0.767  1.00  0.00    -0.312 OA
BRANCH  15  16
HETATM   16  C1  UNK     1      -2.800  -0.663   0.966  1.00  0.00     0.135 C 
HETATM   17  C2  UNK     1      -3.227  -0.393   2.405  1.00  0.00     0.062 C 
HETATM   18  C4  UNK     1      -4.561  -1.068   2.725  1.00  0.00     0.274 C 
HETATM   19  N1  UNK     1      -4.499  -2.513   2.460  1.00  0.00     0.084 N 
HETATM   20  C5  UNK     1      -4.163  -2.783   1.055  1.00  0.00     0.274 C 
HETATM   21  C6  UNK     1      -5.766  -3.152   2.815  1.00  0.00     0.309 C 
HETATM   22  C3  UNK     1      -2.817  -2.163   0.682  1.00  0.00     0.062 C 
ENDBRANCH  15  16
ENDBRANCH  13  15
ENDBRANCH   4  13
TORSDOF 3
