REMARK  4 active torsions:
REMARK  status: ('A' for Active; 'I' for Inactive)
REMARK    1  A    between atoms: C11_16  and  S1_1 
REMARK    2  A    between atoms: C3_8  and  S1_1 
REMARK    3  A    between atoms: C12_17  and  O3_4 
REMARK    4  A    between atoms: C11_16  and  C12_17 
ROOT
HETATM    1  O1  UNK     1       0.818   1.204  -2.664  1.00  0.00    -0.275 OA
HETATM    2  O2  UNK     1      -0.618   0.411  -4.258  1.00  0.00    -0.260 OA
HETATM    3  C1  UNK     1       0.751   0.268  -0.401  1.00  0.00     0.015 A 
HETATM    4  C2  UNK     1       1.305   1.143  -1.342  1.00  0.00     0.091 A 
HETATM    5  C3  UNK     1      -0.376  -0.575  -0.833  1.00  0.00     0.019 A 
HETATM    6  C4  UNK     1       1.332   0.260   0.876  1.00  0.00     0.022 A 
HETATM    7  C5  UNK     1       2.404   1.106   1.190  1.00  0.00    -0.061 A 
HETATM    8  C6  UNK     1       2.373   1.993  -1.044  1.00  0.00     0.039 A 
HETATM    9  C7  UNK     1       2.922   1.973   0.232  1.00  0.00     0.009 A 
HETATM   10  C8  UNK     1      -0.804  -0.517  -2.101  1.00  0.00     0.102 A 
HETATM   11  C9  UNK     1       2.995   1.076   2.560  1.00  0.00     0.048 C 
HETATM   12  C10 UNK     1      -0.210   0.385  -3.102  1.00  0.00     0.289 A 
ENDROOT
BRANCH   5  13
HETATM   13  S1  UNK     1      -1.135  -1.648   0.301  1.00  0.00    -0.118 SA
BRANCH  13  14
HETATM   14  C11 UNK     1      -2.405  -0.544   0.953  1.00  0.00     0.189 C 
BRANCH  14  15
HETATM   15  C12 UNK     1      -3.217  -1.272   1.986  1.00  0.00     0.149 C 
HETATM   16  O4  UNK     1      -2.778  -2.171   2.693  1.00  0.00    -0.649 OA
BRANCH  15  17
HETATM   17  O3  UNK     1      -4.493  -0.817   2.066  1.00  0.00    -0.776 OA
HETATM   18  H10 UNK     1      -5.010  -1.296   2.749  1.00  0.00     0.167 HD
ENDBRANCH  15  17
ENDBRANCH  14  15
ENDBRANCH  13  14
ENDBRANCH   5  13
TORSDOF 4
