REMARK  7 active torsions:
REMARK  status: ('A' for Active; 'I' for Inactive)
REMARK    1  A    between atoms: C15_22  and  O3_3 
REMARK    2  A    between atoms: C20_27  and  O3_3 
REMARK    3  A    between atoms: C5_12  and  N1_5 
REMARK    4  A    between atoms: C6_13  and  N2_6 
REMARK    5  A    between atoms: C17_24  and  N3_7 
REMARK       I    between atoms: C9_16  and  N3_7 
REMARK    6  A    between atoms: C5_12  and  C7_14 
REMARK    7  A    between atoms: C6_13  and  C9_16 
ROOT
HETATM    1  N1  UNK     1       1.196  -0.384  -0.526  1.00  0.00     0.096 N 
HETATM    2  N2  UNK     1      -0.701  -1.274   1.466  1.00  0.00     0.100 N 
HETATM    3  C1  UNK     1       1.638  -1.063   0.698  1.00  0.00     0.303 C 
HETATM    4  C2  UNK     1      -0.151  -0.830  -0.902  1.00  0.00     0.303 C 
HETATM    5  C3  UNK     1       0.646  -0.826   1.842  1.00  0.00     0.303 C 
HETATM    6  C4  UNK     1      -1.143  -0.595   0.242  1.00  0.00     0.303 C 
ENDROOT
BRANCH   1   7
HETATM    7  C5  UNK     1       2.142  -0.613  -1.617  1.00  0.00     0.312 C 
BRANCH   7   8
HETATM    8  C7  UNK     1       2.058   0.442  -2.664  1.00  0.00    -0.011 A 
HETATM    9  C10 UNK     1       1.228   0.316  -3.709  1.00  0.00     0.092 A 
HETATM   10  C13 UNK     1       1.111   1.332  -4.769  1.00  0.00     0.288 A 
HETATM   11  O4  UNK     1       0.341   1.183  -5.711  1.00  0.00    -0.260 OA
HETATM   12  O1  UNK     1       1.912   2.456  -4.645  1.00  0.00    -0.275 OA
HETATM   13  C11 UNK     1       2.795   2.617  -3.558  1.00  0.00     0.090 A 
HETATM   14  C8  UNK     1       2.895   1.645  -2.561  1.00  0.00     0.009 A 
HETATM   15  C14 UNK     1       3.554   3.788  -3.537  1.00  0.00     0.041 A 
HETATM   16  C12 UNK     1       3.798   1.879  -1.515  1.00  0.00     0.051 A 
HETATM   17  C15 UNK     1       4.565   3.048  -1.480  1.00  0.00     0.069 A 
HETATM   18  C16 UNK     1       4.444   4.002  -2.490  1.00  0.00     0.039 A 
BRANCH  17  19
HETATM   19  O3  UNK     1       5.436   3.256  -0.454  1.00  0.00    -0.351 OA
BRANCH  19  20
HETATM   20  C20 UNK     1       5.101   2.682   0.808  1.00  0.00     0.171 C 
HETATM   21  C24 UNK     1       5.684   3.540   1.911  1.00  0.00     0.034 C 
ENDBRANCH  19  20
ENDBRANCH  17  19
ENDBRANCH   7   8
ENDBRANCH   1   7
BRANCH   2  22
HETATM   22  C6  UNK     1      -1.647  -1.047   2.557  1.00  0.00     0.375 C 
BRANCH  22  23
HETATM   23  C9  UNK     1      -2.832  -1.984   2.401  1.00  0.00     0.250 C 
HETATM   24  N3  UNK     1      -3.981  -1.399   2.928  1.00  0.00    -0.326 N 
HETATM   25  H15 UNK     1      -3.896  -0.471   3.336  1.00  0.00     0.169 HD
HETATM   26  O2  UNK     1      -2.735  -3.092   1.883  1.00  0.00    -0.271 OA
BRANCH  24  27
HETATM   27  C17 UNK     1      -5.285  -1.948   2.976  1.00  0.00     0.034 A 
HETATM   28  C18 UNK     1      -6.329  -1.217   3.544  1.00  0.00     0.029 A 
HETATM   29  C21 UNK     1      -7.614  -1.757   3.591  1.00  0.00     0.002 A 
HETATM   30  C23 UNK     1      -7.856  -3.028   3.069  1.00  0.00     0.000 A 
HETATM   31  C22 UNK     1      -6.813  -3.758   2.501  1.00  0.00     0.002 A 
HETATM   32  C19 UNK     1      -5.527  -3.219   2.454  1.00  0.00     0.029 A 
ENDBRANCH  24  27
ENDBRANCH  22  23
ENDBRANCH   2  22
TORSDOF 7
