REMARK  5 active torsions:
REMARK  status: ('A' for Active; 'I' for Inactive)
REMARK    1  A    between atoms: C5_12  and  N1_5 
REMARK    2  A    between atoms: C6_13  and  N2_6 
REMARK    3  A    between atoms: C17_24  and  N3_7 
REMARK       I    between atoms: C9_16  and  N3_7 
REMARK    4  A    between atoms: C5_12  and  C7_14 
REMARK    5  A    between atoms: C6_13  and  C9_16 
ROOT
HETATM    1  N1  UNK     1       0.979  -0.077  -2.026  1.00  0.00     0.096 N 
HETATM    2  N2  UNK     1      -1.718  -0.901  -1.389  1.00  0.00     0.100 N 
HETATM    3  C1  UNK     1       0.640  -0.624  -0.707  1.00  0.00     0.303 C 
HETATM    4  C2  UNK     1       0.087  -0.628  -3.054  1.00  0.00     0.303 C 
HETATM    5  C3  UNK     1      -0.828  -0.348  -0.362  1.00  0.00     0.303 C 
HETATM    6  C4  UNK     1      -1.380  -0.353  -2.709  1.00  0.00     0.303 C 
ENDROOT
BRANCH   1   7
HETATM    7  C5  UNK     1       2.378  -0.343  -2.355  1.00  0.00     0.312 C 
BRANCH   7   8
HETATM    8  C7  UNK     1       3.308   0.572  -1.637  1.00  0.00    -0.011 A 
HETATM    9  C10 UNK     1       3.804   0.252  -0.434  1.00  0.00     0.092 A 
HETATM   10  C13 UNK     1       4.726   1.124   0.313  1.00  0.00     0.288 A 
HETATM   11  O1  UNK     1       5.074   2.323  -0.289  1.00  0.00    -0.275 OA
HETATM   12  O3  UNK     1       5.159   0.798   1.413  1.00  0.00    -0.260 OA
HETATM   13  C11 UNK     1       4.569   2.687  -1.553  1.00  0.00     0.090 A 
HETATM   14  C8  UNK     1       3.696   1.850  -2.249  1.00  0.00     0.006 A 
HETATM   15  C14 UNK     1       4.988   3.918  -2.063  1.00  0.00     0.045 A 
HETATM   16  C12 UNK     1       3.238   2.285  -3.501  1.00  0.00     0.015 A 
HETATM   17  C16 UNK     1       3.649   3.516  -4.025  1.00  0.00     0.007 A 
HETATM   18  C15 UNK     1       4.523   4.331  -3.307  1.00  0.00    -0.059 A 
HETATM   19  C19 UNK     1       4.956   5.641  -3.871  1.00  0.00     0.048 C 
ENDBRANCH   7   8
ENDBRANCH   1   7
BRANCH   2  20
HETATM   20  C6  UNK     1      -3.117  -0.637  -1.060  1.00  0.00     0.375 C 
BRANCH  20  21
HETATM   21  C9  UNK     1      -3.572  -1.599   0.023  1.00  0.00     0.250 C 
HETATM   22  O2  UNK     1      -3.553  -2.817  -0.123  1.00  0.00    -0.271 OA
HETATM   23  N3  UNK     1      -3.985  -0.894   1.152  1.00  0.00    -0.325 N 
HETATM   24  H15 UNK     1      -3.930   0.120   1.110  1.00  0.00     0.169 HD
BRANCH  23  25
HETATM   25  C17 UNK     1      -4.476  -1.423   2.369  1.00  0.00     0.042 A 
HETATM   26  C18 UNK     1      -4.852  -0.580   3.415  1.00  0.00    -0.035 A 
HETATM   27  C21 UNK     1      -5.334  -1.120   4.607  1.00  0.00     0.011 A 
HETATM   28  C22 UNK     1      -4.748   0.905   3.286  1.00  0.00     0.050 C 
HETATM   29  C24 UNK     1      -5.440  -2.503   4.754  1.00  0.00     0.024 A 
HETATM   30  C23 UNK     1      -5.064  -3.346   3.708  1.00  0.00     0.036 A 
HETATM   31  C20 UNK     1      -4.582  -2.806   2.516  1.00  0.00     0.053 A 
HETATM   32 Cl1  UNK     1      -5.195  -5.052   3.890  1.00  0.00    -0.084 Cl
ENDBRANCH  23  25
ENDBRANCH  20  21
ENDBRANCH   2  20
TORSDOF 5
