REMARK  2 active torsions:
REMARK  status: ('A' for Active; 'I' for Inactive)
REMARK    1  A    between atoms: C1_5  and  N1_4 
REMARK       I    between atoms: C9_13  and  N1_4 
REMARK    2  A    between atoms: C5_9  and  C9_13 
ROOT
HETATM    1  O2  UNK     1      -2.118   0.032  -1.518  1.00  0.00    -0.265 OA
HETATM    2  N1  UNK     1      -1.108  -0.469   0.550  1.00  0.00    -0.320 N 
HETATM    3  C9  UNK     1      -1.156   0.025  -0.748  1.00  0.00     0.280 C 
HETATM    4  H1  UNK     1      -0.350  -0.105   1.124  1.00  0.00     0.169 HD
ENDROOT
BRANCH   3   5
HETATM    5  C5  UNK     1       0.126   0.587  -1.177  1.00  0.00     0.147 A 
HETATM    6  C14 UNK     1       0.193   1.093  -2.415  1.00  0.00     0.098 A 
HETATM    7  C13 UNK     1       1.474   1.667  -2.875  1.00  0.00     0.187 A 
HETATM    8  O3  UNK     1       1.594   2.143  -3.995  1.00  0.00    -0.287 OA
HETATM    9  C4  UNK     1       2.587   1.631  -1.911  1.00  0.00     0.048 A 
HETATM   10  C15 UNK     1       3.840   2.148  -2.248  1.00  0.00     0.018 A 
HETATM   11  C6  UNK     1       2.371   1.071  -0.651  1.00  0.00     0.090 A 
HETATM   12  C17 UNK     1       4.876   2.102  -1.314  1.00  0.00     0.001 A 
HETATM   13  C18 UNK     1       4.662   1.543  -0.054  1.00  0.00     0.003 A 
HETATM   14  C16 UNK     1       3.409   1.026   0.280  1.00  0.00     0.038 A 
HETATM   15  O1  UNK     1       1.161   0.549  -0.267  1.00  0.00    -0.304 OA
ENDBRANCH   3   5
BRANCH   2  16
HETATM   16  C1  UNK     1      -2.154  -1.078   1.285  1.00  0.00     0.047 A 
HETATM   17  C2  UNK     1      -2.585  -0.511   2.484  1.00  0.00    -0.035 A 
HETATM   18  C11 UNK     1      -1.962   0.738   3.020  1.00  0.00     0.050 C 
HETATM   19  C7  UNK     1      -3.615  -1.111   3.209  1.00  0.00     0.009 A 
HETATM   20  C10 UNK     1      -4.214  -2.278   2.734  1.00  0.00     0.001 A 
HETATM   21  C8  UNK     1      -3.783  -2.844   1.534  1.00  0.00     0.009 A 
HETATM   22  C3  UNK     1      -2.753  -2.244   0.810  1.00  0.00    -0.035 A 
HETATM   23  C12 UNK     1      -2.314  -2.875  -0.472  1.00  0.00     0.050 C 
ENDBRANCH   2  16
TORSDOF 2
