REMARK  3 active torsions:
REMARK  status: ('A' for Active; 'I' for Inactive)
REMARK    1  A    between atoms: C3_10  and  N1_6 
REMARK       I    between atoms: C8_15  and  N1_6 
REMARK       I    between atoms: C12_19  and  N2_7 
REMARK    2  A    between atoms: C12_19  and  C2_9 
REMARK    3  A    between atoms: C6_13  and  C8_15 
ROOT
HETATM    1  O2  UNK     1       1.074  -0.066   1.805  1.00  0.00    -0.267 OA
HETATM    2  N1  UNK     1      -0.753  -0.296   0.337  1.00  0.00    -0.316 N 
HETATM    3  C8  UNK     1       0.547   0.030   0.698  1.00  0.00     0.262 C 
HETATM    4  H1  UNK     1      -1.053  -0.141  -0.622  1.00  0.00     0.169 HD
ENDROOT
BRANCH   2   5
HETATM    5  C3  UNK     1      -1.775  -0.818   1.167  1.00  0.00     0.093 A 
HETATM    6  C2  UNK     1      -3.046  -1.149   0.867  1.00  0.00     0.072 A 
HETATM    7  C1  UNK     1      -3.721  -1.639   2.022  1.00  0.00    -0.031 A 
HETATM    8  C4  UNK     1      -2.907  -1.646   3.133  1.00  0.00    -0.012 A 
HETATM    9  C5  UNK     1      -5.135  -2.090   2.030  1.00  0.00     0.050 C 
HETATM   10  S1  UNK     1      -1.335  -1.063   2.782  1.00  0.00    -0.076 SA
HETATM   11  C9  UNK     1      -3.222  -2.076   4.514  1.00  0.00     0.057 C 
BRANCH   6  12
HETATM   12  C12 UNK     1      -3.623  -1.020  -0.448  1.00  0.00     0.252 C 
HETATM   13  O3  UNK     1      -4.186   0.017  -0.845  1.00  0.00    -0.268 OA
HETATM   14  N2  UNK     1      -3.514  -2.112  -1.305  1.00  0.00    -0.366 N 
HETATM   15  H13 UNK     1      -3.056  -2.974  -1.026  1.00  0.00     0.159 HD
HETATM   16  H14 UNK     1      -3.895  -2.077  -2.245  1.00  0.00     0.159 HD
ENDBRANCH   6  12
ENDBRANCH   2   5
BRANCH   3  17
HETATM   17  C6  UNK     1       1.324   0.544  -0.436  1.00  0.00     0.108 A 
HETATM   18  C10 UNK     1       2.287   1.425  -0.142  1.00  0.00     0.037 A 
HETATM   19  C7  UNK     1       3.111   1.991  -1.198  1.00  0.00    -0.001 A 
HETATM   20  C11 UNK     1       2.879   1.603  -2.514  1.00  0.00     0.089 A 
HETATM   21  C14 UNK     1       4.128   2.913  -0.937  1.00  0.00     0.014 A 
HETATM   22  O1  UNK     1       1.863   0.675  -2.817  1.00  0.00    -0.274 OA
HETATM   23  C15 UNK     1       3.632   2.108  -3.572  1.00  0.00     0.038 A 
HETATM   24  C13 UNK     1       1.059   0.116  -1.828  1.00  0.00     0.304 A 
HETATM   25  O4  UNK     1       0.177  -0.690  -2.102  1.00  0.00    -0.259 OA
HETATM   26  C17 UNK     1       4.643   3.027  -3.303  1.00  0.00     0.003 A 
HETATM   27  C16 UNK     1       4.891   3.429  -1.989  1.00  0.00     0.001 A 
ENDBRANCH   3  17
TORSDOF 3
