REMARK  8 active torsions:
REMARK  status: ('A' for Active; 'I' for Inactive)
REMARK    1  A    between atoms: C1_7  and  O1_2 
REMARK    2  A    between atoms: C2_8  and  O1_2 
REMARK    3  A    between atoms: C5_11  and  O2_3 
REMARK    4  A    between atoms: C21_27  and  O3_4 
REMARK    5  A    between atoms: C2_8  and  C3_9 
REMARK    6  A    between atoms: C4_10  and  C9_15 
REMARK    7  A    between atoms: C12_18  and  C14_20 
REMARK    8  A    between atoms: C13_19  and  C21_27 
ROOT
HETATM    1  N1  UNK     1      -4.459  -2.098   5.407  1.00  0.00    -0.191 NA
HETATM    2  C9  UNK     1      -2.120  -0.774   3.247  1.00  0.00     0.035 C 
HETATM    3  C12 UNK     1      -3.294  -1.456   3.173  1.00  0.00     0.055 C 
HETATM    4  C24 UNK     1      -3.932  -1.807   4.415  1.00  0.00     0.100 C 
ENDROOT
BRANCH   3   5
HETATM    5  C14 UNK     1      -3.931  -1.838   1.923  1.00  0.00    -0.015 A 
HETATM    6  C17 UNK     1      -4.838  -0.973   1.310  1.00  0.00     0.014 A 
HETATM    7  C19 UNK     1      -5.450  -1.340   0.111  1.00  0.00     0.024 A 
HETATM    8  C22 UNK     1      -5.154  -2.570  -0.475  1.00  0.00     0.034 A 
HETATM    9  C20 UNK     1      -4.247  -3.435   0.138  1.00  0.00     0.024 A 
HETATM   10 Cl1  UNK     1      -5.908  -3.022  -1.954  1.00  0.00    -0.084 Cl
HETATM   11  C18 UNK     1      -3.635  -3.069   1.337  1.00  0.00     0.014 A 
ENDBRANCH   3   5
BRANCH   2  12
HETATM   12  C4  UNK     1      -1.305  -0.345   2.102  1.00  0.00    -0.032 A 
HETATM   13  C6  UNK     1      -0.314  -1.186   1.616  1.00  0.00     0.051 A 
HETATM   14  C5  UNK     1       0.459  -0.779   0.529  1.00  0.00     0.102 A 
HETATM   15  C1  UNK     1       0.234   0.465  -0.060  1.00  0.00     0.102 A 
HETATM   16  C7  UNK     1      -0.765   1.302   0.438  1.00  0.00     0.040 A 
HETATM   17  C8  UNK     1      -1.539   0.895   1.525  1.00  0.00     0.014 A 
BRANCH  14  18
HETATM   18  O2  UNK     1       1.432  -1.604   0.052  1.00  0.00    -0.353 OA
HETATM   19  C23 UNK     1       2.733  -1.469   0.620  1.00  0.00     0.210 C 
ENDBRANCH  14  18
BRANCH  15  20
HETATM   20  O1  UNK     1       0.982   0.875  -1.122  1.00  0.00    -0.344 OA
BRANCH  20  21
HETATM   21  C2  UNK     1       1.194   2.278  -1.264  1.00  0.00     0.214 C 
BRANCH  21  22
HETATM   22  C3  UNK     1       2.504   2.508  -1.959  1.00  0.00    -0.034 A 
HETATM   23  C10 UNK     1       3.667   2.636  -1.209  1.00  0.00     0.010 A 
HETATM   24  C15 UNK     1       4.885   2.849  -1.855  1.00  0.00     0.019 A 
HETATM   25  C13 UNK     1       4.931   2.932  -3.246  1.00  0.00     0.037 A 
HETATM   26  C16 UNK     1       3.760   2.802  -3.992  1.00  0.00     0.019 A 
HETATM   27  C11 UNK     1       2.542   2.590  -3.346  1.00  0.00     0.010 A 
BRANCH  25  28
HETATM   28  C21 UNK     1       6.201   3.155  -3.920  1.00  0.00     0.176 C 
HETATM   29  O4  UNK     1       7.295   3.285  -3.361  1.00  0.00    -0.646 OA
BRANCH  28  30
HETATM   30  O3  UNK     1       6.069   3.209  -5.274  1.00  0.00    -0.773 OA
HETATM   31  H18 UNK     1       6.930   3.359  -5.719  1.00  0.00     0.167 HD
ENDBRANCH  28  30
ENDBRANCH  25  28
ENDBRANCH  21  22
ENDBRANCH  20  21
ENDBRANCH  15  20
ENDBRANCH   2  12
TORSDOF 8
