REMARK  6 active torsions:
REMARK  status: ('A' for Active; 'I' for Inactive)
REMARK    1  A    between atoms: C1_8  and  O1_5 
REMARK    2  A    between atoms: C4_11  and  O1_5 
REMARK    3  A    between atoms: C3_10  and  O2_6 
REMARK    4  A    between atoms: C2_9  and  C9_16 
REMARK    5  A    between atoms: C4_11  and  C6_13 
REMARK    6  A    between atoms: C10_17  and  C11_18 
ROOT
HETATM    1  N1  UNK     1       0.366   3.128  -1.615  1.00  0.00    -0.191 NA
HETATM    2  C9  UNK     1       2.573   0.485  -1.421  1.00  0.00     0.036 C 
HETATM    3  C10 UNK     1       2.539   1.738  -1.947  1.00  0.00     0.055 C 
HETATM    4  C23 UNK     1       1.332   2.500  -1.759  1.00  0.00     0.100 C 
ENDROOT
BRANCH   3   5
HETATM    5  C11 UNK     1       3.645   2.342  -2.674  1.00  0.00    -0.014 A 
HETATM    6  C16 UNK     1       4.616   3.072  -1.988  1.00  0.00     0.036 A 
HETATM    7  C19 UNK     1       5.677   3.649  -2.685  1.00  0.00     0.034 A 
HETATM    8 Cl3  UNK     1       6.875   4.550  -1.839  1.00  0.00    -0.084 Cl
HETATM    9  C21 UNK     1       5.767   3.498  -4.069  1.00  0.00     0.024 A 
HETATM   10  C20 UNK     1       4.796   2.768  -4.755  1.00  0.00     0.003 A 
HETATM   11  C17 UNK     1       3.735   2.190  -4.057  1.00  0.00     0.013 A 
ENDBRANCH   3   5
BRANCH   2  12
HETATM   12  C2  UNK     1       1.483  -0.161  -0.675  1.00  0.00    -0.015 A 
HETATM   13  C5  UNK     1       0.555  -0.887  -1.412  1.00  0.00     0.052 A 
HETATM   14  C3  UNK     1      -0.500  -1.521  -0.756  1.00  0.00     0.102 A 
HETATM   15  C1  UNK     1      -0.618  -1.424   0.631  1.00  0.00     0.103 A 
HETATM   16  C7  UNK     1       0.319  -0.693   1.361  1.00  0.00     0.059 A 
HETATM   17  C8  UNK     1       1.374  -0.059   0.705  1.00  0.00     0.024 A 
HETATM   18 Br1  UNK     1       2.615   0.920   1.760  1.00  0.00    -0.050 Br
BRANCH  14  19
HETATM   19  O2  UNK     1      -1.409  -2.231  -1.480  1.00  0.00    -0.353 OA
HETATM   20  C22 UNK     1      -2.552  -1.525  -1.957  1.00  0.00     0.210 C 
ENDBRANCH  14  19
BRANCH  15  21
HETATM   21  O1  UNK     1      -1.644  -2.039   1.283  1.00  0.00    -0.344 OA
BRANCH  21  22
HETATM   22  C4  UNK     1      -2.107  -1.427   2.485  1.00  0.00     0.216 C 
BRANCH  22  23
HETATM   23  C6  UNK     1      -3.560  -1.752   2.673  1.00  0.00    -0.012 A 
HETATM   24  C12 UNK     1      -4.559  -0.935   2.153  1.00  0.00     0.044 A 
HETATM   25 Cl1  UNK     1      -4.183   0.498   1.267  1.00  0.00    -0.084 Cl
HETATM   26  C14 UNK     1      -5.899  -1.270   2.348  1.00  0.00     0.048 A 
HETATM   27  C18 UNK     1      -6.234  -2.421   3.061  1.00  0.00     0.035 A 
HETATM   28  C15 UNK     1      -5.228  -3.237   3.579  1.00  0.00     0.024 A 
HETATM   29 Cl2  UNK     1      -7.887  -2.836   3.301  1.00  0.00    -0.084 Cl
HETATM   30  C13 UNK     1      -3.889  -2.902   3.385  1.00  0.00     0.013 A 
ENDBRANCH  22  23
ENDBRANCH  21  22
ENDBRANCH  15  21
ENDBRANCH   2  12
TORSDOF 6
