REMARK  4 active torsions:
REMARK  status: ('A' for Active; 'I' for Inactive)
REMARK    1  A    between atoms: C9_15  and  N1_5 
REMARK    2  A    between atoms: C10_16  and  N2_6 
REMARK    3  A    between atoms: C1_7  and  C3_9 
REMARK    4  A    between atoms: C2_8  and  C4_10 
ROOT
HETATM    1  C3  UNK     1       0.488   0.395   0.069  1.00  0.00     0.012 C 
HETATM    2  C4  UNK     1      -0.671  -0.087  -0.442  1.00  0.00     0.012 C 
ENDROOT
BRANCH   1   3
HETATM    3  C1  UNK     1       1.566   0.975  -0.716  1.00  0.00    -0.036 A 
HETATM    4  C5  UNK     1       1.660   0.703  -2.081  1.00  0.00     0.014 A 
HETATM    5  C11 UNK     1       2.693   1.262  -2.834  1.00  0.00     0.037 A 
HETATM    6  C9  UNK     1       3.632   2.092  -2.222  1.00  0.00     0.102 A 
HETATM    7  C13 UNK     1       3.538   2.363  -0.857  1.00  0.00     0.037 A 
HETATM    8  C7  UNK     1       2.505   1.805  -0.104  1.00  0.00     0.014 A 
BRANCH   6   9
HETATM    9  N1  UNK     1       4.685   2.660  -2.987  1.00  0.00    -0.116 N 
HETATM   10  O1  UNK     1       4.752   2.403  -4.213  1.00  0.00    -0.532 OA
HETATM   11  O3  UNK     1       5.518   3.404  -2.417  1.00  0.00    -0.532 OA
ENDBRANCH   6   9
ENDBRANCH   1   3
BRANCH   2  12
HETATM   12  C2  UNK     1      -1.713  -0.678   0.346  1.00  0.00    -0.036 A 
HETATM   13  C6  UNK     1      -1.447  -1.175   1.633  1.00  0.00     0.014 A 
HETATM   14  C12 UNK     1      -2.462  -1.748   2.400  1.00  0.00     0.037 A 
HETATM   15  C10 UNK     1      -3.758  -1.833   1.890  1.00  0.00     0.102 A 
HETATM   16  C14 UNK     1      -4.039  -1.344   0.614  1.00  0.00     0.037 A 
HETATM   17  C8  UNK     1      -3.024  -0.772  -0.152  1.00  0.00     0.014 A 
BRANCH  15  18
HETATM   18  N2  UNK     1      -4.791  -2.416   2.670  1.00  0.00    -0.116 N 
HETATM   19  O2  UNK     1      -4.518  -2.850   3.815  1.00  0.00    -0.532 OA
HETATM   20  O4  UNK     1      -5.950  -2.482   2.192  1.00  0.00    -0.532 OA
ENDBRANCH  15  18
ENDBRANCH   2  12
TORSDOF 4
