REMARK  3 active torsions:
REMARK  status: ('A' for Active; 'I' for Inactive)
REMARK    1  A    between atoms: C6_10  and  O2_2 
REMARK    2  A    between atoms: C15_19  and  O4_4 
REMARK    3  A    between atoms: C3_7  and  C4_8 
ROOT
HETATM    1  O1  UNK     1      -0.378  -0.007  -1.074  1.00  0.00    -0.309 OA
HETATM    2  O3  UNK     1       2.441   2.350   0.686  1.00  0.00    -0.287 OA
HETATM    3  C1  UNK     1       1.646   1.319  -1.286  1.00  0.00     0.081 A 
HETATM    4  C2  UNK     1       0.648   0.508  -1.824  1.00  0.00     0.093 A 
HETATM    5  C3  UNK     1      -0.418   0.288   0.281  1.00  0.00     0.090 A 
HETATM    6  C5  UNK     1       1.601   1.642   0.148  1.00  0.00     0.190 A 
HETATM    7  C6  UNK     1       2.667   1.816  -2.099  1.00  0.00     0.085 A 
HETATM    8  C7  UNK     1       0.479   1.061   0.913  1.00  0.00     0.094 A 
HETATM    9  C8  UNK     1       0.667   0.187  -3.182  1.00  0.00     0.038 A 
HETATM   10  C9  UNK     1       2.683   1.494  -3.457  1.00  0.00     0.038 A 
HETATM   11  C12 UNK     1       1.685   0.681  -3.997  1.00  0.00     0.006 A 
ENDROOT
BRANCH   5  12
HETATM   12  C4  UNK     1      -1.565  -0.311   0.991  1.00  0.00    -0.002 A 
HETATM   13  C10 UNK     1      -2.125   0.338   2.095  1.00  0.00     0.017 A 
HETATM   14  C13 UNK     1      -3.208  -0.229   2.766  1.00  0.00     0.037 A 
HETATM   15  C15 UNK     1      -3.735  -1.447   2.337  1.00  0.00     0.068 A 
HETATM   16  C14 UNK     1      -3.180  -2.098   1.236  1.00  0.00     0.037 A 
HETATM   17  C11 UNK     1      -2.096  -1.531   0.564  1.00  0.00     0.017 A 
BRANCH  15  18
HETATM   18  O4  UNK     1      -4.792  -1.999   2.992  1.00  0.00    -0.356 OA
HETATM   19  C17 UNK     1      -5.282  -3.246   2.500  1.00  0.00     0.210 C 
ENDBRANCH  15  18
ENDBRANCH   5  12
BRANCH   7  20
HETATM   20  O2  UNK     1       3.664   2.612  -1.621  1.00  0.00    -0.355 OA
HETATM   21  C16 UNK     1       3.437   4.020  -1.646  1.00  0.00     0.210 C 
ENDBRANCH   7  20
TORSDOF 3
