REMARK  2 active torsions:
REMARK  status: ('A' for Active; 'I' for Inactive)
REMARK    1  A    between atoms: C16_19  and  O3_3 
REMARK    2  A    between atoms: C4_7  and  C5_8 
ROOT
HETATM    1  O1  UNK     1      -0.685   0.432   0.709  1.00  0.00    -0.308 OA
HETATM    2  O2  UNK     1      -2.683  -2.585  -1.162  1.00  0.00    -0.287 OA
HETATM    3  C1  UNK     1      -1.706  -0.217   1.357  1.00  0.00     0.096 A 
HETATM    4  C2  UNK     1      -2.429  -1.257   0.776  1.00  0.00     0.048 A 
HETATM    5  C3  UNK     1      -2.010   0.206   2.651  1.00  0.00    -0.027 A 
HETATM    6  C4  UNK     1      -0.356   0.028  -0.575  1.00  0.00     0.090 A 
HETATM    7  C6  UNK     1      -2.088  -1.682  -0.590  1.00  0.00     0.187 A 
HETATM    8  C7  UNK     1      -0.981  -0.954  -1.243  1.00  0.00     0.093 A 
HETATM    9  C8  UNK     1      -3.459  -1.882   1.483  1.00  0.00     0.018 A 
HETATM   10  C9  UNK     1      -3.037  -0.416   3.361  1.00  0.00     0.009 A 
HETATM   11  C10 UNK     1      -3.760  -1.457   2.778  1.00  0.00     0.002 A 
HETATM   12  C11 UNK     1      -1.251   1.317   3.300  1.00  0.00     0.051 C 
ENDROOT
BRANCH   6  13
HETATM   13  C5  UNK     1       0.751   0.796  -1.180  1.00  0.00    -0.002 A 
HETATM   14  C12 UNK     1       0.793   0.997  -2.562  1.00  0.00     0.017 A 
HETATM   15  C14 UNK     1       1.839   1.722  -3.133  1.00  0.00     0.037 A 
HETATM   16  C16 UNK     1       2.847   2.248  -2.324  1.00  0.00     0.068 A 
HETATM   17  C15 UNK     1       2.808   2.049  -0.944  1.00  0.00     0.037 A 
HETATM   18  C13 UNK     1       1.762   1.324  -0.373  1.00  0.00     0.017 A 
BRANCH  16  19
HETATM   19  O3  UNK     1       3.866   2.957  -2.882  1.00  0.00    -0.356 OA
HETATM   20  C17 UNK     1       4.863   3.466  -1.997  1.00  0.00     0.210 C 
ENDBRANCH  16  19
ENDBRANCH   6  13
TORSDOF 2
