REMARK  3 active torsions:
REMARK  status: ('A' for Active; 'I' for Inactive)
REMARK    1  A    between atoms: C15_19  and  O4_4 
REMARK    2  A    between atoms: C3_7  and  C8_12 
REMARK    3  A    between atoms: C10_14  and  C8_12 
ROOT
HETATM    1  O1  UNK     1      -1.094  -2.489  -0.236  1.00  0.00    -0.321 OA
HETATM    2  O2  UNK     1      -1.822   1.514   0.102  1.00  0.00    -0.286 OA
HETATM    3  C1  UNK     1      -2.163  -0.661   0.957  1.00  0.00     0.049 A 
HETATM    4  C2  UNK     1      -1.877  -2.017   0.788  1.00  0.00     0.089 A 
HETATM    5  C3  UNK     1      -0.766  -0.247  -1.080  1.00  0.00     0.088 A 
HETATM    6  C4  UNK     1      -1.605   0.314   0.002  1.00  0.00     0.201 A 
HETATM    7  C5  UNK     1      -2.966  -0.237   2.019  1.00  0.00     0.025 A 
HETATM    8  C6  UNK     1      -3.482  -1.180   2.910  1.00  0.00    -0.061 A 
HETATM    9  C7  UNK     1      -2.395  -2.956   1.680  1.00  0.00     0.039 A 
HETATM   10  C9  UNK     1      -3.197  -2.536   2.741  1.00  0.00     0.009 A 
HETATM   11  C11 UNK     1      -0.578  -1.570  -1.119  1.00  0.00     0.162 A 
HETATM   12  C12 UNK     1      -4.341  -0.737   4.046  1.00  0.00     0.048 C 
ENDROOT
BRANCH   5  13
HETATM   13  C8  UNK     1      -0.130   0.567  -2.116  1.00  0.00     0.198 C 
HETATM   14  O3  UNK     1      -0.724   0.828  -3.163  1.00  0.00    -0.286 OA
BRANCH  13  15
HETATM   15  C10 UNK     1       1.239   1.100  -1.884  1.00  0.00     0.015 A 
HETATM   16  C14 UNK     1       1.830   1.865  -2.867  1.00  0.00     0.018 A 
HETATM   17  C17 UNK     1       3.114   2.364  -2.649  1.00  0.00     0.037 A 
HETATM   18  C15 UNK     1       3.777   2.086  -1.454  1.00  0.00     0.068 A 
HETATM   19  C16 UNK     1       3.156   1.309  -0.476  1.00  0.00     0.037 A 
HETATM   20  C13 UNK     1       1.871   0.810  -0.694  1.00  0.00     0.018 A 
BRANCH  18  21
HETATM   21  O4  UNK     1       5.031   2.571  -1.242  1.00  0.00    -0.356 OA
HETATM   22  C18 UNK     1       5.651   2.248   0.001  1.00  0.00     0.210 C 
ENDBRANCH  18  21
ENDBRANCH  13  15
ENDBRANCH   5  13
TORSDOF 3
