REMARK  4 active torsions:
REMARK  status: ('A' for Active; 'I' for Inactive)
REMARK    1  A    between atoms: C4_13  and  O1_1 
REMARK    2  A    between atoms: C8_17  and  O1_1 
REMARK    3  A    between atoms: C3_12  and  N1_5 
REMARK       I    between atoms: C17_26  and  N5_9 
REMARK    4  A    between atoms: C12_21  and  C17_26 
ROOT
HETATM    1  N1  UNK     1       2.045   0.936   0.613  1.00  0.00    -0.202 N 
HETATM    2  N2  UNK     1       2.837   0.949   1.694  1.00  0.00     0.004 NA
HETATM    3  N3  UNK     1       0.779   0.305   2.257  1.00  0.00    -0.116 NA
HETATM    4  N4  UNK     1       2.057   0.563   2.696  1.00  0.00     0.020 NA
HETATM    5  C8  UNK     1       0.817   0.545   0.985  1.00  0.00     0.286 A 
ENDROOT
BRANCH   5   6
HETATM    6  O1  UNK     1      -0.227   0.424   0.135  1.00  0.00    -0.276 OA
BRANCH   6   7
HETATM    7  C4  UNK     1      -1.460   0.023   0.551  1.00  0.00     0.082 A 
HETATM    8  C5  UNK     1      -1.788  -1.331   0.556  1.00  0.00     0.075 A 
HETATM    9  C2  UNK     1      -3.056  -1.717   0.986  1.00  0.00     0.092 A 
HETATM   10  C1  UNK     1      -4.000  -0.786   1.411  1.00  0.00    -0.002 A 
HETATM   11  O2  UNK     1      -3.358  -3.094   0.978  1.00  0.00    -0.275 OA
HETATM   12  C6  UNK     1      -3.663   0.569   1.403  1.00  0.00     0.017 A 
HETATM   13  C11 UNK     1      -5.303  -1.259   1.846  1.00  0.00     0.020 A 
HETATM   14  C7  UNK     1      -2.395   0.971   0.973  1.00  0.00     0.038 A 
HETATM   15  C15 UNK     1      -5.582  -2.565   1.836  1.00  0.00     0.083 A 
HETATM   16  C16 UNK     1      -4.599  -3.570   1.390  1.00  0.00     0.288 A 
HETATM   17  O3  UNK     1      -4.870  -4.766   1.387  1.00  0.00    -0.260 OA
ENDBRANCH   6   7
ENDBRANCH   5   6
BRANCH   1  18
HETATM   18  C3  UNK     1       2.514   1.287  -0.645  1.00  0.00     0.058 A 
HETATM   19  C10 UNK     1       3.849   1.063  -0.973  1.00  0.00     0.032 A 
HETATM   20  C14 UNK     1       4.321   1.417  -2.237  1.00  0.00     0.019 A 
HETATM   21  C12 UNK     1       3.456   1.992  -3.169  1.00  0.00     0.032 A 
HETATM   22  C13 UNK     1       2.120   2.213  -2.836  1.00  0.00     0.019 A 
HETATM   23  C9  UNK     1       1.648   1.860  -1.572  1.00  0.00     0.032 A 
BRANCH  21  24
HETATM   24  C17 UNK     1       3.948   2.361  -4.486  1.00  0.00     0.249 C 
HETATM   25  O4  UNK     1       5.130   2.160  -4.817  1.00  0.00    -0.268 OA
HETATM   26  N5  UNK     1       3.045   2.932  -5.378  1.00  0.00    -0.366 N 
HETATM   27  H10 UNK     1       2.069   3.125  -5.195  1.00  0.00     0.159 HD
HETATM   28  H11 UNK     1       3.362   3.192  -6.307  1.00  0.00     0.159 HD
ENDBRANCH  21  24
ENDBRANCH   1  18
TORSDOF 4
