REMARK  3 active torsions:
REMARK  status: ('A' for Active; 'I' for Inactive)
REMARK       I    between atoms: C11_15  and  N1_4 
REMARK    1  A    between atoms: C4_8  and  N1_4 
REMARK    2  A    between atoms: C11_15  and  C13_17 
REMARK    3  A    between atoms: C12_16  and  C14_18 
ROOT
HETATM    1  O1  UNK     1      -3.802  -1.555   0.099  1.00  0.00    -0.275 OA
HETATM    2  O2  UNK     1      -5.897  -2.450  -0.106  1.00  0.00    -0.260 OA
HETATM    3  C1  UNK     1      -2.755  -1.459   2.304  1.00  0.00     0.004 A 
HETATM    4  C2  UNK     1      -2.718  -1.213   0.931  1.00  0.00     0.092 A 
HETATM    5  C3  UNK     1      -3.956  -2.087   2.874  1.00  0.00    -0.043 A 
HETATM    6  C4  UNK     1      -0.515  -0.262   1.079  1.00  0.00     0.037 A 
HETATM    7  C5  UNK     1      -1.636  -1.090   3.062  1.00  0.00     0.017 A 
HETATM    8  C6  UNK     1      -1.616  -0.621   0.310  1.00  0.00     0.067 A 
HETATM    9  C7  UNK     1      -0.525  -0.496   2.453  1.00  0.00     0.030 A 
HETATM   10  C8  UNK     1      -4.972  -2.401   2.059  1.00  0.00     0.090 A 
HETATM   11  C9  UNK     1      -4.027  -2.365   4.347  1.00  0.00     0.049 C 
HETATM   12  C10 UNK     1      -4.947  -2.148   0.608  1.00  0.00     0.288 A 
ENDROOT
BRANCH   6  13
HETATM   13  N1  UNK     1       0.596   0.330   0.479  1.00  0.00    -0.324 N 
HETATM   14  C11 UNK     1       0.784   0.640  -0.876  1.00  0.00     0.245 C 
HETATM   15  O3  UNK     1      -0.005   0.446  -1.793  1.00  0.00    -0.268 OA
HETATM   16  H8  UNK     1       1.354   0.559   1.119  1.00  0.00     0.169 HD
BRANCH  14  17
HETATM   17  C13 UNK     1       2.118   1.270  -1.118  1.00  0.00     0.075 C 
HETATM   18  C14 UNK     1       2.478   1.623  -2.361  1.00  0.00     0.017 C 
BRANCH  18  19
HETATM   19  C12 UNK     1       3.769   2.241  -2.713  1.00  0.00    -0.036 A 
HETATM   20  C15 UNK     1       4.514   2.866  -1.726  1.00  0.00     0.011 A 
HETATM   21  C17 UNK     1       5.736   3.451  -2.060  1.00  0.00     0.001 A 
HETATM   22  C19 UNK     1       6.195   3.403  -3.375  1.00  0.00     0.000 A 
HETATM   23  C18 UNK     1       5.434   2.771  -4.358  1.00  0.00     0.001 A 
HETATM   24  C16 UNK     1       4.212   2.186  -4.025  1.00  0.00     0.011 A 
ENDBRANCH  18  19
ENDBRANCH  14  17
ENDBRANCH   6  13
TORSDOF 3
