REMARK  1 active torsions:
REMARK  status: ('A' for Active; 'I' for Inactive)
REMARK    1  A    between atoms: C12_19  and  N1_7 
ROOT
HETATM    1 Cl1  UNK     1       0.261   0.910  -5.197  1.00  0.00    -0.084 Cl
HETATM    2  O1  UNK     1      -0.816   1.045   0.670  1.00  0.00    -0.309 OA
HETATM    3  O2  UNK     1       4.004   1.932  -0.760  1.00  0.00    -0.275 OA
HETATM    4  O3  UNK     1       4.504   1.881   1.470  1.00  0.00    -0.260 OA
HETATM    5  C1  UNK     1       1.470   0.820  -0.111  1.00  0.00     0.017 A 
HETATM    6  C2  UNK     1       0.246   0.268   0.325  1.00  0.00     0.088 A 
HETATM    7  C3  UNK     1      -1.406  -1.120   0.930  1.00  0.00     0.003 A 
HETATM    8  C4  UNK     1       1.826   1.126  -1.507  1.00  0.00     0.013 A 
HETATM    9  C5  UNK     1      -1.822   0.203   1.039  1.00  0.00     0.086 A 
HETATM   10  C6  UNK     1      -0.065  -1.066   0.467  1.00  0.00     0.052 A 
HETATM   11  C7  UNK     1       3.078   1.671  -1.787  1.00  0.00     0.090 A 
HETATM   12  C8  UNK     1      -2.313  -2.139   1.270  1.00  0.00     0.050 A 
HETATM   13  C9  UNK     1       2.378   1.082   0.845  1.00  0.00     0.097 A 
HETATM   14  C10 UNK     1      -3.091   0.591   1.465  1.00  0.00     0.040 A 
HETATM   15  C11 UNK     1       0.957   0.894  -2.583  1.00  0.00     0.039 A 
HETATM   16  C12 UNK     1      -3.597  -1.779   1.703  1.00  0.00     0.103 A 
HETATM   17  C13 UNK     1      -3.977  -0.438   1.797  1.00  0.00     0.039 A 
HETATM   18  C14 UNK     1       3.478   1.984  -3.087  1.00  0.00     0.040 A 
HETATM   19  C15 UNK     1       3.706   1.658   0.566  1.00  0.00     0.289 A 
HETATM   20  C16 UNK     1       1.344   1.203  -3.891  1.00  0.00     0.035 A 
HETATM   21  C17 UNK     1       2.603   1.747  -4.142  1.00  0.00     0.026 A 
ENDROOT
BRANCH  16  22
HETATM   22  N1  UNK     1      -4.526  -2.797   2.049  1.00  0.00    -0.116 N 
HETATM   23  O4  UNK     1      -5.673  -2.466   2.434  1.00  0.00    -0.532 OA
HETATM   24  O5  UNK     1      -4.173  -3.997   1.960  1.00  0.00    -0.532 OA
ENDBRANCH  16  22
TORSDOF 1
