REMARK  7 active torsions:
REMARK  status: ('A' for Active; 'I' for Inactive)
REMARK    1  A    between atoms: C17_23  and  O1_3 
REMARK    2  A    between atoms: C4_10  and  O1_3 
REMARK    3  A    between atoms: C3_9  and  O2_4 
REMARK    4  A    between atoms: C1_7  and  C8_14 
REMARK    5  A    between atoms: C2_8  and  C7_13 
REMARK    6  A    between atoms: C12_18  and  C8_14 
REMARK    7  A    between atoms: C16_22  and  C17_23 
ROOT
HETATM    1  C1  UNK     1      -0.470  -1.123  -0.755  1.00  0.00     0.014 A 
HETATM    2  C4  UNK     1       1.698   0.390  -1.645  1.00  0.00     0.079 A 
HETATM    3  C5  UNK     1      -0.221  -0.998  -2.121  1.00  0.00     0.018 A 
HETATM    4  C6  UNK     1       0.365  -0.491   0.167  1.00  0.00     0.018 A 
HETATM    5  C9  UNK     1       0.863  -0.242  -2.566  1.00  0.00     0.038 A 
HETATM    6  C10 UNK     1       1.449   0.265  -0.278  1.00  0.00     0.038 A 
ENDROOT
BRANCH   1   7
HETATM    7  C8  UNK     1      -1.600  -1.912  -0.289  1.00  0.00     0.182 C 
HETATM    8  O3  UNK     1      -2.025  -2.868  -0.955  1.00  0.00    -0.288 OA
BRANCH   7   9
HETATM    9  C12 UNK     1      -2.265  -1.526   1.002  1.00  0.00     0.056 C 
HETATM   10  C7  UNK     1      -3.326  -2.208   1.455  1.00  0.00     0.018 C 
BRANCH  10  11
HETATM   11  C2  UNK     1      -4.051  -1.897   2.699  1.00  0.00    -0.001 A 
HETATM   12  C11 UNK     1      -3.342  -1.342   3.754  1.00  0.00     0.033 A 
HETATM   13  C14 UNK     1      -4.008  -1.039   4.942  1.00  0.00     0.011 A 
HETATM   14 Br1  UNK     1      -3.059  -0.280   6.390  1.00  0.00    -0.051 Br
HETATM   15  C15 UNK     1      -5.374  -1.294   5.061  1.00  0.00     0.022 A 
HETATM   16  C13 UNK     1      -6.075  -1.853   3.992  1.00  0.00     0.039 A 
HETATM   17  C3  UNK     1      -5.409  -2.156   2.804  1.00  0.00     0.078 A 
BRANCH  17  18
HETATM   18  O2  UNK     1      -6.118  -2.701   1.774  1.00  0.00    -0.355 OA
HETATM   19  C23 UNK     1      -6.710  -1.796   0.846  1.00  0.00     0.210 C 
ENDBRANCH  17  18
ENDBRANCH  10  11
ENDBRANCH   7   9
ENDBRANCH   1   7
BRANCH   2  20
HETATM   20  O1  UNK     1       2.757   1.126  -2.079  1.00  0.00    -0.275 OA
BRANCH  20  21
HETATM   21  C17 UNK     1       2.467   2.474  -2.303  1.00  0.00     0.298 C 
HETATM   22  O4  UNK     1       1.376   3.003  -2.153  1.00  0.00    -0.259 OA
BRANCH  21  23
HETATM   23  C16 UNK     1       3.668   3.210  -2.774  1.00  0.00     0.040 A 
HETATM   24  C18 UNK     1       3.502   4.287  -3.620  1.00  0.00     0.019 A 
HETATM   25  C20 UNK     1       4.631   4.977  -4.062  1.00  0.00     0.025 A 
HETATM   26  C22 UNK     1       5.901   4.575  -3.649  1.00  0.00     0.034 A 
HETATM   27  C21 UNK     1       6.042   3.483  -2.793  1.00  0.00     0.025 A 
HETATM   28 Cl1  UNK     1       7.293   5.427  -4.194  1.00  0.00    -0.084 Cl
HETATM   29  C19 UNK     1       4.914   2.793  -2.350  1.00  0.00     0.019 A 
ENDBRANCH  21  23
ENDBRANCH  20  21
ENDBRANCH   2  20
TORSDOF 7
