REMARK  2 active torsions:
REMARK  status: ('A' for Active; 'I' for Inactive)
REMARK    1  A    between atoms: C13_16  and  O3_3 
REMARK    2  A    between atoms: C2_5  and  C4_7 
ROOT
HETATM    1  O1  UNK     1      -0.242   0.477   0.728  1.00  0.00    -0.309 OA
HETATM    2  O2  UNK     1      -2.918  -1.844  -1.284  1.00  0.00    -0.287 OA
HETATM    3  C1  UNK     1      -2.248  -0.891   0.772  1.00  0.00     0.048 A 
HETATM    4  C2  UNK     1      -0.126   0.247  -0.635  1.00  0.00     0.090 A 
HETATM    5  C3  UNK     1      -1.296  -0.089   1.399  1.00  0.00     0.090 A 
HETATM    6  C5  UNK     1      -2.122  -1.146  -0.671  1.00  0.00     0.187 A 
HETATM    7  C6  UNK     1      -0.973  -0.512  -1.348  1.00  0.00     0.093 A 
HETATM    8  C7  UNK     1      -3.301  -1.443   1.506  1.00  0.00     0.018 A 
HETATM    9  C8  UNK     1      -1.391   0.167   2.767  1.00  0.00     0.038 A 
HETATM   10  C11 UNK     1      -3.394  -1.185   2.874  1.00  0.00     0.001 A 
HETATM   11  C12 UNK     1      -2.441  -0.382   3.503  1.00  0.00     0.003 A 
ENDROOT
BRANCH   4  12
HETATM   12  C4  UNK     1       1.045   0.898  -1.256  1.00  0.00     0.001 A 
HETATM   13  C10 UNK     1       1.673   0.310  -2.357  1.00  0.00     0.014 A 
HETATM   14  C14 UNK     1       2.779   0.925  -2.944  1.00  0.00     0.004 A 
HETATM   15  C15 UNK     1       3.260   2.130  -2.433  1.00  0.00     0.036 A 
HETATM   16  C13 UNK     1       2.636   2.721  -1.334  1.00  0.00     0.066 A 
HETATM   17  C9  UNK     1       1.530   2.106  -0.747  1.00  0.00     0.050 A 
BRANCH  16  18
HETATM   18  O3  UNK     1       3.105   3.898  -0.837  1.00  0.00    -0.361 OA
HETATM   19  H10 UNK     1       3.872   4.179  -1.365  1.00  0.00     0.217 HD
ENDBRANCH  16  18
ENDBRANCH   4  12
TORSDOF 2
