REMARK  3 active torsions:
REMARK  status: ('A' for Active; 'I' for Inactive)
REMARK    1  A    between atoms: C9_13  and  O3_3 
REMARK    2  A    between atoms: C10_14  and  O4_4 
REMARK    3  A    between atoms: C3_7  and  C4_8 
ROOT
HETATM    1  O1  UNK     1       0.011   0.721   0.604  1.00  0.00    -0.309 OA
HETATM    2  O2  UNK     1      -2.104  -1.970  -1.606  1.00  0.00    -0.287 OA
HETATM    3  C1  UNK     1      -1.833  -0.853   0.459  1.00  0.00     0.051 A 
HETATM    4  C2  UNK     1      -1.067   0.079   1.158  1.00  0.00     0.090 A 
HETATM    5  C3  UNK     1       0.357   0.423  -0.705  1.00  0.00     0.093 A 
HETATM    6  C5  UNK     1      -1.475  -1.165  -0.933  1.00  0.00     0.187 A 
HETATM    7  C6  UNK     1      -0.305  -0.449  -1.481  1.00  0.00     0.094 A 
HETATM    8  C7  UNK     1      -2.921  -1.477   1.074  1.00  0.00     0.054 A 
HETATM    9  C8  UNK     1      -1.387   0.393   2.479  1.00  0.00     0.041 A 
HETATM   10  C10 UNK     1      -3.238  -1.161   2.396  1.00  0.00     0.066 A 
HETATM   11  C12 UNK     1      -2.472  -0.228   3.097  1.00  0.00     0.039 A 
ENDROOT
BRANCH   5  12
HETATM   12  C4  UNK     1       1.527   1.174  -1.202  1.00  0.00     0.031 A 
HETATM   13  C11 UNK     1       2.804   0.625  -1.052  1.00  0.00     0.017 A 
HETATM   14  C14 UNK     1       3.924   1.316  -1.514  1.00  0.00     0.001 A 
HETATM   15  C15 UNK     1       3.773   2.559  -2.127  1.00  0.00     0.003 A 
HETATM   16  C13 UNK     1       2.501   3.112  -2.279  1.00  0.00     0.037 A 
HETATM   17  C9  UNK     1       1.381   2.421  -1.818  1.00  0.00     0.078 A 
BRANCH  17  18
HETATM   18  O3  UNK     1       0.149   2.984  -1.979  1.00  0.00    -0.360 OA
HETATM   19  H9  UNK     1       0.247   3.844  -2.423  1.00  0.00     0.217 HD
ENDBRANCH  17  18
ENDBRANCH   5  12
BRANCH  10  20
HETATM   20  O4  UNK     1      -4.296  -1.765   3.003  1.00  0.00    -0.361 OA
HETATM   21  H10 UNK     1      -4.712  -2.380   2.375  1.00  0.00     0.217 HD
ENDBRANCH  10  20
TORSDOF 3
