REMARK  3 active torsions:
REMARK  status: ('A' for Active; 'I' for Inactive)
REMARK    1  A    between atoms: C16_20  and  O2_2 
REMARK    2  A    between atoms: C8_12  and  O2_2 
REMARK    3  A    between atoms: C2_6  and  C4_8 
ROOT
HETATM    1  O1  UNK     1      -0.763   0.145  -2.676  1.00  0.00    -0.275 OA
HETATM    2  O3  UNK     1      -2.598  -1.017  -3.390  1.00  0.00    -0.260 OA
HETATM    3  C1  UNK     1      -0.292   0.268  -0.286  1.00  0.00     0.009 A 
HETATM    4  C2  UNK     1      -1.487  -0.548  -0.020  1.00  0.00    -0.007 A 
HETATM    5  C3  UNK     1       0.032   0.589  -1.603  1.00  0.00     0.093 A 
HETATM    6  C5  UNK     1       0.546   0.741   0.732  1.00  0.00     0.018 A 
HETATM    7  C6  UNK     1      -2.226  -0.954  -1.065  1.00  0.00     0.095 A 
HETATM    8  C7  UNK     1       1.151   1.359  -1.924  1.00  0.00     0.075 A 
HETATM    9  C8  UNK     1       1.972   1.823  -0.901  1.00  0.00     0.081 A 
HETATM   10  C9  UNK     1       1.671   1.514   0.425  1.00  0.00     0.038 A 
HETATM   11  C12 UNK     1      -1.896  -0.625  -2.464  1.00  0.00     0.289 A 
ENDROOT
BRANCH   4  12
HETATM   12  C4  UNK     1      -1.966  -0.970   1.293  1.00  0.00    -0.025 A 
HETATM   13  C10 UNK     1      -2.859  -0.167   1.997  1.00  0.00     0.012 A 
HETATM   14  C13 UNK     1      -3.317  -0.573   3.251  1.00  0.00     0.001 A 
HETATM   15  C15 UNK     1      -2.879  -1.780   3.796  1.00  0.00     0.000 A 
HETATM   16  C14 UNK     1      -1.984  -2.581   3.087  1.00  0.00     0.001 A 
HETATM   17  C11 UNK     1      -1.526  -2.175   1.834  1.00  0.00     0.012 A 
ENDBRANCH   4  12
BRANCH   9  18
HETATM   18  O2  UNK     1       3.067   2.576  -1.193  1.00  0.00    -0.279 OA
BRANCH  18  19
HETATM   19  C16 UNK     1       4.239   1.830  -1.403  1.00  0.00     0.260 C 
HETATM   20  O4  UNK     1       4.331   0.611  -1.340  1.00  0.00    -0.265 OA
HETATM   21  C17 UNK     1       5.383   2.747  -1.717  1.00  0.00     0.126 C 
ENDBRANCH  18  19
ENDBRANCH   9  18
TORSDOF 3
