REMARK  2 active torsions:
REMARK  status: ('A' for Active; 'I' for Inactive)
REMARK    1  A    between atoms: C10_15  and  O3_4 
REMARK    2  A    between atoms: C10_15  and  C4_9 
ROOT
HETATM    1 Br1  UNK     1       4.337   2.381  -0.929  1.00  0.00    -0.051 Br
HETATM    2  O1  UNK     1      -1.081  -0.266  -1.594  1.00  0.00    -0.274 OA
HETATM    3  O2  UNK     1      -2.928  -1.260  -0.688  1.00  0.00    -0.259 OA
HETATM    4  C1  UNK     1       0.704   0.505  -0.134  1.00  0.00     0.000 A 
HETATM    5  C2  UNK     1       0.175   0.345  -1.411  1.00  0.00     0.089 A 
HETATM    6  C3  UNK     1      -0.060   0.031   1.009  1.00  0.00     0.039 A 
HETATM    7  C4  UNK     1      -1.253  -0.549   0.829  1.00  0.00     0.114 A 
HETATM    8  C5  UNK     1       1.952   1.116   0.006  1.00  0.00     0.033 A 
HETATM    9  C6  UNK     1       0.855   0.779  -2.547  1.00  0.00     0.039 A 
HETATM   10  C7  UNK     1      -1.836  -0.729  -0.519  1.00  0.00     0.305 A 
HETATM   11  C8  UNK     1       2.647   1.556  -1.124  1.00  0.00     0.011 A 
HETATM   12  C9  UNK     1       2.100   1.387  -2.398  1.00  0.00     0.022 A 
ENDROOT
BRANCH   7  13
HETATM   13  C10 UNK     1      -1.947  -0.995   2.043  1.00  0.00     0.182 C 
HETATM   14  O4  UNK     1      -1.388  -1.362   3.059  1.00  0.00    -0.646 OA
BRANCH  13  15
HETATM   15  O3  UNK     1      -3.280  -0.931   1.848  1.00  0.00    -0.772 OA
HETATM   16  H5  UNK     1      -3.783  -1.222   2.639  1.00  0.00     0.167 HD
ENDBRANCH  13  15
ENDBRANCH   7  13
TORSDOF 2
