REMARK  3 active torsions:
REMARK  status: ('A' for Active; 'I' for Inactive)
REMARK    1  A    between atoms: C3_9  and  N1_6 
REMARK       I    between atoms: C6_12  and  N1_6 
REMARK    2  A    between atoms: C2_8  and  C6_12 
REMARK    3  A    between atoms: C3_9  and  C7_13 
ROOT
HETATM    1  O1  UNK     1       1.018   0.800  -2.626  1.00  0.00    -0.274 OA
HETATM    2  O4  UNK     1      -0.830  -0.261  -1.803  1.00  0.00    -0.259 OA
HETATM    3  C1  UNK     1       2.682   1.681  -1.088  1.00  0.00    -0.001 A 
HETATM    4  C2  UNK     1       0.724   0.557  -0.211  1.00  0.00     0.108 A 
HETATM    5  C4  UNK     1       2.233   1.472  -2.388  1.00  0.00     0.089 A 
HETATM    6  C5  UNK     1       1.877   1.195   0.022  1.00  0.00     0.037 A 
HETATM    7  C8  UNK     1       3.892   2.352  -0.892  1.00  0.00     0.014 A 
HETATM    8  C9  UNK     1       0.227   0.323  -1.586  1.00  0.00     0.304 A 
HETATM    9  C10 UNK     1       2.957   1.913  -3.494  1.00  0.00     0.038 A 
HETATM   10  C11 UNK     1       4.629   2.800  -1.992  1.00  0.00     0.001 A 
HETATM   11  C13 UNK     1       4.162   2.581  -3.290  1.00  0.00     0.003 A 
ENDROOT
BRANCH   4  12
HETATM   12  C6  UNK     1      -0.017   0.104   0.972  1.00  0.00     0.258 C 
HETATM   13  O3  UNK     1      -0.405   0.906   1.820  1.00  0.00    -0.267 OA
HETATM   14  N1  UNK     1      -0.203  -1.267   0.999  1.00  0.00    -0.351 N 
HETATM   15  H4  UNK     1       0.155  -1.835   0.236  1.00  0.00     0.163 HD
BRANCH  14  16
HETATM   16  C3  UNK     1      -0.902  -1.946   2.066  1.00  0.00     0.188 C 
BRANCH  16  17
HETATM   17  C7  UNK     1      -2.365  -2.075   1.740  1.00  0.00     0.072 A 
HETATM   18  C12 UNK     1      -3.103  -3.036   1.091  1.00  0.00     0.038 A 
HETATM   19  C14 UNK     1      -4.442  -2.579   1.103  1.00  0.00     0.048 A 
HETATM   20  C15 UNK     1      -4.427  -1.370   1.759  1.00  0.00     0.121 A 
HETATM   21 Br1  UNK     1      -5.946  -0.283   2.080  1.00  0.00    -0.023 Br
HETATM   22  O2  UNK     1      -3.164  -1.055   2.151  1.00  0.00    -0.306 OA
ENDBRANCH  16  17
ENDBRANCH  14  16
ENDBRANCH   4  12
TORSDOF 3
