REMARK  0 active torsions:
REMARK  status: ('A' for Active; 'I' for Inactive)
ROOT
HETATM    1  O1  UNK     1      -2.927  -1.185  -0.309  1.00  0.00    -0.321 OA
HETATM    2  O2  UNK     1       1.014   0.870  -2.189  1.00  0.00    -0.274 OA
HETATM    3  O3  UNK     1       2.908   1.849  -3.015  1.00  0.00    -0.260 OA
HETATM    4  C1  UNK     1      -1.234  -0.551   1.044  1.00  0.00     0.007 A 
HETATM    5  C2  UNK     1       0.805   0.496   0.218  1.00  0.00     0.005 A 
HETATM    6  C3  UNK     1      -1.691  -0.613  -0.267  1.00  0.00     0.094 A 
HETATM    7  C4  UNK     1      -0.973  -0.152  -1.365  1.00  0.00     0.008 A 
HETATM    8  C5  UNK     1       0.281   0.400  -1.075  1.00  0.00     0.099 A 
HETATM    9  C6  UNK     1       0.034   0.013   1.292  1.00  0.00     0.029 A 
HETATM   10  C7  UNK     1      -2.263  -1.123   1.839  1.00  0.00    -0.027 A 
HETATM   11  C8  UNK     1       2.136   1.098   0.393  1.00  0.00    -0.043 A 
HETATM   12  C9  UNK     1      -1.494  -0.234  -2.758  1.00  0.00     0.054 C 
HETATM   13  C10 UNK     1      -3.265  -1.490   0.971  1.00  0.00     0.150 A 
HETATM   14  C11 UNK     1       2.804   1.533  -0.684  1.00  0.00     0.090 A 
HETATM   15  C12 UNK     1      -2.267  -1.293   3.304  1.00  0.00     0.051 C 
HETATM   16  C13 UNK     1       2.729   1.218   1.768  1.00  0.00     0.049 C 
HETATM   17  C14 UNK     1       2.269   1.440  -2.052  1.00  0.00     0.288 A 
ENDROOT
TORSDOF 0
