REMARK  11 active torsions:
REMARK  status: ('A' for Active; 'I' for Inactive)
REMARK    1  A    between atoms: C2_9  and  O1_2 
REMARK    2  A    between atoms: C7_14  and  O1_2 
REMARK    3  A    between atoms: C17_24  and  O2_3 
REMARK    4  A    between atoms: C3_10  and  O2_3 
REMARK    5  A    between atoms: C11_18  and  O3_4 
REMARK    6  A    between atoms: C16_23  and  O3_4 
REMARK    7  A    between atoms: C14_21  and  O4_5 
REMARK    8  A    between atoms: C15_22  and  O5_6 
REMARK    9  A    between atoms: C1_8  and  C8_15 
REMARK   10  A    between atoms: C11_18  and  C7_14 
REMARK   11  A    between atoms: C10_17  and  C9_16 
ROOT
HETATM    1  N1  UNK     1      -3.533  -4.135   4.306  1.00  0.00    -0.191 NA
HETATM    2  C8  UNK     1      -1.092  -1.936   3.259  1.00  0.00     0.035 C 
HETATM    3  C10 UNK     1      -2.360  -2.282   2.909  1.00  0.00     0.055 C 
HETATM    4  C26 UNK     1      -3.001  -3.309   3.688  1.00  0.00     0.100 C 
ENDROOT
BRANCH   3   5
HETATM    5  C9  UNK     1      -3.091  -1.673   1.809  1.00  0.00    -0.013 A 
HETATM    6  C12 UNK     1      -3.544  -2.461   0.751  1.00  0.00     0.052 A 
HETATM    7  C14 UNK     1      -4.245  -1.877  -0.303  1.00  0.00     0.102 A 
HETATM    8  C15 UNK     1      -4.494  -0.504  -0.300  1.00  0.00     0.101 A 
HETATM    9  C18 UNK     1      -4.041   0.284   0.758  1.00  0.00     0.040 A 
HETATM   10  C13 UNK     1      -3.340  -0.300   1.813  1.00  0.00     0.016 A 
BRANCH   7  11
HETATM   11  O4  UNK     1      -4.681  -2.656  -1.332  1.00  0.00    -0.353 OA
HETATM   12  C27 UNK     1      -4.386  -4.049  -1.260  1.00  0.00     0.210 C 
ENDBRANCH   7  11
BRANCH   8  13
HETATM   13  O5  UNK     1      -5.180   0.078  -1.323  1.00  0.00    -0.353 OA
HETATM   14  C28 UNK     1      -5.391   1.486  -1.243  1.00  0.00     0.210 C 
ENDBRANCH   8  13
ENDBRANCH   3   5
BRANCH   2  15
HETATM   15  C1  UNK     1      -0.260  -0.932   2.580  1.00  0.00    -0.031 A 
HETATM   16  C4  UNK     1       0.073  -1.096   1.236  1.00  0.00     0.051 A 
HETATM   17  C3  UNK     1       0.863  -0.144   0.592  1.00  0.00     0.104 A 
HETATM   18  C2  UNK     1       1.319   0.973   1.292  1.00  0.00     0.119 A 
HETATM   19  C6  UNK     1       0.985   1.138   2.636  1.00  0.00     0.048 A 
HETATM   20 Br1  UNK     1       1.587   2.643   3.620  1.00  0.00    -0.048 Br
HETATM   21  C5  UNK     1       0.196   0.186   3.280  1.00  0.00     0.033 A 
BRANCH  17  22
HETATM   22  O2  UNK     1       1.181  -0.318  -0.722  1.00  0.00    -0.349 OA
BRANCH  22  23
HETATM   23  C17 UNK     1       0.239  -1.022  -1.529  1.00  0.00     0.171 C 
HETATM   24  C24 UNK     1       0.320  -0.504  -2.948  1.00  0.00     0.034 C 
ENDBRANCH  22  23
ENDBRANCH  17  22
BRANCH  18  25
HETATM   25  O1  UNK     1       2.090   1.893   0.643  1.00  0.00    -0.345 OA
BRANCH  25  26
HETATM   26  C7  UNK     1       1.410   2.967  -0.001  1.00  0.00     0.202 C 
BRANCH  26  27
HETATM   27  C11 UNK     1       2.231   3.432  -1.188  1.00  0.00     0.202 C 
BRANCH  27  28
HETATM   28  O3  UNK     1       2.409   2.342  -2.085  1.00  0.00    -0.349 OA
BRANCH  28  29
HETATM   29  C16 UNK     1       3.551   2.346  -2.842  1.00  0.00     0.068 A 
HETATM   30  C20 UNK     1       4.127   1.140  -3.242  1.00  0.00     0.037 A 
HETATM   31  C22 UNK     1       5.289   1.144  -4.013  1.00  0.00     0.009 A 
HETATM   32  C19 UNK     1       5.876   2.354  -4.384  1.00  0.00    -0.062 A 
HETATM   33  C23 UNK     1       5.300   3.560  -3.983  1.00  0.00     0.009 A 
HETATM   34  C25 UNK     1       7.119   2.359  -5.208  1.00  0.00     0.048 C 
HETATM   35  C21 UNK     1       4.138   3.556  -3.212  1.00  0.00     0.037 A 
ENDBRANCH  28  29
ENDBRANCH  27  28
ENDBRANCH  26  27
ENDBRANCH  25  26
ENDBRANCH  18  25
ENDBRANCH   2  15
TORSDOF 11
