REMARK  3 active torsions:
REMARK  status: ('A' for Active; 'I' for Inactive)
REMARK    1  A    between atoms: C6_11  and  N1_5 
REMARK    2  A    between atoms: C6_11  and  C9_14 
REMARK    3  A    between atoms: C14_19  and  C18_23 
ROOT
HETATM    1  O3  UNK     1      -3.800  -0.865  -0.712  1.00  0.00    -0.275 OA
HETATM    2  O4  UNK     1      -3.667  -0.778  -2.994  1.00  0.00    -0.260 OA
HETATM    3  C9  UNK     1      -0.986  -1.149  -0.658  1.00  0.00    -0.011 A 
HETATM    4  C10 UNK     1      -1.753  -1.128   0.594  1.00  0.00     0.007 A 
HETATM    5  C11 UNK     1      -1.640  -1.032  -1.822  1.00  0.00     0.092 A 
HETATM    6  C12 UNK     1      -3.140  -0.987   0.527  1.00  0.00     0.090 A 
HETATM    7  C13 UNK     1      -1.173  -1.241   1.865  1.00  0.00     0.022 A 
HETATM    8  C14 UNK     1      -1.965  -1.213   3.018  1.00  0.00    -0.058 A 
HETATM    9  C15 UNK     1      -3.103  -0.882  -1.910  1.00  0.00     0.288 A 
HETATM   10  C16 UNK     1      -3.943  -0.956   1.668  1.00  0.00     0.039 A 
HETATM   11  C17 UNK     1      -3.348  -1.071   2.920  1.00  0.00     0.010 A 
ENDROOT
BRANCH   3  12
HETATM   12  C6  UNK     1       0.496  -1.299  -0.620  1.00  0.00     0.312 C 
BRANCH  12  13
HETATM   13  N1  UNK     1       1.179  -0.007  -0.547  1.00  0.00     0.093 N 
HETATM   14  C4  UNK     1       0.846   0.818  -1.716  1.00  0.00     0.278 C 
HETATM   15  C2  UNK     1       1.513   2.193  -1.627  1.00  0.00     0.099 C 
HETATM   16  C1  UNK     1       3.029   2.079  -1.456  1.00  0.00     0.167 C 
HETATM   17  O1  UNK     1       3.583   3.375  -1.183  1.00  0.00    -0.353 OA
HETATM   18  O2  UNK     1       3.600   1.560  -2.670  1.00  0.00    -0.353 OA
HETATM   19  C3  UNK     1       3.354   1.142  -0.291  1.00  0.00     0.099 C 
HETATM   20  C7  UNK     1       4.250   3.746  -2.388  1.00  0.00     0.197 C 
HETATM   21  C8  UNK     1       4.696   2.427  -2.955  1.00  0.00     0.197 C 
HETATM   22  C5  UNK     1       2.631  -0.201  -0.425  1.00  0.00     0.278 C 
ENDBRANCH  12  13
ENDBRANCH   3  12
BRANCH   8  23
HETATM   23  C18 UNK     1      -1.325  -1.336   4.361  1.00  0.00     0.034 C 
HETATM   24  C19 UNK     1      -0.936   0.020   4.944  1.00  0.00     0.010 C 
ENDBRANCH   8  23
TORSDOF 3
