REMARK  4 active torsions:
REMARK  status: ('A' for Active; 'I' for Inactive)
REMARK    1  A    between atoms: C9_14  and  O3_3 
REMARK    2  A    between atoms: C16_21  and  O4_4 
REMARK    3  A    between atoms: C5_10  and  C6_11 
REMARK    4  A    between atoms: C13_18  and  C16_21 
ROOT
HETATM    1  O1  UNK     1       0.598   0.980  -0.422  1.00  0.00    -0.306 OA
HETATM    2  O2  UNK     1       0.912  -0.238  -3.732  1.00  0.00    -0.284 OA
HETATM    3  C1  UNK     1       1.954   1.342  -2.257  1.00  0.00     0.051 A 
HETATM    4  C2  UNK     1       1.663   1.683  -0.937  1.00  0.00     0.093 A 
HETATM    5  C3  UNK     1       0.169   0.141  -1.444  1.00  0.00     0.127 A 
HETATM    6  C4  UNK     1       0.998   0.319  -2.661  1.00  0.00     0.218 A 
HETATM    7  C5  UNK     1      -0.851  -0.712  -1.346  1.00  0.00     0.053 C 
HETATM    8  C7  UNK     1       2.983   1.927  -2.963  1.00  0.00     0.021 A 
HETATM    9  C8  UNK     1       2.400   2.634  -0.266  1.00  0.00     0.074 A 
HETATM   10  C9  UNK     1       3.451   3.243  -0.960  1.00  0.00     0.068 A 
HETATM   11  C10 UNK     1       3.739   2.893  -2.295  1.00  0.00     0.037 A 
ENDROOT
BRANCH   7  12
HETATM   12  C6  UNK     1      -1.657  -0.889  -0.173  1.00  0.00    -0.033 A 
HETATM   13  C11 UNK     1      -1.286  -1.812   0.820  1.00  0.00     0.012 A 
HETATM   14  C14 UNK     1      -2.069  -1.984   1.961  1.00  0.00     0.019 A 
HETATM   15  C13 UNK     1      -3.235  -1.236   2.127  1.00  0.00     0.037 A 
HETATM   16  C15 UNK     1      -3.617  -0.316   1.151  1.00  0.00     0.019 A 
HETATM   17  C12 UNK     1      -2.834  -0.144   0.009  1.00  0.00     0.012 A 
BRANCH  15  18
HETATM   18  C16 UNK     1      -4.051  -1.415   3.317  1.00  0.00     0.176 C 
HETATM   19  O5  UNK     1      -5.098  -0.808   3.565  1.00  0.00    -0.646 OA
BRANCH  18  20
HETATM   20  O4  UNK     1      -3.539  -2.348   4.165  1.00  0.00    -0.773 OA
HETATM   21  H10 UNK     1      -4.096  -2.462   4.964  1.00  0.00     0.167 HD
ENDBRANCH  18  20
ENDBRANCH  15  18
ENDBRANCH   7  12
BRANCH  10  22
HETATM   22  O3  UNK     1       4.209   4.190  -0.338  1.00  0.00    -0.361 OA
HETATM   23  H9  UNK     1       4.889   4.506  -0.957  1.00  0.00     0.217 HD
ENDBRANCH  10  22
TORSDOF 4
