REMARK  2 active torsions:
REMARK  status: ('A' for Active; 'I' for Inactive)
REMARK    1  A    between atoms: C5_9  and  O2_2 
REMARK    2  A    between atoms: C10_14  and  C7_11 
ROOT
HETATM    1  O1  UNK     1       1.535   0.713   1.292  1.00  0.00    -0.321 OA
HETATM    2  O3  UNK     1       0.261   0.565  -2.585  1.00  0.00    -0.286 OA
HETATM    3  C1  UNK     1      -0.184   0.095  -0.313  1.00  0.00     0.051 A 
HETATM    4  C2  UNK     1       0.308   0.175   0.991  1.00  0.00     0.089 A 
HETATM    5  C3  UNK     1      -1.440  -0.463  -0.559  1.00  0.00     0.055 A 
HETATM    6  C4  UNK     1       0.642   0.608  -1.423  1.00  0.00     0.200 A 
HETATM    7  C5  UNK     1      -2.202  -0.941   0.508  1.00  0.00     0.069 A 
HETATM    8  C6  UNK     1      -0.457  -0.304   2.056  1.00  0.00     0.041 A 
HETATM    9  C7  UNK     1       1.953   1.177  -1.044  1.00  0.00     0.075 A 
HETATM   10  C8  UNK     1      -1.712  -0.862   1.812  1.00  0.00     0.039 A 
HETATM   11  C9  UNK     1       2.294   1.188   0.249  1.00  0.00     0.161 A 
ENDROOT
BRANCH   7  12
HETATM   12  O2  UNK     1      -3.428  -1.487   0.277  1.00  0.00    -0.356 OA
HETATM   13  C11 UNK     1      -4.154  -1.955   1.412  1.00  0.00     0.210 C 
ENDBRANCH   7  12
BRANCH   9  14
HETATM   14  C10 UNK     1       2.903   1.733  -2.008  1.00  0.00     0.276 C 
HETATM   15  O4  UNK     1       2.679   1.766  -3.213  1.00  0.00    -0.301 OA
ENDBRANCH   9  14
TORSDOF 2
