REMARK  5 active torsions:
REMARK  status: ('A' for Active; 'I' for Inactive)
REMARK    1  A    between atoms: C1_5  and  N1_4 
REMARK       I    between atoms: C6_10  and  N1_4 
REMARK    2  A    between atoms: C1_5  and  C2_6 
REMARK    3  A    between atoms: C4_8  and  C6_10 
REMARK    4  A    between atoms: C13_17  and  C9_13 
REMARK    5  A    between atoms: C13_17  and  C17_21 
ROOT
HETATM    1  C1  UNK     1       2.931   2.191  -1.931  1.00  0.00     0.092 C 
HETATM    2  C3  UNK     1       2.286   3.258  -2.828  1.00  0.00     0.053 C 
HETATM    3  C11 UNK     1       3.799   2.860  -0.938  1.00  0.00    -0.086 C 
HETATM    4  C18 UNK     1       4.502   3.408  -0.133  1.00  0.00     0.015 C 
ENDROOT
BRANCH   1   5
HETATM    5  N1  UNK     1       1.880   1.478  -1.240  1.00  0.00    -0.337 N 
HETATM    6  C6  UNK     1       0.904   0.748  -1.896  1.00  0.00     0.259 C 
HETATM    7  O2  UNK     1       0.799   0.610  -3.114  1.00  0.00    -0.267 OA
HETATM    8  H3  UNK     1       1.849   1.551  -0.227  1.00  0.00     0.164 HD
BRANCH   6   9
HETATM    9  C4  UNK     1      -0.048   0.113  -0.979  1.00  0.00     0.108 A 
HETATM   10  C10 UNK     1      -1.299  -0.068  -1.426  1.00  0.00     0.037 A 
HETATM   11  C5  UNK     1      -2.317  -0.687  -0.594  1.00  0.00    -0.000 A 
HETATM   12  C14 UNK     1      -3.626  -0.885  -1.038  1.00  0.00     0.014 A 
HETATM   13  C8  UNK     1      -1.975  -1.094   0.690  1.00  0.00     0.096 A 
HETATM   14  C16 UNK     1      -4.567  -1.486  -0.196  1.00  0.00     0.002 A 
HETATM   15  C15 UNK     1      -4.204  -1.889   1.091  1.00  0.00     0.010 A 
HETATM   16  C9  UNK     1      -2.901  -1.693   1.541  1.00  0.00    -0.020 A 
HETATM   17  O1  UNK     1      -0.666  -0.908   1.170  1.00  0.00    -0.273 OA
HETATM   18  C12 UNK     1       0.331  -0.318   0.395  1.00  0.00     0.304 A 
HETATM   19  O3  UNK     1       1.468  -0.164   0.828  1.00  0.00    -0.259 OA
BRANCH  16  20
HETATM   20  C13 UNK     1      -2.524  -2.126   2.918  1.00  0.00     0.067 C 
BRANCH  20  21
HETATM   21  C17 UNK     1      -2.732  -1.051   3.952  1.00  0.00    -0.032 C 
HETATM   22  C19 UNK     1      -1.750  -0.511   4.683  1.00  0.00     0.007 C 
ENDBRANCH  20  21
ENDBRANCH  16  20
ENDBRANCH   6   9
ENDBRANCH   1   5
BRANCH   1  23
HETATM   23  C2  UNK     1       3.754   1.221  -2.811  1.00  0.00     0.040 C 
HETATM   24  C7  UNK     1       4.418   0.074  -2.052  1.00  0.00     0.009 C 
ENDBRANCH   1  23
TORSDOF 5
