REMARK  5 active torsions:
REMARK  status: ('A' for Active; 'I' for Inactive)
REMARK    1  A    between atoms: C11_15  and  O2_2 
REMARK    2  A    between atoms: C18_22  and  O2_2 
REMARK    3  A    between atoms: C1_5  and  C4_8 
REMARK    4  A    between atoms: C4_8  and  C6_10 
REMARK    5  A    between atoms: C18_22  and  C19_23 
ROOT
HETATM    1  O1  UNK     1      -0.749   1.687   0.053  1.00  0.00    -0.274 OA
HETATM    2  O3  UNK     1      -2.822   1.381   0.924  1.00  0.00    -0.259 OA
HETATM    3  C1  UNK     1      -1.156  -0.187   1.589  1.00  0.00     0.029 A 
HETATM    4  C2  UNK     1       0.121  -0.607   1.466  1.00  0.00    -0.036 A 
HETATM    5  C3  UNK     1       1.059   0.162   0.622  1.00  0.00     0.005 A 
HETATM    6  C5  UNK     1       0.591   1.282  -0.057  1.00  0.00     0.093 A 
HETATM    7  C7  UNK     1      -1.655   1.008   0.848  1.00  0.00     0.295 A 
HETATM    8  C8  UNK     1       0.663  -1.846   2.134  1.00  0.00     0.050 C 
HETATM    9  C9  UNK     1       2.416  -0.161   0.464  1.00  0.00     0.017 A 
HETATM   10  C10 UNK     1       1.410   2.064  -0.875  1.00  0.00     0.075 A 
HETATM   11  C11 UNK     1       2.750   1.723  -1.022  1.00  0.00     0.082 A 
HETATM   12  C12 UNK     1       3.253   0.611  -0.352  1.00  0.00     0.038 A 
ENDROOT
BRANCH   3  13
HETATM   13  C4  UNK     1      -2.197  -0.838   2.464  1.00  0.00     0.084 C 
BRANCH  13  14
HETATM   14  C6  UNK     1      -3.189  -1.632   1.668  1.00  0.00    -0.054 A 
HETATM   15  C13 UNK     1      -2.744  -2.475   0.655  1.00  0.00     0.007 A 
HETATM   16  C15 UNK     1      -3.666  -3.213  -0.086  1.00  0.00     0.001 A 
HETATM   17  C17 UNK     1      -5.029  -3.104   0.190  1.00  0.00     0.000 A 
HETATM   18  C16 UNK     1      -5.469  -2.257   1.207  1.00  0.00     0.001 A 
HETATM   19  C14 UNK     1      -4.547  -1.519   1.948  1.00  0.00     0.007 A 
ENDBRANCH  13  14
ENDBRANCH   3  13
BRANCH  11  20
HETATM   20  O2  UNK     1       3.564   2.471  -1.813  1.00  0.00    -0.279 OA
BRANCH  20  21
HETATM   21  C18 UNK     1       3.616   2.049  -3.156  1.00  0.00     0.263 C 
HETATM   22  O4  UNK     1       2.999   1.100  -3.621  1.00  0.00    -0.265 OA
BRANCH  21  23
HETATM   23  C19 UNK     1       4.548   2.952  -3.931  1.00  0.00     0.107 C 
HETATM   24  C20 UNK     1       4.632   2.562  -5.396  1.00  0.00     0.015 C 
ENDBRANCH  21  23
ENDBRANCH  20  21
ENDBRANCH  11  20
TORSDOF 5
