REMARK  4 active torsions:
REMARK  status: ('A' for Active; 'I' for Inactive)
REMARK    1  A    between atoms: C18_22  and  O2_2 
REMARK    2  A    between atoms: C4_8  and  N1_4 
REMARK    3  A    between atoms: C4_8  and  C7_11 
REMARK    4  A    between atoms: C5_9  and  C8_12 
ROOT
HETATM    1  O1  UNK     1      -1.890  -2.137   2.861  1.00  0.00    -0.275 OA
HETATM    2  O3  UNK     1      -0.224  -1.719   4.370  1.00  0.00    -0.260 OA
HETATM    3  C7  UNK     1      -1.296   0.356   1.663  1.00  0.00    -0.011 A 
HETATM    4  C9  UNK     1      -2.367  -0.490   1.121  1.00  0.00     0.006 A 
HETATM    5  C10 UNK     1      -0.608  -0.072   2.731  1.00  0.00     0.092 A 
HETATM    6  C11 UNK     1      -2.631  -1.713   1.739  1.00  0.00     0.093 A 
HETATM    7  C12 UNK     1      -3.147  -0.141   0.010  1.00  0.00     0.017 A 
HETATM    8  C15 UNK     1      -0.874  -1.360   3.394  1.00  0.00     0.288 A 
HETATM    9  C16 UNK     1      -3.630  -2.577   1.287  1.00  0.00     0.075 A 
HETATM   10  C17 UNK     1      -4.153  -0.996  -0.454  1.00  0.00     0.038 A 
HETATM   11  C18 UNK     1      -4.394  -2.212   0.183  1.00  0.00     0.070 A 
ENDROOT
BRANCH   3  12
HETATM   12  C4  UNK     1      -0.988   1.678   1.021  1.00  0.00     0.312 C 
BRANCH  12  13
HETATM   13  N1  UNK     1       0.018   1.547  -0.030  1.00  0.00     0.096 N 
HETATM   14  C1  UNK     1       0.249   2.829  -0.703  1.00  0.00     0.277 C 
HETATM   15  C2  UNK     1       1.182   2.626  -1.906  1.00  0.00     0.069 C 
HETATM   16  C5  UNK     1       2.410   1.809  -1.570  1.00  0.00    -0.048 C 
HETATM   17  C6  UNK     1       2.434   1.071  -0.444  1.00  0.00     0.011 C 
HETATM   18  C3  UNK     1       1.276   1.013   0.515  1.00  0.00     0.300 C 
BRANCH  16  19
HETATM   19  C8  UNK     1       3.557   1.845  -2.509  1.00  0.00    -0.030 A 
HETATM   20  C13 UNK     1       4.859   1.671  -2.032  1.00  0.00     0.012 A 
HETATM   21  C19 UNK     1       5.938   1.705  -2.915  1.00  0.00     0.001 A 
HETATM   22  C21 UNK     1       5.719   1.913  -4.276  1.00  0.00     0.000 A 
HETATM   23  C20 UNK     1       4.421   2.087  -4.755  1.00  0.00     0.001 A 
HETATM   24  C14 UNK     1       3.341   2.053  -3.873  1.00  0.00     0.012 A 
ENDBRANCH  16  19
ENDBRANCH  12  13
ENDBRANCH   3  12
BRANCH  11  25
HETATM   25  O2  UNK     1      -5.373  -3.039  -0.273  1.00  0.00    -0.356 OA
HETATM   26  C22 UNK     1      -5.565  -4.268   0.428  1.00  0.00     0.210 C 
ENDBRANCH  11  25
TORSDOF 4
