REMARK  3 active torsions:
REMARK  status: ('A' for Active; 'I' for Inactive)
REMARK       I    between atoms: C5_12  and  N1_7 
REMARK    1  A    between atoms: C6_13  and  N1_7 
REMARK    2  A    between atoms: C1_8  and  C5_12 
REMARK    3  A    between atoms: C12_19  and  C14_21 
ROOT
HETATM    1  O2  UNK     1      -0.213  -0.177   2.308  1.00  0.00    -0.275 OA
HETATM    2  O3  UNK     1      -1.114  -0.666   4.352  1.00  0.00    -0.260 OA
HETATM    3  C6  UNK     1       0.655   0.370  -1.211  1.00  0.00     0.037 A 
HETATM    4  C7  UNK     1       0.732   0.334   0.177  1.00  0.00     0.067 A 
HETATM    5  C8  UNK     1      -1.510  -0.635   0.290  1.00  0.00     0.013 A 
HETATM    6  C9  UNK     1      -0.349  -0.166   0.906  1.00  0.00     0.092 A 
HETATM    7  C10 UNK     1      -0.492  -0.092  -1.854  1.00  0.00     0.030 A 
HETATM    8  C11 UNK     1      -1.567  -0.591  -1.110  1.00  0.00     0.017 A 
HETATM    9  C12 UNK     1      -2.598  -1.145   1.135  1.00  0.00     0.066 A 
HETATM   10  C13 UNK     1      -2.441  -1.143   2.466  1.00  0.00     0.099 A 
HETATM   11  C15 UNK     1      -1.222  -0.652   3.131  1.00  0.00     0.289 A 
ENDROOT
BRANCH   3  12
HETATM   12  N1  UNK     1       1.724   0.865  -1.959  1.00  0.00    -0.327 N 
HETATM   13  C5  UNK     1       2.946   1.369  -1.494  1.00  0.00     0.226 C 
HETATM   14  O1  UNK     1       3.313   1.476  -0.328  1.00  0.00    -0.273 OA
HETATM   15  H8  UNK     1       1.591   0.855  -2.968  1.00  0.00     0.169 HD
BRANCH  13  16
HETATM   16  C1  UNK     1       3.859   1.817  -2.659  1.00  0.00     0.078 C 
HETATM   17  C2  UNK     1       5.134   2.600  -2.281  1.00  0.00     0.014 C 
HETATM   18  C4  UNK     1       4.911   3.429  -3.564  1.00  0.00     0.002 C 
HETATM   19  C3  UNK     1       3.416   3.067  -3.447  1.00  0.00     0.014 C 
ENDBRANCH  13  16
ENDBRANCH   3  12
BRANCH   9  20
HETATM   20  C14 UNK     1      -3.860  -1.657   0.503  1.00  0.00     0.418 C 
HETATM   21  F1  UNK     1      -3.796  -1.563  -0.839  1.00  0.00    -0.166 F 
HETATM   22  F2  UNK     1      -4.928  -0.948   0.919  1.00  0.00    -0.166 F 
HETATM   23  F3  UNK     1      -4.070  -2.949   0.821  1.00  0.00    -0.166 F 
ENDBRANCH   9  20
TORSDOF 3
