REMARK  4 active torsions:
REMARK  status: ('A' for Active; 'I' for Inactive)
REMARK    1  A    between atoms: C12_16  and  O3_3 
REMARK    2  A    between atoms: C13_17  and  O3_3 
REMARK    3  A    between atoms: C13_17  and  C14_18 
REMARK    4  A    between atoms: C14_18  and  C15_19 
ROOT
HETATM    1  O1  UNK     1       0.890   1.426  -2.589  1.00  0.00    -0.274 OA
HETATM    2  O2  UNK     1       1.656   1.872  -4.707  1.00  0.00    -0.259 OA
HETATM    3  C1  UNK     1       4.971   1.786  -1.379  1.00  0.00     0.040 C 
HETATM    4  C2  UNK     1       5.499   2.414  -2.675  1.00  0.00     0.009 C 
HETATM    5  C3  UNK     1       3.518   1.635  -1.670  1.00  0.00    -0.033 A 
HETATM    6  C4  UNK     1       4.468   2.101  -3.764  1.00  0.00     0.046 C 
HETATM    7  C5  UNK     1       3.247   1.808  -2.965  1.00  0.00     0.025 A 
HETATM    8  C6  UNK     1       2.468   1.327  -0.721  1.00  0.00     0.005 A 
HETATM    9  C7  UNK     1       1.163   1.231  -1.213  1.00  0.00     0.092 A 
HETATM   10  C8  UNK     1       1.893   1.713  -3.516  1.00  0.00     0.295 A 
HETATM   11  C9  UNK     1       2.685   1.119   0.643  1.00  0.00     0.017 A 
HETATM   12  C10 UNK     1       0.082   0.940  -0.383  1.00  0.00     0.075 A 
HETATM   13  C11 UNK     1       1.609   0.826   1.487  1.00  0.00     0.038 A 
HETATM   14  C12 UNK     1       0.312   0.738   0.976  1.00  0.00     0.072 A 
ENDROOT
BRANCH  14  15
HETATM   15  O3  UNK     1      -0.728   0.452   1.807  1.00  0.00    -0.344 OA
BRANCH  15  16
HETATM   16  C13 UNK     1      -1.834  -0.252   1.244  1.00  0.00     0.259 C 
BRANCH  16  17
HETATM   17  C14 UNK     1      -2.506  -1.098   2.308  1.00  0.00     0.183 C 
HETATM   18  O4  UNK     1      -2.079  -1.147   3.459  1.00  0.00    -0.290 OA
BRANCH  17  19
HETATM   19  C15 UNK     1      -3.715  -1.889   1.937  1.00  0.00     0.012 A 
HETATM   20  C16 UNK     1      -4.175  -1.822   0.641  1.00  0.00     0.015 A 
HETATM   21  C18 UNK     1      -5.306  -2.562   0.294  1.00  0.00     0.001 A 
HETATM   22  C20 UNK     1      -5.945  -3.350   1.251  1.00  0.00     0.000 A 
HETATM   23  C19 UNK     1      -5.454  -3.397   2.556  1.00  0.00     0.001 A 
HETATM   24  C17 UNK     1      -4.324  -2.658   2.903  1.00  0.00     0.015 A 
ENDBRANCH  17  19
ENDBRANCH  16  17
ENDBRANCH  15  16
ENDBRANCH  14  15
TORSDOF 4
