REMARK  5 active torsions:
REMARK  status: ('A' for Active; 'I' for Inactive)
REMARK    1  A    between atoms: C15_21  and  O2_2 
REMARK    2  A    between atoms: C17_23  and  O2_2 
REMARK    3  A    between atoms: C5_11  and  N1_4 
REMARK    4  A    between atoms: C7_13  and  N2_5 
REMARK    5  A    between atoms: C5_11  and  C6_12 
ROOT
HETATM    1  N3  UNK     1       5.264   2.999  -4.245  1.00  0.00    -0.195 NA
HETATM    2  C7  UNK     1       3.562   3.350  -2.275  1.00  0.00     0.395 C 
HETATM    3  C13 UNK     1       4.512   3.152  -3.375  1.00  0.00     0.089 C 
ENDROOT
BRANCH   2   4
HETATM    4  N2  UNK     1       3.225   2.088  -1.621  1.00  0.00     0.104 N 
HETATM    5  C3  UNK     1       2.681   2.325  -0.278  1.00  0.00     0.303 C 
HETATM    6  C1  UNK     1       2.323   1.003   0.408  1.00  0.00     0.303 C 
HETATM    7  N1  UNK     1       1.370   0.235  -0.402  1.00  0.00     0.096 N 
HETATM    8  C2  UNK     1       1.915  -0.004  -1.744  1.00  0.00     0.303 C 
HETATM    9  C4  UNK     1       2.272   1.319  -2.431  1.00  0.00     0.303 C 
BRANCH   7  10
HETATM   10  C5  UNK     1       1.031  -1.027   0.252  1.00  0.00     0.312 C 
BRANCH  10  11
HETATM   11  C6  UNK     1       0.012  -0.848   1.324  1.00  0.00    -0.011 A 
HETATM   12  C8  UNK     1      -1.417  -0.952   1.002  1.00  0.00     0.009 A 
HETATM   13  C10 UNK     1      -2.348  -0.779   2.027  1.00  0.00     0.090 A 
HETATM   14  C11 UNK     1      -1.908  -1.215  -0.284  1.00  0.00     0.051 A 
HETATM   15  O1  UNK     1      -1.936  -0.511   3.348  1.00  0.00    -0.275 OA
HETATM   16  C14 UNK     1      -3.724  -0.861   1.806  1.00  0.00     0.041 A 
HETATM   17  C12 UNK     1      -0.595  -0.408   3.682  1.00  0.00     0.288 A 
HETATM   18  O3  UNK     1      -0.225  -0.176   4.828  1.00  0.00    -0.260 OA
HETATM   19  C9  UNK     1       0.375  -0.593   2.589  1.00  0.00     0.092 A 
HETATM   20  C16 UNK     1      -4.191  -1.124   0.523  1.00  0.00     0.039 A 
HETATM   21  C15 UNK     1      -3.285  -1.301  -0.521  1.00  0.00     0.069 A 
BRANCH  21  22
HETATM   22  O2  UNK     1      -3.741  -1.558  -1.778  1.00  0.00    -0.351 OA
BRANCH  22  23
HETATM   23  C17 UNK     1      -2.940  -1.099  -2.865  1.00  0.00     0.171 C 
HETATM   24  C18 UNK     1      -3.837  -0.800  -4.047  1.00  0.00     0.034 C 
ENDBRANCH  22  23
ENDBRANCH  21  22
ENDBRANCH  10  11
ENDBRANCH   7  10
ENDBRANCH   2   4
TORSDOF 5
