REMARK  1 active torsions:
REMARK  status: ('A' for Active; 'I' for Inactive)
REMARK    1  A    between atoms: C11_15  and  O3_3 
ROOT
HETATM    1  O1  UNK     1      -0.989  -1.044   0.012  1.00  0.00    -0.306 OA
HETATM    2  O2  UNK     1       2.311   1.199  -3.171  1.00  0.00    -0.275 OA
HETATM    3  O4  UNK     1       0.891   0.553  -4.841  1.00  0.00    -0.260 OA
HETATM    4  C1  UNK     1       0.255   0.560  -1.316  1.00  0.00     0.017 A 
HETATM    5  C2  UNK     1       1.555   1.078  -0.855  1.00  0.00     0.012 A 
HETATM    6  C3  UNK     1      -0.832   0.212  -0.488  1.00  0.00     0.088 A 
HETATM    7  C4  UNK     1      -2.705   0.230   0.744  1.00  0.00     0.003 A 
HETATM    8  C5  UNK     1      -2.127  -1.035   0.762  1.00  0.00     0.119 A 
HETATM    9  C6  UNK     1      -1.859   1.030  -0.068  1.00  0.00     0.052 A 
HETATM   10  C7  UNK     1       2.539   1.380  -1.794  1.00  0.00     0.090 A 
HETATM   11  C8  UNK     1       1.855   1.283   0.499  1.00  0.00     0.022 A 
HETATM   12  C9  UNK     1       0.072   0.400  -2.638  1.00  0.00     0.097 A 
HETATM   13  C10 UNK     1       3.105   1.777   0.884  1.00  0.00    -0.061 A 
HETATM   14  C11 UNK     1      -2.652  -2.125   1.454  1.00  0.00     0.102 A 
HETATM   15  C12 UNK     1      -3.894   0.435   1.466  1.00  0.00     0.014 A 
HETATM   16  C13 UNK     1       3.792   1.873  -1.424  1.00  0.00     0.039 A 
HETATM   17  C14 UNK     1       4.072   2.072  -0.076  1.00  0.00     0.009 A 
HETATM   18  C15 UNK     1       1.103   0.714  -3.644  1.00  0.00     0.289 A 
HETATM   19  C16 UNK     1      -3.834  -1.899   2.165  1.00  0.00     0.040 A 
HETATM   20  C17 UNK     1      -4.447  -0.643   2.172  1.00  0.00     0.004 A 
HETATM   21  C18 UNK     1       3.407   1.990   2.330  1.00  0.00     0.048 C 
ENDROOT
BRANCH  14  22
HETATM   22  O3  UNK     1      -2.057  -3.352   1.449  1.00  0.00    -0.353 OA
HETATM   23  C19 UNK     1      -1.097  -3.610   2.471  1.00  0.00     0.210 C 
ENDBRANCH  14  22
TORSDOF 1
