REMARK  2 active torsions:
REMARK  status: ('A' for Active; 'I' for Inactive)
REMARK    1  A    between atoms: C15_20  and  O3_3 
REMARK    2  A    between atoms: C12_17  and  C6_11 
ROOT
HETATM    1  O1  UNK     1       1.416   0.881   0.882  1.00  0.00    -0.340 OA
HETATM    2  O2  UNK     1      -1.670  -3.298  -2.126  1.00  0.00    -0.247 OA
HETATM    3  N1  UNK     1      -1.088  -1.684  -0.621  1.00  0.00    -0.329 N 
HETATM    4  N2  UNK     1      -2.889  -1.369  -2.100  1.00  0.00    -0.335 N 
HETATM    5  C1  UNK     1      -1.122  -0.305  -0.113  1.00  0.00     0.069 C 
HETATM    6  C2  UNK     1      -2.569   0.241  -0.242  1.00  0.00     0.066 C 
HETATM    7  C3  UNK     1      -3.237  -0.031  -1.609  1.00  0.00     0.030 C 
HETATM    8  C4  UNK     1      -0.142   0.553  -0.950  1.00  0.00     0.073 C 
HETATM    9  C5  UNK     1      -0.669  -0.308   1.353  1.00  0.00     0.004 A 
HETATM   10  C6  UNK     1       1.298   0.392  -0.458  1.00  0.00     0.164 C 
HETATM   11  C7  UNK     1      -2.878   1.018  -2.671  1.00  0.00     0.038 C 
HETATM   12  C8  UNK     1      -4.768   0.023  -1.414  1.00  0.00     0.038 C 
HETATM   13  C9  UNK     1       0.536   0.292   1.752  1.00  0.00     0.081 A 
HETATM   14  C10 UNK     1      -1.866  -2.177  -1.648  1.00  0.00     0.317 C 
HETATM   15  C11 UNK     1      -1.437  -0.947   2.345  1.00  0.00     0.015 A 
HETATM   16  C13 UNK     1       0.914   0.329   3.099  1.00  0.00     0.074 A 
HETATM   17  C14 UNK     1      -1.050  -0.928   3.688  1.00  0.00     0.037 A 
HETATM   18  C15 UNK     1       0.120  -0.279   4.066  1.00  0.00     0.068 A 
HETATM   19  H6  UNK     1      -0.344  -2.289  -0.284  1.00  0.00     0.165 HD
HETATM   20  H7  UNK     1      -3.441  -1.730  -2.874  1.00  0.00     0.165 HD
ENDROOT
BRANCH  10  21
HETATM   21  C12 UNK     1       2.266   1.160  -1.335  1.00  0.00    -0.029 A 
HETATM   22  C16 UNK     1       2.843   0.541  -2.443  1.00  0.00     0.010 A 
HETATM   23  C18 UNK     1       3.734   1.248  -3.251  1.00  0.00     0.001 A 
HETATM   24  C20 UNK     1       4.046   2.573  -2.950  1.00  0.00     0.000 A 
HETATM   25  C19 UNK     1       3.469   3.192  -1.842  1.00  0.00     0.001 A 
HETATM   26  C17 UNK     1       2.578   2.485  -1.034  1.00  0.00     0.010 A 
ENDBRANCH  10  21
BRANCH  18  27
HETATM   27  O3  UNK     1       0.494  -0.254   5.374  1.00  0.00    -0.361 OA
HETATM   28  H22 UNK     1       1.331   0.236   5.453  1.00  0.00     0.217 HD
ENDBRANCH  18  27
TORSDOF 2
