REMARK  3 active torsions:
REMARK  status: ('A' for Active; 'I' for Inactive)
REMARK    1  A    between atoms: C5_14  and  N1_7 
REMARK       I    between atoms: C6_15  and  N2_8 
REMARK    2  A    between atoms: C13_22  and  N3_9 
REMARK    3  A    between atoms: C6_15  and  C7_16 
ROOT
HETATM    1  O1  UNK     1      -3.676   0.533  -1.232  1.00  0.00    -0.267 OA
HETATM    2  N1  UNK     1       1.157   0.830  -1.573  1.00  0.00    -0.376 N 
HETATM    3  N2  UNK     1      -1.454  -0.136  -1.113  1.00  0.00    -0.345 N 
HETATM    4  C1  UNK     1       0.833   0.205  -0.281  1.00  0.00     0.143 C 
HETATM    5  C2  UNK     1       0.026   1.413  -2.314  1.00  0.00     0.143 C 
HETATM    6  C3  UNK     1      -0.320  -0.783  -0.446  1.00  0.00     0.146 C 
HETATM    7  C4  UNK     1      -1.117   0.404  -2.428  1.00  0.00     0.146 C 
HETATM    8  C6  UNK     1      -2.754  -0.022  -0.632  1.00  0.00     0.260 C 
ENDROOT
BRANCH   8   9
HETATM    9  C7  UNK     1      -3.051  -0.602   0.692  1.00  0.00     0.108 A 
HETATM   10  C10 UNK     1      -3.455  -1.878   0.702  1.00  0.00     0.037 A 
HETATM   11  C15 UNK     1      -3.772  -2.537   1.959  1.00  0.00    -0.001 A 
HETATM   12  C16 UNK     1      -3.649  -1.820   3.145  1.00  0.00     0.089 A 
HETATM   13  C17 UNK     1      -4.196  -3.867   2.016  1.00  0.00     0.014 A 
HETATM   14  O2  UNK     1      -3.224  -0.477   3.128  1.00  0.00    -0.274 OA
HETATM   15  C18 UNK     1      -3.937  -2.393   4.382  1.00  0.00     0.038 A 
HETATM   16  C14 UNK     1      -2.913   0.180   1.941  1.00  0.00     0.304 A 
HETATM   17  O3  UNK     1      -2.544   1.350   1.936  1.00  0.00    -0.259 OA
HETATM   18  C20 UNK     1      -4.360  -3.719   4.430  1.00  0.00     0.003 A 
HETATM   19  C19 UNK     1      -4.489  -4.455   3.250  1.00  0.00     0.001 A 
ENDBRANCH   8   9
BRANCH   2  20
HETATM   20  C5  UNK     1       2.423   1.395  -1.767  1.00  0.00     0.052 A 
HETATM   21  C9  UNK     1       2.865   2.454  -0.938  1.00  0.00     0.033 A 
HETATM   22  C12 UNK     1       4.120   3.037  -1.107  1.00  0.00     0.038 A 
HETATM   23  C13 UNK     1       4.972   2.580  -2.112  1.00  0.00     0.104 A 
HETATM   24  C11 UNK     1       4.568   1.538  -2.948  1.00  0.00     0.062 A 
HETATM   25  C8  UNK     1       3.313   0.954  -2.779  1.00  0.00     0.062 A 
HETATM   26 Cl1  UNK     1       2.852  -0.332  -3.835  1.00  0.00    -0.082 Cl
BRANCH  23  27
HETATM   27  N3  UNK     1       6.250   3.174  -2.285  1.00  0.00    -0.116 N 
HETATM   28  O4  UNK     1       6.593   4.110  -1.522  1.00  0.00    -0.532 OA
HETATM   29  O5  UNK     1       7.001   2.748  -3.194  1.00  0.00    -0.532 OA
ENDBRANCH  23  27
ENDBRANCH   2  20
TORSDOF 3
