REMARK  2 active torsions:
REMARK  status: ('A' for Active; 'I' for Inactive)
REMARK    1  A    between atoms: C8_14  and  N1_5 
REMARK    2  A    between atoms: C1_7  and  C4_10 
ROOT
HETATM    1  O1  UNK     1      -0.309   1.033  -2.216  1.00  0.00    -0.291 OA
HETATM    2  O2  UNK     1       2.875   0.087   0.327  1.00  0.00    -0.274 OA
HETATM    3  O3  UNK     1       1.672  -1.644   1.195  1.00  0.00    -0.259 OA
HETATM    4  N2  UNK     1      -3.717  -2.348  -1.824  1.00  0.00    -0.191 NA
HETATM    5  C1  UNK     1      -0.699  -1.122  -0.351  1.00  0.00     0.108 C 
HETATM    6  C2  UNK     1       0.591  -0.323  -0.460  1.00  0.00     0.066 A 
HETATM    7  C3  UNK     1       0.704   0.681  -1.342  1.00  0.00     0.104 A 
HETATM    8  C5  UNK     1      -1.654  -0.812  -1.505  1.00  0.00     0.086 C 
HETATM    9  C6  UNK     1       1.925   1.478  -1.429  1.00  0.00     0.033 A 
HETATM   10  C7  UNK     1       1.729  -0.695   0.420  1.00  0.00     0.298 A 
HETATM   11  C8  UNK     1      -1.434   0.222  -2.349  1.00  0.00     0.159 C 
HETATM   12  C9  UNK     1       2.981   1.158  -0.581  1.00  0.00     0.092 A 
HETATM   13  C12 UNK     1       2.092   2.548  -2.315  1.00  0.00     0.017 A 
HETATM   14  C13 UNK     1       4.182   1.867  -0.591  1.00  0.00     0.038 A 
HETATM   15  C16 UNK     1       3.290   3.269  -2.339  1.00  0.00     0.001 A 
HETATM   16  C17 UNK     1      -2.794  -1.660  -1.681  1.00  0.00     0.100 C 
HETATM   17  C18 UNK     1       4.333   2.929  -1.477  1.00  0.00     0.003 A 
ENDROOT
BRANCH   5  18
HETATM   18  C4  UNK     1      -1.372  -0.863   0.965  1.00  0.00    -0.044 A 
HETATM   19  C10 UNK     1      -1.284   0.396   1.546  1.00  0.00     0.011 A 
HETATM   20  C14 UNK     1      -1.910   0.636   2.770  1.00  0.00     0.043 A 
HETATM   21  C19 UNK     1      -2.620  -0.384   3.403  1.00  0.00     0.116 A 
HETATM   22  C15 UNK     1      -2.704  -1.645   2.812  1.00  0.00     0.043 A 
HETATM   23  F1  UNK     1      -3.220  -0.153   4.577  1.00  0.00    -0.206 F 
HETATM   24  C11 UNK     1      -2.078  -1.886   1.589  1.00  0.00     0.011 A 
ENDBRANCH   5  18
BRANCH  11  25
HETATM   25  N1  UNK     1      -2.248   0.578  -3.389  1.00  0.00    -0.379 N 
HETATM   26  H10 UNK     1      -1.989   1.371  -3.963  1.00  0.00     0.158 HD
HETATM   27  H11 UNK     1      -3.097   0.063  -3.586  1.00  0.00     0.158 HD
ENDBRANCH  11  25
TORSDOF 2
