REMARK  4 active torsions:
REMARK  status: ('A' for Active; 'I' for Inactive)
REMARK    1  A    between atoms: C10_16  and  O2_3 
REMARK    2  A    between atoms: C8_14  and  O2_3 
REMARK    3  A    between atoms: C10_16  and  C4_10 
REMARK    4  A    between atoms: C12_18  and  C17_23 
ROOT
HETATM    1 Br1  UNK     1       6.630   3.535  -1.165  1.00  0.00    -0.051 Br
HETATM    2  O1  UNK     1       1.505   0.971  -3.155  1.00  0.00    -0.274 OA
HETATM    3  O3  UNK     1      -0.541   0.042  -2.739  1.00  0.00    -0.259 OA
HETATM    4  C1  UNK     1       2.866   1.755  -1.300  1.00  0.00     0.000 A 
HETATM    5  C2  UNK     1       2.685   1.564  -2.666  1.00  0.00     0.089 A 
HETATM    6  C3  UNK     1       1.817   1.334  -0.385  1.00  0.00     0.038 A 
HETATM    7  C4  UNK     1       0.698   0.771  -0.855  1.00  0.00     0.116 A 
HETATM    8  C5  UNK     1       4.051   2.346  -0.854  1.00  0.00     0.033 A 
HETATM    9  C6  UNK     1       3.651   1.945  -3.595  1.00  0.00     0.039 A 
HETATM   10  C7  UNK     1       0.483   0.557  -2.304  1.00  0.00     0.304 A 
HETATM   11  C9  UNK     1       5.029   2.735  -1.774  1.00  0.00     0.011 A 
HETATM   12  C11 UNK     1       4.829   2.535  -3.142  1.00  0.00     0.022 A 
ENDROOT
BRANCH   7  13
HETATM   13  C10 UNK     1      -0.302   0.380   0.146  1.00  0.00     0.304 C 
HETATM   14  O4  UNK     1      -0.451   0.957   1.211  1.00  0.00    -0.259 OA
BRANCH  13  15
HETATM   15  O2  UNK     1      -0.993  -0.711  -0.345  1.00  0.00    -0.275 OA
BRANCH  15  16
HETATM   16  C8  UNK     1      -1.974  -1.163   0.541  1.00  0.00     0.079 A 
HETATM   17  C13 UNK     1      -3.243  -0.636   0.446  1.00  0.00     0.038 A 
HETATM   18  C15 UNK     1      -4.223  -1.088   1.330  1.00  0.00     0.018 A 
HETATM   19  C12 UNK     1      -3.909  -2.054   2.285  1.00  0.00     0.009 A 
HETATM   20  C16 UNK     1      -2.615  -2.569   2.357  1.00  0.00     0.018 A 
HETATM   21  C14 UNK     1      -1.635  -2.117   1.473  1.00  0.00     0.038 A 
BRANCH  19  22
HETATM   22  C17 UNK     1      -4.931  -2.524   3.207  1.00  0.00     0.155 C 
HETATM   23  C18 UNK     1      -6.348  -1.965   3.135  1.00  0.00     0.096 C 
HETATM   24  O5  UNK     1      -4.681  -3.387   4.072  1.00  0.00    -0.293 OA
ENDBRANCH  19  22
ENDBRANCH  15  16
ENDBRANCH  13  15
ENDBRANCH   7  13
TORSDOF 4
