REMARK  9 active torsions:
REMARK  status: ('A' for Active; 'I' for Inactive)
REMARK    1  A    between atoms: C17_27  and  O1_3 
REMARK    2  A    between atoms: C8_18  and  O1_3 
REMARK    3  A    between atoms: C9_19  and  O3_5 
REMARK    4  A    between atoms: C11_21  and  O4_6 
REMARK       I    between atoms: C12_22  and  N1_10 
REMARK    5  A    between atoms: C4_14  and  N1_10 
REMARK    6  A    between atoms: C1_11  and  C3_13 
REMARK    7  A    between atoms: C2_12  and  C8_18 
REMARK    8  A    between atoms: C10_20  and  C12_22 
REMARK    9  A    between atoms: C17_27  and  C18_28 
ROOT
HETATM    1  S1  UNK     1       0.236   0.628   2.703  1.00  0.00    -0.082 SA
HETATM    2  C1  UNK     1      -1.927  -0.618   2.097  1.00  0.00    -0.000 A 
HETATM    3  C2  UNK     1      -1.339  -0.223   0.861  1.00  0.00     0.085 A 
HETATM    4  C4  UNK     1      -0.159   0.463   1.045  1.00  0.00     0.094 A 
HETATM    5  C5  UNK     1      -1.174  -0.219   3.179  1.00  0.00     0.065 A 
ENDROOT
BRANCH   4   6
HETATM    6  N1  UNK     1       0.736   1.025   0.130  1.00  0.00    -0.316 N 
HETATM    7  C12 UNK     1       1.907   1.701   0.440  1.00  0.00     0.262 C 
HETATM    8  O6  UNK     1       2.386   1.937   1.548  1.00  0.00    -0.267 OA
HETATM    9  H4  UNK     1       0.477   0.921  -0.847  1.00  0.00     0.169 HD
BRANCH   7  10
HETATM   10  C10 UNK     1       2.608   2.162  -0.764  1.00  0.00     0.108 A 
HETATM   11  C15 UNK     1       3.848   1.691  -0.944  1.00  0.00     0.037 A 
HETATM   12  C14 UNK     1       4.623   2.091  -2.109  1.00  0.00     0.001 A 
HETATM   13  C16 UNK     1       4.053   2.967  -3.027  1.00  0.00     0.089 A 
HETATM   14  C20 UNK     1       5.920   1.625  -2.336  1.00  0.00     0.038 A 
HETATM   15  O2  UNK     1       2.748   3.459  -2.833  1.00  0.00    -0.274 OA
HETATM   16  C21 UNK     1       4.742   3.389  -4.163  1.00  0.00     0.040 A 
HETATM   17  C19 UNK     1       1.983   3.095  -1.728  1.00  0.00     0.304 A 
HETATM   18  O7  UNK     1       0.847   3.528  -1.567  1.00  0.00    -0.259 OA
HETATM   19  C23 UNK     1       6.035   2.920  -4.382  1.00  0.00     0.026 A 
HETATM   20  C22 UNK     1       6.623   2.039  -3.471  1.00  0.00     0.035 A 
HETATM   21 Cl1  UNK     1       8.221   1.462  -3.748  1.00  0.00    -0.084 Cl
ENDBRANCH   7  10
ENDBRANCH   4   6
BRANCH   3  22
HETATM   22  C8  UNK     1      -1.882  -0.488  -0.449  1.00  0.00     0.297 C 
HETATM   23  O5  UNK     1      -2.940  -1.102  -0.647  1.00  0.00    -0.259 OA
BRANCH  22  24
HETATM   24  O1  UNK     1      -1.114   0.004  -1.481  1.00  0.00    -0.317 OA
BRANCH  24  25
HETATM   25  C17 UNK     1      -1.595  -0.225  -2.811  1.00  0.00     0.178 C 
BRANCH  25  26
HETATM   26  C18 UNK     1      -0.617   0.389  -3.800  1.00  0.00     0.022 C 
HETATM   27  C24 UNK     1       0.765  -0.229  -3.686  1.00  0.00     0.007 C 
ENDBRANCH  25  26
ENDBRANCH  24  25
ENDBRANCH  22  24
ENDBRANCH   3  22
BRANCH   2  28
HETATM   28  C3  UNK     1      -3.153  -1.346   2.296  1.00  0.00    -0.021 A 
HETATM   29  C6  UNK     1      -3.136  -2.740   2.350  1.00  0.00     0.052 A 
HETATM   30  C9  UNK     1      -4.323  -3.446   2.541  1.00  0.00     0.102 A 
HETATM   31  C11 UNK     1      -5.529  -2.758   2.679  1.00  0.00     0.101 A 
HETATM   32  C13 UNK     1      -5.547  -1.364   2.626  1.00  0.00     0.040 A 
HETATM   33  C7  UNK     1      -4.359  -0.658   2.435  1.00  0.00     0.015 A 
BRANCH  30  34
HETATM   34  O3  UNK     1      -4.294  -4.807   2.591  1.00  0.00    -0.353 OA
HETATM   35  C25 UNK     1      -3.021  -5.433   2.441  1.00  0.00     0.210 C 
ENDBRANCH  30  34
BRANCH  31  36
HETATM   36  O4  UNK     1      -6.696  -3.436   2.866  1.00  0.00    -0.353 OA
HETATM   37  C26 UNK     1      -7.883  -2.658   2.999  1.00  0.00     0.210 C 
ENDBRANCH  31  36
ENDBRANCH   2  28
TORSDOF 9
