REMARK  7 active torsions:
REMARK  status: ('A' for Active; 'I' for Inactive)
REMARK    1  A    between atoms: C19_27  and  O4_4 
REMARK    2  A    between atoms: C23_31  and  O5_5 
REMARK    3  A    between atoms: C5_13  and  N1_6 
REMARK    4  A    between atoms: C6_14  and  N2_7 
REMARK    5  A    between atoms: C17_25  and  N3_8 
REMARK       I    between atoms: C9_17  and  N3_8 
REMARK    6  A    between atoms: C5_13  and  C7_15 
REMARK    7  A    between atoms: C6_14  and  C9_17 
ROOT
HETATM    1  N1  UNK     1       1.251   0.953  -0.942  1.00  0.00     0.096 N 
HETATM    2  N2  UNK     1      -0.312  -1.352  -0.168  1.00  0.00     0.100 N 
HETATM    3  C1  UNK     1      -0.199   0.905  -1.165  1.00  0.00     0.303 C 
HETATM    4  C2  UNK     1       1.618   0.140   0.224  1.00  0.00     0.303 C 
HETATM    5  C3  UNK     1      -0.677  -0.541  -1.335  1.00  0.00     0.303 C 
HETATM    6  C4  UNK     1       1.138  -1.305   0.054  1.00  0.00     0.303 C 
ENDROOT
BRANCH   2   7
HETATM    7  C6  UNK     1      -0.768  -2.731  -0.331  1.00  0.00     0.375 C 
BRANCH   7   8
HETATM    8  C9  UNK     1      -2.261  -2.805  -0.066  1.00  0.00     0.250 C 
HETATM    9  O2  UNK     1      -3.064  -3.194  -0.908  1.00  0.00    -0.271 OA
HETATM   10  N3  UNK     1      -2.541  -2.382   1.232  1.00  0.00    -0.323 N 
HETATM   11  H15 UNK     1      -1.756  -2.089   1.810  1.00  0.00     0.169 HD
BRANCH  10  12
HETATM   12  C17 UNK     1      -3.807  -2.304   1.861  1.00  0.00     0.068 A 
HETATM   13  C19 UNK     1      -3.921  -1.856   3.177  1.00  0.00     0.097 A 
HETATM   14  C21 UNK     1      -5.175  -1.784   3.783  1.00  0.00     0.075 A 
HETATM   15  C23 UNK     1      -6.315  -2.159   3.072  1.00  0.00     0.070 A 
HETATM   16  C22 UNK     1      -6.201  -2.607   1.756  1.00  0.00     0.039 A 
HETATM   17  C20 UNK     1      -4.947  -2.679   1.150  1.00  0.00     0.035 A 
BRANCH  13  18
HETATM   18  O4  UNK     1      -2.819  -1.485   3.889  1.00  0.00    -0.354 OA
HETATM   19  C24 UNK     1      -3.032  -1.041   5.227  1.00  0.00     0.210 C 
ENDBRANCH  13  18
BRANCH  15  20
HETATM   20  O5  UNK     1      -7.539  -2.089   3.664  1.00  0.00    -0.356 OA
HETATM   21  C25 UNK     1      -8.663  -2.488   2.880  1.00  0.00     0.210 C 
ENDBRANCH  15  20
ENDBRANCH  10  12
ENDBRANCH   7   8
ENDBRANCH   2   7
BRANCH   1  22
HETATM   22  C5  UNK     1       1.706   2.333  -0.777  1.00  0.00     0.312 C 
BRANCH  22  23
HETATM   23  C7  UNK     1       3.153   2.489  -1.093  1.00  0.00    -0.011 A 
HETATM   24  C10 UNK     1       4.089   2.344  -0.144  1.00  0.00     0.092 A 
HETATM   25  C13 UNK     1       5.530   2.489  -0.408  1.00  0.00     0.288 A 
HETATM   26  O1  UNK     1       5.897   2.790  -1.711  1.00  0.00    -0.275 OA
HETATM   27  O3  UNK     1       6.358   2.349   0.485  1.00  0.00    -0.260 OA
HETATM   28  C11 UNK     1       4.936   2.948  -2.730  1.00  0.00     0.090 A 
HETATM   29  C8  UNK     1       3.573   2.807  -2.464  1.00  0.00     0.006 A 
HETATM   30  C14 UNK     1       5.420   3.250  -4.004  1.00  0.00     0.045 A 
HETATM   31  C12 UNK     1       2.682   2.981  -3.531  1.00  0.00     0.015 A 
HETATM   32  C16 UNK     1       3.152   3.284  -4.814  1.00  0.00     0.007 A 
HETATM   33  C15 UNK     1       4.519   3.418  -5.050  1.00  0.00    -0.059 A 
HETATM   34  C18 UNK     1       5.013   3.740  -6.419  1.00  0.00     0.048 C 
ENDBRANCH  22  23
ENDBRANCH   1  22
TORSDOF 7
