REMARK  4 active torsions:
REMARK  status: ('A' for Active; 'I' for Inactive)
REMARK    1  A    between atoms: C11_15  and  O2_2 
REMARK    2  A    between atoms: C6_10  and  N1_4 
REMARK    3  A    between atoms: C6_10  and  C9_13 
REMARK    4  A    between atoms: C15_19  and  C18_22 
ROOT
HETATM    1  O1  UNK     1       0.031  -0.411  -1.493  1.00  0.00    -0.274 OA
HETATM    2  O3  UNK     1      -1.455  -0.910  -3.157  1.00  0.00    -0.260 OA
HETATM    3  C9  UNK     1       1.574   0.108   0.255  1.00  0.00     0.038 A 
HETATM    4  C10 UNK     1       0.295  -0.299  -0.114  1.00  0.00     0.101 A 
HETATM    5  C11 UNK     1       1.894   0.235   1.599  1.00  0.00     0.076 A 
HETATM    6  C12 UNK     1      -0.687  -0.587   0.832  1.00  0.00     0.010 A 
HETATM    7  C13 UNK     1       0.930  -0.048   2.566  1.00  0.00     0.038 A 
HETATM    8  C14 UNK     1      -0.353  -0.457   2.186  1.00  0.00     0.018 A 
HETATM    9  C15 UNK     1      -2.020  -1.012   0.377  1.00  0.00    -0.007 A 
HETATM   10  C16 UNK     1      -2.240  -1.107  -0.945  1.00  0.00     0.095 A 
HETATM   11  C17 UNK     1      -1.213  -0.809  -1.959  1.00  0.00     0.289 A 
ENDROOT
BRANCH   3  12
HETATM   12  C6  UNK     1       2.607   0.409  -0.793  1.00  0.00     0.317 C 
BRANCH  12  13
HETATM   13  N1  UNK     1       2.061   1.224  -1.882  1.00  0.00     0.101 N 
HETATM   14  C1  UNK     1       1.556   2.518  -1.372  1.00  0.00     0.220 C 
HETATM   15  C3  UNK     1       2.678   3.526  -1.066  1.00  0.00     0.035 C 
HETATM   16  C7  UNK     1       0.511   3.108  -2.331  1.00  0.00     0.043 C 
HETATM   17  C5  UNK     1       3.646   3.701  -2.230  1.00  0.00     0.004 C 
HETATM   18  C4  UNK     1       4.150   2.351  -2.728  1.00  0.00     0.035 C 
HETATM   19  C2  UNK     1       2.986   1.390  -3.026  1.00  0.00     0.220 C 
HETATM   20  C8  UNK     1       3.520   0.061  -3.574  1.00  0.00     0.043 C 
ENDBRANCH  12  13
ENDBRANCH   3  12
BRANCH   5  21
HETATM   21  O2  UNK     1       3.137   0.630   1.993  1.00  0.00    -0.360 OA
HETATM   22  H20 UNK     1       3.167   0.660   2.965  1.00  0.00     0.217 HD
ENDBRANCH   5  21
BRANCH   9  23
HETATM   23  C18 UNK     1      -3.154  -1.348   1.231  1.00  0.00    -0.025 A 
HETATM   24  C19 UNK     1      -4.052  -0.354   1.613  1.00  0.00     0.012 A 
HETATM   25  C21 UNK     1      -5.136  -0.675   2.430  1.00  0.00     0.001 A 
HETATM   26  C23 UNK     1      -5.319  -1.988   2.862  1.00  0.00     0.000 A 
HETATM   27  C22 UNK     1      -4.418  -2.981   2.478  1.00  0.00     0.001 A 
HETATM   28  C20 UNK     1      -3.333  -2.660   1.661  1.00  0.00     0.012 A 
ENDBRANCH   9  23
TORSDOF 4
