REMARK  3 active torsions:
REMARK  status: ('A' for Active; 'I' for Inactive)
REMARK    1  A    between atoms: C11_15  and  O2_3 
REMARK    2  A    between atoms: C6_10  and  O2_3 
REMARK    3  A    between atoms: C11_15  and  C12_16 
ROOT
HETATM    1  I1  UNK     1      -2.449  -0.127  -1.887  1.00  0.00    -0.039 I 
HETATM    2  O1  UNK     1       0.576   0.730  -2.244  1.00  0.00    -0.273 OA
HETATM    3  O3  UNK     1       2.015   1.227  -3.949  1.00  0.00    -0.260 OA
HETATM    4  C1  UNK     1       1.379   0.815   0.061  1.00  0.00     0.005 A 
HETATM    5  C2  UNK     1       0.355   0.587  -0.859  1.00  0.00     0.109 A 
HETATM    6  C3  UNK     1       2.702   1.209  -0.441  1.00  0.00    -0.043 A 
HETATM    7  C4  UNK     1       1.079   0.652   1.421  1.00  0.00     0.017 A 
HETATM    8  C5  UNK     1      -0.931   0.211  -0.467  1.00  0.00     0.074 A 
HETATM    9  C6  UNK     1      -1.208   0.054   0.887  1.00  0.00     0.088 A 
HETATM   10  C7  UNK     1      -0.205   0.274   1.829  1.00  0.00     0.039 A 
HETATM   11  C8  UNK     1       2.883   1.337  -1.763  1.00  0.00     0.090 A 
HETATM   12  C9  UNK     1       3.824   1.461   0.524  1.00  0.00     0.049 C 
HETATM   13  C10 UNK     1       1.813   1.100  -2.746  1.00  0.00     0.288 A 
ENDROOT
BRANCH   9  14
HETATM   14  O2  UNK     1      -2.441  -0.313   1.340  1.00  0.00    -0.346 OA
BRANCH  14  15
HETATM   15  C11 UNK     1      -2.521  -1.523   2.089  1.00  0.00     0.202 C 
BRANCH  15  16
HETATM   16  C12 UNK     1      -3.885  -2.104   1.918  1.00  0.00    -0.011 C 
HETATM   17  C13 UNK     1      -4.123  -3.313   1.399  1.00  0.00     0.009 C 
ENDBRANCH  15  16
ENDBRANCH  14  15
ENDBRANCH   9  14
TORSDOF 3
