REMARK  2 active torsions:
REMARK  status: ('A' for Active; 'I' for Inactive)
REMARK    1  A    between atoms: C8_15  and  N1_6 
REMARK    2  A    between atoms: C1_8  and  C4_11 
ROOT
HETATM    1  O1  UNK     1       1.463   1.006   1.154  1.00  0.00    -0.291 OA
HETATM    2  O2  UNK     1       1.122   0.001  -2.893  1.00  0.00    -0.274 OA
HETATM    3  O3  UNK     1      -0.428  -1.587  -2.372  1.00  0.00    -0.259 OA
HETATM    4  N2  UNK     1      -1.143  -2.072   3.787  1.00  0.00    -0.191 NA
HETATM    5  C1  UNK     1      -0.467  -0.998   0.446  1.00  0.00     0.113 C 
HETATM    6  C2  UNK     1       0.421  -0.297  -0.564  1.00  0.00     0.066 A 
HETATM    7  C3  UNK     1       1.297   0.640  -0.170  1.00  0.00     0.104 A 
HETATM    8  C5  UNK     1      -0.065  -0.683   1.884  1.00  0.00     0.086 C 
HETATM    9  C6  UNK     1       2.137   1.344  -1.136  1.00  0.00     0.033 A 
HETATM   10  C7  UNK     1       0.322  -0.693  -1.993  1.00  0.00     0.298 A 
HETATM   11  C8  UNK     1       0.844   0.277   2.168  1.00  0.00     0.159 C 
HETATM   12  C9  UNK     1       2.020   1.004  -2.481  1.00  0.00     0.092 A 
HETATM   13  C12 UNK     1       3.051   2.344  -0.785  1.00  0.00     0.017 A 
HETATM   14  C13 UNK     1       2.778   1.628  -3.472  1.00  0.00     0.038 A 
HETATM   15  C16 UNK     1       3.819   2.979  -1.767  1.00  0.00     0.001 A 
HETATM   16  C17 UNK     1      -0.661  -1.451   2.935  1.00  0.00     0.100 C 
HETATM   17  C18 UNK     1       3.682   2.621  -3.108  1.00  0.00     0.003 A 
ENDROOT
BRANCH   5  18
HETATM   18  C4  UNK     1      -1.906  -0.635   0.222  1.00  0.00     0.016 A 
HETATM   19  C10 UNK     1      -2.851  -1.600  -0.113  1.00  0.00     0.044 A 
HETATM   20 Cl1  UNK     1      -2.422  -3.263  -0.287  1.00  0.00    -0.084 Cl
HETATM   21  C14 UNK     1      -4.180  -1.228  -0.314  1.00  0.00     0.024 A 
HETATM   22  C19 UNK     1      -4.558   0.108  -0.179  1.00  0.00     0.005 A 
HETATM   23  C15 UNK     1      -3.607   1.071   0.157  1.00  0.00     0.043 A 
HETATM   24  C11 UNK     1      -2.278   0.699   0.357  1.00  0.00     0.125 A 
HETATM   25  F1  UNK     1      -1.373   1.633   0.681  1.00  0.00    -0.205 F 
ENDBRANCH   5  18
BRANCH  11  26
HETATM   26  N1  UNK     1       1.249   0.632   3.425  1.00  0.00    -0.379 N 
HETATM   27  H7  UNK     1       1.938   1.367   3.527  1.00  0.00     0.158 HD
HETATM   28  H8  UNK     1       0.868   0.175   4.244  1.00  0.00     0.158 HD
ENDBRANCH  11  26
TORSDOF 2
