REMARK  7 active torsions:
REMARK  status: ('A' for Active; 'I' for Inactive)
REMARK    1  A    between atoms: C1_9  and  O1_2 
REMARK    2  A    between atoms: C24_32  and  O6_7 
REMARK    3  A    between atoms: C6_14  and  N1_8 
REMARK    4  A    between atoms: C1_9  and  C5_13 
REMARK    5  A    between atoms: C5_13  and  C9_17 
REMARK    6  A    between atoms: C10_18  and  C6_14 
REMARK    7  A    between atoms: C13_21  and  C9_17 
ROOT
HETATM    1 Br1  UNK     1       1.124   4.441  -5.429  1.00  0.00    -0.051 Br
HETATM    2  O2  UNK     1       2.032  -1.562  -0.690  1.00  0.00    -0.269 OA
HETATM    3  N1  UNK     1       2.942   0.560  -1.180  1.00  0.00    -0.310 N 
HETATM    4  C1  UNK     1       1.080  -0.150  -2.461  1.00  0.00     0.175 A 
HETATM    5  C2  UNK     1       1.570   1.206  -2.887  1.00  0.00     0.014 A 
HETATM    6  C3  UNK     1       2.664   1.578  -2.103  1.00  0.00     0.047 A 
HETATM    7  C4  UNK     1       2.052  -0.515  -1.320  1.00  0.00     0.264 A 
HETATM    8  C7  UNK     1       1.096   2.042  -3.883  1.00  0.00     0.032 A 
HETATM    9  C8  UNK     1       3.313   2.787  -2.284  1.00  0.00     0.032 A 
HETATM   10  C11 UNK     1       1.739   3.267  -4.079  1.00  0.00     0.011 A 
HETATM   11  C12 UNK     1       2.838   3.636  -3.286  1.00  0.00     0.021 A 
ENDROOT
BRANCH   4  12
HETATM   12  O1  UNK     1       1.258  -1.078  -3.513  1.00  0.00    -0.375 OA
HETATM   13  H7  UNK     1       1.082  -1.972  -3.175  1.00  0.00     0.211 HD
ENDBRANCH   4  12
BRANCH   4  14
HETATM   14  C5  UNK     1      -0.363  -0.147  -1.977  1.00  0.00     0.137 C 
BRANCH  14  15
HETATM   15  C9  UNK     1      -0.825  -1.522  -1.544  1.00  0.00     0.169 C 
HETATM   16  O3  UNK     1      -0.411  -2.569  -2.033  1.00  0.00    -0.292 OA
BRANCH  15  17
HETATM   17  C13 UNK     1      -1.835  -1.562  -0.468  1.00  0.00     0.086 A 
HETATM   18  C16 UNK     1      -2.674  -0.522  -0.405  1.00  0.00     0.035 A 
HETATM   19  C18 UNK     1      -3.704  -0.471   0.622  1.00  0.00     0.002 A 
HETATM   20  C19 UNK     1      -3.799  -1.519   1.532  1.00  0.00     0.123 A 
HETATM   21  C23 UNK     1      -4.602   0.594   0.724  1.00  0.00     0.014 A 
HETATM   22  O4  UNK     1      -2.913  -2.611   1.461  1.00  0.00    -0.271 OA
HETATM   23  C24 UNK     1      -4.762  -1.531   2.538  1.00  0.00     0.102 A 
HETATM   24  C17 UNK     1      -1.918  -2.688   0.489  1.00  0.00     0.302 A 
HETATM   25  O5  UNK     1      -1.151  -3.644   0.435  1.00  0.00    -0.259 OA
HETATM   26  C26 UNK     1      -5.653  -0.465   2.634  1.00  0.00     0.040 A 
HETATM   27  C25 UNK     1      -5.573   0.596   1.729  1.00  0.00     0.004 A 
BRANCH  23  28
HETATM   28  O6  UNK     1      -4.843  -2.562   3.422  1.00  0.00    -0.353 OA
HETATM   29  C27 UNK     1      -4.078  -2.452   4.622  1.00  0.00     0.210 C 
ENDBRANCH  23  28
ENDBRANCH  15  17
ENDBRANCH  14  15
ENDBRANCH   4  14
BRANCH   3  30
HETATM   30  C6  UNK     1       4.021   0.631  -0.224  1.00  0.00     0.170 C 
BRANCH  30  31
HETATM   31  C10 UNK     1       3.579   1.251   1.075  1.00  0.00    -0.040 A 
HETATM   32  C14 UNK     1       3.678   2.625   1.246  1.00  0.00     0.009 A 
HETATM   33  C20 UNK     1       3.269   3.198   2.449  1.00  0.00     0.001 A 
HETATM   34  C22 UNK     1       2.765   2.393   3.470  1.00  0.00     0.000 A 
HETATM   35  C21 UNK     1       2.670   1.013   3.288  1.00  0.00     0.001 A 
HETATM   36  C15 UNK     1       3.079   0.439   2.084  1.00  0.00     0.009 A 
ENDBRANCH  30  31
ENDBRANCH   3  30
TORSDOF 7
