REMARK  4 active torsions:
REMARK  status: ('A' for Active; 'I' for Inactive)
REMARK    1  A    between atoms: C4_8  and  O1_3 
REMARK    2  A    between atoms: C3_7  and  C9_13 
REMARK    3  A    between atoms: C12_16  and  C9_13 
REMARK    4  A    between atoms: C13_17  and  C14_18 
ROOT
HETATM    1  C1  UNK     1       1.619   0.870  -1.115  1.00  0.00     0.008 A 
HETATM    2  C2  UNK     1       1.042   1.938  -1.842  1.00  0.00    -0.023 A 
HETATM    3  C3  UNK     1      -0.328  -0.503  -1.610  1.00  0.00     0.048 A 
HETATM    4  C4  UNK     1       0.921  -0.344  -1.009  1.00  0.00     0.090 A 
HETATM    5  C5  UNK     1      -0.216   1.761  -2.441  1.00  0.00     0.013 A 
HETATM    6  C6  UNK     1      -0.895   0.548  -2.324  1.00  0.00     0.019 A 
HETATM    7  C7  UNK     1       2.877   1.047  -0.517  1.00  0.00     0.015 A 
HETATM    8  C8  UNK     1       1.740   3.153  -1.949  1.00  0.00     0.012 A 
HETATM    9  C10 UNK     1       3.556   2.260  -0.633  1.00  0.00     0.001 A 
HETATM   10  C11 UNK     1       2.989   3.311  -1.348  1.00  0.00     0.001 A 
ENDROOT
BRANCH   3  11
HETATM   11  C9  UNK     1      -1.059  -1.758  -1.504  1.00  0.00     0.184 C 
HETATM   12  O2  UNK     1      -0.456  -2.838  -1.424  1.00  0.00    -0.287 OA
BRANCH  11  13
HETATM   13  C12 UNK     1      -2.560  -1.718  -1.526  1.00  0.00     0.056 C 
HETATM   14  C14 UNK     1      -3.238  -1.057  -0.575  1.00  0.00     0.015 C 
BRANCH  14  15
HETATM   15  C13 UNK     1      -2.613  -0.331   0.544  1.00  0.00    -0.034 A 
HETATM   16  C15 UNK     1      -1.804  -1.011   1.454  1.00  0.00     0.037 A 
HETATM   17  C17 UNK     1      -1.215  -0.323   2.515  1.00  0.00     0.056 A 
HETATM   18 Cl1  UNK     1      -0.223  -1.221   3.609  1.00  0.00    -0.083 Cl
HETATM   19  C19 UNK     1      -1.436   1.046   2.665  1.00  0.00     0.055 A 
HETATM   20  C18 UNK     1      -2.245   1.727   1.756  1.00  0.00     0.026 A 
HETATM   21 Cl2  UNK     1      -0.733   1.955   3.957  1.00  0.00    -0.083 Cl
HETATM   22  C16 UNK     1      -2.834   1.038   0.695  1.00  0.00     0.013 A 
ENDBRANCH  14  15
ENDBRANCH  11  13
ENDBRANCH   3  11
BRANCH   4  23
HETATM   23  O1  UNK     1       1.457  -1.394  -0.314  1.00  0.00    -0.359 OA
HETATM   24  H11 UNK     1       1.984  -1.063   0.431  1.00  0.00     0.217 HD
ENDBRANCH   4  23
TORSDOF 4
