REMARK  3 active torsions:
REMARK  status: ('A' for Active; 'I' for Inactive)
REMARK    1  A    between atoms: C6_11  and  O2_2 
REMARK    2  A    between atoms: C10_15  and  O4_4 
REMARK    3  A    between atoms: C10_15  and  C8_13 
ROOT
HETATM    1  O1  UNK     1      -0.376  -0.166   1.181  1.00  0.00    -0.303 OA
HETATM    2  O3  UNK     1      -2.043  -0.516  -2.524  1.00  0.00    -0.287 OA
HETATM    3  C1  UNK     1      -0.203   0.190  -1.217  1.00  0.00     0.048 A 
HETATM    4  C2  UNK     1       0.309   0.280   0.078  1.00  0.00     0.093 A 
HETATM    5  C3  UNK     1       1.567   0.843   0.293  1.00  0.00     0.075 A 
HETATM    6  C4  UNK     1       0.538   0.660  -2.303  1.00  0.00     0.021 A 
HETATM    7  C5  UNK     1      -1.534  -0.408  -1.417  1.00  0.00     0.187 A 
HETATM    8  C6  UNK     1       2.310   1.314  -0.790  1.00  0.00     0.070 A 
HETATM    9  C7  UNK     1       1.796   1.223  -2.084  1.00  0.00     0.038 A 
HETATM   10  C8  UNK     1      -1.621  -0.725   0.983  1.00  0.00     0.153 A 
HETATM   11  C9  UNK     1      -2.231  -0.873  -0.200  1.00  0.00     0.100 A 
ENDROOT
BRANCH  10  12
HETATM   12  C10 UNK     1      -2.336  -1.194   2.171  1.00  0.00     0.201 C 
HETATM   13  O5  UNK     1      -3.440  -1.708   2.156  1.00  0.00    -0.645 OA
BRANCH  12  14
HETATM   14  O4  UNK     1      -1.584  -0.970   3.270  1.00  0.00    -0.771 OA
HETATM   15  H8  UNK     1      -2.031  -1.272   4.090  1.00  0.00     0.167 HD
ENDBRANCH  12  14
ENDBRANCH  10  12
BRANCH   8  16
HETATM   16  O2  UNK     1       3.537   1.865  -0.583  1.00  0.00    -0.356 OA
HETATM   17  C11 UNK     1       4.243   2.328  -1.733  1.00  0.00     0.210 C 
ENDBRANCH   8  16
TORSDOF 3
