REMARK  5 active torsions:
REMARK  status: ('A' for Active; 'I' for Inactive)
REMARK    1  A    between atoms: C7_13  and  O2_2 
REMARK    2  A    between atoms: C5_11  and  O3_3 
REMARK    3  A    between atoms: C11_17  and  O4_4 
REMARK    4  A    between atoms: C12_18  and  O5_5 
REMARK    5  A    between atoms: C1_7  and  C2_8 
ROOT
HETATM    1  O1  UNK     1      -0.252  -1.510   0.276  1.00  0.00    -0.306 OA
HETATM    2  O6  UNK     1       1.786  -2.573   3.641  1.00  0.00    -0.284 OA
HETATM    3  C1  UNK     1      -0.070  -0.620   1.323  1.00  0.00     0.126 A 
HETATM    4  C3  UNK     1       0.992  -3.191   1.508  1.00  0.00     0.053 A 
HETATM    5  C4  UNK     1       0.283  -2.767   0.386  1.00  0.00     0.090 A 
HETATM    6  C5  UNK     1       0.585  -0.906   2.463  1.00  0.00     0.152 A 
HETATM    7  C6  UNK     1       1.177  -2.256   2.628  1.00  0.00     0.220 A 
HETATM    8  C8  UNK     1       1.514  -4.486   1.565  1.00  0.00     0.055 A 
HETATM    9  C10 UNK     1       0.090  -3.637  -0.688  1.00  0.00     0.041 A 
HETATM   10  C12 UNK     1       1.320  -5.354   0.489  1.00  0.00     0.069 A 
HETATM   11  C13 UNK     1       0.610  -4.930  -0.635  1.00  0.00     0.039 A 
ENDROOT
BRANCH   3  12
HETATM   12  C2  UNK     1      -0.694   0.693   1.077  1.00  0.00     0.037 A 
HETATM   13  C7  UNK     1       0.016   1.730   0.470  1.00  0.00     0.114 A 
HETATM   14  C11 UNK     1      -0.598   2.963   0.247  1.00  0.00     0.102 A 
HETATM   15  C15 UNK     1      -1.924   3.160   0.632  1.00  0.00     0.040 A 
HETATM   16  C14 UNK     1      -2.636   2.125   1.238  1.00  0.00     0.004 A 
HETATM   17  C9  UNK     1      -2.022   0.893   1.460  1.00  0.00     0.017 A 
BRANCH  13  18
HETATM   18  O2  UNK     1       1.315   1.551   0.089  1.00  0.00    -0.352 OA
HETATM   19  C16 UNK     1       2.286   2.410   0.680  1.00  0.00     0.210 C 
ENDBRANCH  13  18
BRANCH  14  20
HETATM   20  O4  UNK     1       0.085   3.982  -0.344  1.00  0.00    -0.353 OA
HETATM   21  C17 UNK     1       0.020   4.067  -1.766  1.00  0.00     0.210 C 
ENDBRANCH  14  20
ENDBRANCH   3  12
BRANCH   6  22
HETATM   22  O3  UNK     1       0.720  -0.008   3.500  1.00  0.00    -0.355 OA
HETATM   23  H7  UNK     1       0.293   0.831   3.266  1.00  0.00     0.218 HD
ENDBRANCH   6  22
BRANCH  10  24
HETATM   24  O5  UNK     1       1.823  -6.618   0.537  1.00  0.00    -0.356 OA
HETATM   25  C18 UNK     1       1.586  -7.454  -0.595  1.00  0.00     0.210 C 
ENDBRANCH  10  24
TORSDOF 5
