REMARK  2 active torsions:
REMARK  status: ('A' for Active; 'I' for Inactive)
REMARK       I    between atoms: C7_14  and  N1_4 
REMARK    1  A    between atoms: N1_4  and  N2_5 
REMARK    2  A    between atoms: C2_9  and  C7_14 
ROOT
HETATM    1  O1  UNK     1       0.756   0.758  -2.517  1.00  0.00    -0.274 OA
HETATM    2  O3  UNK     1      -1.318  -0.082  -2.057  1.00  0.00    -0.259 OA
HETATM    3  C1  UNK     1       2.260   1.310  -0.688  1.00  0.00    -0.001 A 
HETATM    4  C2  UNK     1       0.062   0.418  -0.197  1.00  0.00     0.110 A 
HETATM    5  C3  UNK     1       1.995   1.241  -2.052  1.00  0.00     0.089 A 
HETATM    6  C4  UNK     1       1.237   0.876   0.250  1.00  0.00     0.037 A 
HETATM    7  C5  UNK     1       3.501   1.793  -0.266  1.00  0.00     0.014 A 
HETATM    8  C6  UNK     1      -0.242   0.336  -1.644  1.00  0.00     0.304 A 
HETATM    9  C8  UNK     1       2.932   1.641  -3.003  1.00  0.00     0.038 A 
HETATM   10  C9  UNK     1       4.451   2.198  -1.208  1.00  0.00     0.001 A 
HETATM   11  C10 UNK     1       4.167   2.122  -2.573  1.00  0.00     0.003 A 
ENDROOT
BRANCH   4  12
HETATM   12  C7  UNK     1      -0.906   0.005   0.826  1.00  0.00     0.276 C 
HETATM   13  O2  UNK     1      -0.920   0.537   1.935  1.00  0.00    -0.266 OA
HETATM   14  N1  UNK     1      -1.742  -1.005   0.387  1.00  0.00    -0.257 N 
HETATM   15  H4  UNK     1      -1.686  -1.439  -0.528  1.00  0.00     0.191 HD
BRANCH  14  16
HETATM   16  N2  UNK     1      -2.703  -1.506   1.220  1.00  0.00    -0.237 N 
HETATM   17  C11 UNK     1      -2.558  -2.539   2.070  1.00  0.00     0.258 A 
HETATM   18  N3  UNK     1      -3.693  -2.726   2.704  1.00  0.00    -0.142 NA
HETATM   19  N4  UNK     1      -4.587  -1.781   2.241  1.00  0.00    -0.142 NA
HETATM   20  C12 UNK     1      -3.963  -1.054   1.343  1.00  0.00     0.258 A 
ENDBRANCH  14  16
ENDBRANCH   4  12
TORSDOF 2
