REMARK  4 active torsions:
REMARK  status: ('A' for Active; 'I' for Inactive)
REMARK    1  A    between atoms: C14_20  and  O4_4 
REMARK    2  A    between atoms: C5_11  and  N1_6 
REMARK       I    between atoms: C6_12  and  N1_6 
REMARK    3  A    between atoms: C1_7  and  C5_11 
REMARK    4  A    between atoms: C6_12  and  C7_13 
ROOT
HETATM    1  O2  UNK     1      -1.915  -0.503  -1.169  1.00  0.00    -0.274 OA
HETATM    2  O5  UNK     1      -0.188   0.534  -2.248  1.00  0.00    -0.259 OA
HETATM    3  C7  UNK     1       0.037   0.256   0.094  1.00  0.00     0.108 A 
HETATM    4  C8  UNK     1      -1.795  -0.844   1.235  1.00  0.00     0.002 A 
HETATM    5  C9  UNK     1      -0.493  -0.197   1.236  1.00  0.00     0.037 A 
HETATM    6  C10 UNK     1      -2.477  -0.982   0.030  1.00  0.00     0.089 A 
HETATM    7  C11 UNK     1      -0.670   0.120  -1.199  1.00  0.00     0.304 A 
HETATM    8  C12 UNK     1      -2.386  -1.333   2.403  1.00  0.00     0.051 A 
HETATM    9  C13 UNK     1      -3.727  -1.593  -0.040  1.00  0.00     0.041 A 
HETATM   10  C14 UNK     1      -3.640  -1.947   2.349  1.00  0.00     0.069 A 
HETATM   11  C15 UNK     1      -4.309  -2.077   1.130  1.00  0.00     0.039 A 
ENDROOT
BRANCH   3  12
HETATM   12  C6  UNK     1       1.355   0.894   0.197  1.00  0.00     0.257 C 
HETATM   13  O3  UNK     1       2.154   0.553   1.067  1.00  0.00    -0.267 OA
HETATM   14  N1  UNK     1       1.555   1.872  -0.760  1.00  0.00    -0.354 N 
HETATM   15  H10 UNK     1       0.822   2.095  -1.425  1.00  0.00     0.162 HD
BRANCH  14  16
HETATM   16  C5  UNK     1       2.776   2.641  -0.857  1.00  0.00     0.155 C 
BRANCH  16  17
HETATM   17  C1  UNK     1       3.784   1.969  -1.769  1.00  0.00     0.139 C 
HETATM   18  O1  UNK     1       3.243   1.856  -3.096  1.00  0.00    -0.384 OA
HETATM   19  C4  UNK     1       4.279   2.173  -4.037  1.00  0.00     0.168 C 
HETATM   20  C3  UNK     1       5.571   2.272  -3.255  1.00  0.00     0.029 C 
HETATM   21  C2  UNK     1       5.084   2.742  -1.907  1.00  0.00     0.035 C 
ENDBRANCH  16  17
ENDBRANCH  14  16
ENDBRANCH   3  12
BRANCH  10  22
HETATM   22  O4  UNK     1      -4.212  -2.421   3.490  1.00  0.00    -0.356 OA
HETATM   23  C16 UNK     1      -5.493  -3.037   3.366  1.00  0.00     0.210 C 
ENDBRANCH  10  22
TORSDOF 4
