REMARK  6 active torsions:
REMARK  status: ('A' for Active; 'I' for Inactive)
REMARK    1  A    between atoms: C20_26  and  O5_5 
REMARK       I    between atoms: C15_21  and  N1_6 
REMARK    2  A    between atoms: C17_23  and  N1_6 
REMARK    3  A    between atoms: C10_16  and  C7_13 
REMARK    4  A    between atoms: C10_16  and  C15_21 
REMARK    5  A    between atoms: C17_23  and  C18_24 
REMARK    6  A    between atoms: C18_24  and  C19_25 
ROOT
HETATM    1  O1  UNK     1      -0.897   1.437   0.484  1.00  0.00    -0.274 OA
HETATM    2  O2  UNK     1      -3.103  -1.453   3.648  1.00  0.00    -0.321 OA
HETATM    3  O3  UNK     1       0.117   2.801  -1.019  1.00  0.00    -0.259 OA
HETATM    4  C1  UNK     1      -2.132  -0.524  -0.263  1.00  0.00     0.006 A 
HETATM    5  C2  UNK     1      -1.675   0.298   0.767  1.00  0.00     0.099 A 
HETATM    6  C3  UNK     1      -1.781  -0.181  -1.659  1.00  0.00    -0.036 A 
HETATM    7  C4  UNK     1      -3.214  -1.905   1.438  1.00  0.00     0.007 A 
HETATM    8  C5  UNK     1      -1.942   0.075   2.125  1.00  0.00     0.008 A 
HETATM    9  C6  UNK     1      -2.718  -1.043   2.407  1.00  0.00     0.094 A 
HETATM   10  C7  UNK     1      -1.064   0.935  -1.913  1.00  0.00     0.033 A 
HETATM   11  C8  UNK     1      -2.919  -1.642   0.084  1.00  0.00     0.029 A 
HETATM   12  C9  UNK     1      -3.946  -2.897   2.143  1.00  0.00    -0.027 A 
HETATM   13  C11 UNK     1      -0.567   1.804  -0.808  1.00  0.00     0.295 A 
HETATM   14  C12 UNK     1      -2.244  -1.133  -2.735  1.00  0.00     0.050 C 
HETATM   15  C13 UNK     1      -1.427   0.984   3.187  1.00  0.00     0.054 C 
HETATM   16  C14 UNK     1      -3.846  -2.577   3.478  1.00  0.00     0.150 A 
HETATM   17  C16 UNK     1      -4.672  -4.046   1.570  1.00  0.00     0.051 C 
ENDROOT
BRANCH  10  18
HETATM   18  C10 UNK     1      -0.699   1.430  -3.289  1.00  0.00     0.148 C 
BRANCH  18  19
HETATM   19  C15 UNK     1       0.626   0.821  -3.682  1.00  0.00     0.222 C 
HETATM   20  O4  UNK     1       0.706  -0.250  -4.282  1.00  0.00    -0.273 OA
HETATM   21  N1  UNK     1       1.704   1.591  -3.277  1.00  0.00    -0.360 N 
HETATM   22  H18 UNK     1       1.536   2.462  -2.781  1.00  0.00     0.162 HD
BRANCH  21  23
HETATM   23  C17 UNK     1       3.078   1.213  -3.519  1.00  0.00     0.127 C 
BRANCH  23  24
HETATM   24  C18 UNK     1       3.663   0.373  -2.387  1.00  0.00     0.061 C 
BRANCH  24  25
HETATM   25  C19 UNK     1       3.632   1.079  -1.054  1.00  0.00    -0.023 A 
HETATM   26  C20 UNK     1       3.211   0.404   0.083  1.00  0.00     0.074 A 
HETATM   27  C22 UNK     1       3.189   1.072   1.307  1.00  0.00     0.037 A 
HETATM   28  C24 UNK     1       3.588   2.406   1.382  1.00  0.00     0.003 A 
HETATM   29  C23 UNK     1       4.010   3.073   0.231  1.00  0.00     0.001 A 
HETATM   30  C21 UNK     1       4.032   2.406  -0.993  1.00  0.00     0.010 A 
BRANCH  26  31
HETATM   31  O5  UNK     1       2.818  -0.899   0.028  1.00  0.00    -0.355 OA
HETATM   32  C25 UNK     1       2.402  -1.503   1.251  1.00  0.00     0.210 C 
ENDBRANCH  26  31
ENDBRANCH  24  25
ENDBRANCH  23  24
ENDBRANCH  21  23
ENDBRANCH  18  19
ENDBRANCH  10  18
TORSDOF 6
