REMARK  2 active torsions:
REMARK  status: ('A' for Active; 'I' for Inactive)
REMARK    1  A    between atoms: C7_13  and  N2_5 
REMARK    2  A    between atoms: C1_7  and  C5_11 
ROOT
HETATM    1  O1  UNK     1      -1.444   0.520   2.435  1.00  0.00    -0.274 OA
HETATM    2  O2  UNK     1      -0.199   2.254   1.645  1.00  0.00    -0.259 OA
HETATM    3  N1  UNK     1      -1.510  -1.098  -1.441  1.00  0.00    -0.340 N 
HETATM    4  N3  UNK     1       0.718   1.884  -4.485  1.00  0.00    -0.191 NA
HETATM    5  C1  UNK     1       0.013   1.243  -1.035  1.00  0.00     0.107 C 
HETATM    6  C2  UNK     1      -0.773   0.553   0.085  1.00  0.00     0.059 A 
HETATM    7  C3  UNK     1      -1.463  -0.577  -0.164  1.00  0.00     0.060 A 
HETATM    8  C4  UNK     1      -0.248   0.639  -2.426  1.00  0.00     0.079 C 
HETATM    9  C6  UNK     1      -2.181  -1.252   0.929  1.00  0.00     0.025 A 
HETATM   10  C7  UNK     1      -0.971  -0.503  -2.577  1.00  0.00     0.117 C 
HETATM   11  C8  UNK     1      -0.768   1.189   1.427  1.00  0.00     0.298 A 
HETATM   12  C9  UNK     1      -2.141  -0.679   2.200  1.00  0.00     0.092 A 
HETATM   13  C12 UNK     1      -2.903  -2.447   0.787  1.00  0.00     0.016 A 
HETATM   14  C13 UNK     1      -2.784  -1.248   3.302  1.00  0.00     0.038 A 
HETATM   15  C14 UNK     1       0.286   1.327  -3.564  1.00  0.00     0.100 C 
HETATM   16  C15 UNK     1      -3.554  -3.030   1.882  1.00  0.00     0.001 A 
HETATM   17  C18 UNK     1      -3.494  -2.431   3.138  1.00  0.00     0.003 A 
HETATM   18  H2  UNK     1      -2.036  -1.946  -1.608  1.00  0.00     0.167 HD
ENDROOT
BRANCH   5  19
HETATM   19  C5  UNK     1       1.484   1.204  -0.734  1.00  0.00    -0.044 A 
HETATM   20  C10 UNK     1       2.025   0.093  -0.099  1.00  0.00     0.010 A 
HETATM   21  C16 UNK     1       3.392   0.056   0.180  1.00  0.00     0.024 A 
HETATM   22  C19 UNK     1       4.206   1.130  -0.179  1.00  0.00     0.034 A 
HETATM   23  C17 UNK     1       3.654   2.241  -0.817  1.00  0.00     0.024 A 
HETATM   24 Cl1  UNK     1       5.892   1.084   0.164  1.00  0.00    -0.084 Cl
HETATM   25  C11 UNK     1       2.288   2.278  -1.096  1.00  0.00     0.010 A 
ENDBRANCH   5  19
BRANCH  10  26
HETATM   26  N2  UNK     1      -1.197  -1.081  -3.804  1.00  0.00    -0.384 N 
HETATM   27  H7  UNK     1      -0.821  -0.674  -4.651  1.00  0.00     0.157 HD
HETATM   28  H8  UNK     1      -1.748  -1.928  -3.850  1.00  0.00     0.157 HD
ENDBRANCH  10  26
TORSDOF 2
