REMARK  2 active torsions:
REMARK  status: ('A' for Active; 'I' for Inactive)
REMARK    1  A    between atoms: C4_7  and  C9_12 
REMARK    2  A    between atoms: C11_14  and  C7_10 
ROOT
HETATM    1  O1  UNK     1       2.931   1.283   2.007  1.00  0.00    -0.321 OA
HETATM    2  O2  UNK     1      -1.182  -0.802   3.438  1.00  0.00    -0.275 OA
HETATM    3  O3  UNK     1      -3.154  -1.789   4.037  1.00  0.00    -0.260 OA
HETATM    4  C1  UNK     1       1.360   0.725   0.482  1.00  0.00     0.012 A 
HETATM    5  C2  UNK     1      -0.749  -0.329   1.083  1.00  0.00     0.010 A 
HETATM    6  C3  UNK     1       1.699   0.728   1.831  1.00  0.00     0.088 A 
HETATM    7  C4  UNK     1       2.461   1.316  -0.193  1.00  0.00     0.009 A 
HETATM    8  C5  UNK     1       0.115   0.187   0.098  1.00  0.00     0.030 A 
HETATM    9  C6  UNK     1      -0.346  -0.294   2.419  1.00  0.00     0.093 A 
HETATM   10  C7  UNK     1      -2.063  -0.904   0.745  1.00  0.00    -0.007 A 
HETATM   11  C8  UNK     1       0.882   0.231   2.841  1.00  0.00     0.076 A 
HETATM   12  C10 UNK     1       3.384   1.636   0.775  1.00  0.00     0.155 A 
HETATM   13  C12 UNK     1      -2.830  -1.376   1.741  1.00  0.00     0.095 A 
HETATM   14  C13 UNK     1      -2.423  -1.348   3.157  1.00  0.00     0.289 A 
ENDROOT
BRANCH   7  15
HETATM   15  C9  UNK     1       2.671   1.575  -1.586  1.00  0.00    -0.023 A 
HETATM   16  C14 UNK     1       3.283   0.613  -2.394  1.00  0.00     0.012 A 
HETATM   17  C18 UNK     1       3.487   0.866  -3.750  1.00  0.00     0.001 A 
HETATM   18  C22 UNK     1       3.081   2.080  -4.303  1.00  0.00     0.000 A 
HETATM   19  C19 UNK     1       2.470   3.042  -3.499  1.00  0.00     0.001 A 
HETATM   20  C15 UNK     1       2.265   2.790  -2.142  1.00  0.00     0.012 A 
ENDBRANCH   7  15
BRANCH  10  21
HETATM   21  C11 UNK     1      -2.634  -1.017  -0.594  1.00  0.00    -0.025 A 
HETATM   22  C16 UNK     1      -2.397  -2.159  -1.354  1.00  0.00     0.012 A 
HETATM   23  C20 UNK     1      -2.945  -2.267  -2.632  1.00  0.00     0.001 A 
HETATM   24  C23 UNK     1      -3.727  -1.232  -3.145  1.00  0.00     0.000 A 
HETATM   25  C21 UNK     1      -3.962  -0.090  -2.380  1.00  0.00     0.001 A 
HETATM   26  C17 UNK     1      -3.414   0.018  -1.101  1.00  0.00     0.012 A 
ENDBRANCH  10  21
TORSDOF 2
