REMARK  5 active torsions:
REMARK  status: ('A' for Active; 'I' for Inactive)
REMARK    1  A    between atoms: C13_17  and  O3_3 
REMARK    2  A    between atoms: C15_19  and  O3_3 
REMARK    3  A    between atoms: C1_5  and  C2_6 
REMARK    4  A    between atoms: C1_5  and  C3_7 
REMARK    5  A    between atoms: C3_7  and  C6_10 
ROOT
HETATM    1  O1  UNK     1       0.712  -0.222   1.341  1.00  0.00    -0.274 OA
HETATM    2  O2  UNK     1      -0.582  -1.088   2.992  1.00  0.00    -0.259 OA
HETATM    3  C2  UNK     1      -1.448  -1.249   0.778  1.00  0.00     0.024 A 
HETATM    4  C4  UNK     1      -1.281  -0.959  -0.530  1.00  0.00    -0.037 A 
HETATM    5  C5  UNK     1      -0.038  -0.293  -0.972  1.00  0.00     0.005 A 
HETATM    6  C7  UNK     1       0.915   0.054  -0.020  1.00  0.00     0.093 A 
HETATM    7  C8  UNK     1      -0.428  -0.863   1.795  1.00  0.00     0.295 A 
HETATM    8  C9  UNK     1      -2.308  -1.263  -1.592  1.00  0.00     0.050 C 
HETATM    9  C10 UNK     1       0.256   0.009  -2.311  1.00  0.00     0.017 A 
HETATM   10  C12 UNK     1       2.116   0.685  -0.353  1.00  0.00     0.075 A 
HETATM   11  C13 UNK     1       2.384   0.981  -1.685  1.00  0.00     0.081 A 
HETATM   12  C14 UNK     1       1.454   0.641  -2.664  1.00  0.00     0.038 A 
ENDROOT
BRANCH   3  13
HETATM   13  C1  UNK     1      -2.634  -1.980   1.354  1.00  0.00     0.045 C 
BRANCH  13  14
HETATM   14  C3  UNK     1      -3.741  -1.013   1.754  1.00  0.00     0.004 C 
BRANCH  14  15
HETATM   15  C6  UNK     1      -4.948  -1.771   2.308  1.00  0.00    -0.004 C 
HETATM   16  C11 UNK     1      -6.078  -0.824   2.679  1.00  0.00     0.005 C 
ENDBRANCH  14  15
ENDBRANCH  13  14
ENDBRANCH   3  13
BRANCH  11  17
HETATM   17  O3  UNK     1       3.547   1.594  -2.030  1.00  0.00    -0.279 OA
BRANCH  17  18
HETATM   18  C15 UNK     1       3.476   2.998  -2.038  1.00  0.00     0.260 C 
HETATM   19  O4  UNK     1       2.486   3.665  -1.771  1.00  0.00    -0.265 OA
HETATM   20  C16 UNK     1       4.803   3.578  -2.430  1.00  0.00     0.126 C 
ENDBRANCH  17  18
ENDBRANCH  11  17
TORSDOF 5
