REMARK  2 active torsions:
REMARK  status: ('A' for Active; 'I' for Inactive)
REMARK       I    between atoms: C7_14  and  N1_6 
REMARK       I    between atoms: C10_17  and  N2_7 
REMARK    1  A    between atoms: C1_8  and  C7_14 
REMARK    2  A    between atoms: C10_17  and  C11_18 
ROOT
HETATM    1  O2  UNK     1      -3.257  -2.575   2.961  1.00  0.00    -0.270 OA
HETATM    2  O3  UNK     1       2.361   1.091   2.062  1.00  0.00    -0.267 OA
HETATM    3  N1  UNK     1      -2.038  -1.080   1.667  1.00  0.00    -0.347 N 
HETATM    4  N2  UNK     1       0.582  -0.107   1.161  1.00  0.00    -0.345 N 
HETATM    5  C2  UNK     1      -1.755  -0.407   0.395  1.00  0.00     0.145 C 
HETATM    6  C3  UNK     1      -1.203  -0.636   2.783  1.00  0.00     0.145 C 
HETATM    7  C5  UNK     1      -0.273  -0.515   0.034  1.00  0.00     0.146 C 
HETATM    8  C6  UNK     1       0.274  -0.771   2.432  1.00  0.00     0.146 C 
HETATM    9  C7  UNK     1      -3.042  -2.024   1.878  1.00  0.00     0.248 C 
HETATM   10  C10 UNK     1       1.663   0.768   1.098  1.00  0.00     0.260 C 
ENDROOT
BRANCH  10  11
HETATM   11  C11 UNK     1       2.004   1.348  -0.216  1.00  0.00     0.108 A 
HETATM   12  C12 UNK     1       2.876   0.656  -0.960  1.00  0.00     0.037 A 
HETATM   13  C14 UNK     1       3.274   1.147  -2.270  1.00  0.00    -0.001 A 
HETATM   14  C15 UNK     1       2.735   2.343  -2.733  1.00  0.00     0.089 A 
HETATM   15  C16 UNK     1       4.179   0.457  -3.080  1.00  0.00     0.014 A 
HETATM   16  O4  UNK     1       1.819   3.067  -1.945  1.00  0.00    -0.274 OA
HETATM   17  C17 UNK     1       3.075   2.868  -3.978  1.00  0.00     0.038 A 
HETATM   18  C13 UNK     1       1.418   2.622  -0.689  1.00  0.00     0.304 A 
HETATM   19  O5  UNK     1       0.620   3.260  -0.010  1.00  0.00    -0.259 OA
HETATM   20  C19 UNK     1       3.979   2.174  -4.779  1.00  0.00     0.003 A 
HETATM   21  C18 UNK     1       4.530   0.971  -4.332  1.00  0.00     0.001 A 
ENDBRANCH  10  11
BRANCH   9  22
HETATM   22  C1  UNK     1      -3.893  -2.372   0.697  1.00  0.00     0.213 C 
HETATM   23  O1  UNK     1      -4.802  -3.384   1.138  1.00  0.00    -0.376 OA
HETATM   24  C9  UNK     1      -6.136  -2.863   1.068  1.00  0.00     0.168 C 
HETATM   25  C8  UNK     1      -6.005  -1.359   0.988  1.00  0.00     0.029 C 
HETATM   26  C4  UNK     1      -4.720  -1.197   0.212  1.00  0.00     0.043 C 
ENDBRANCH   9  22
TORSDOF 2
