REMARK  3 active torsions:
REMARK  status: ('A' for Active; 'I' for Inactive)
REMARK    1  A    between atoms: C11_15  and  O2_2 
REMARK    2  A    between atoms: C5_9  and  O2_2 
REMARK    3  A    between atoms: C11_15  and  C12_16 
ROOT
HETATM    1  O1  UNK     1      -2.242  -0.595  -0.795  1.00  0.00    -0.275 OA
HETATM    2  O3  UNK     1      -4.229  -1.725  -0.843  1.00  0.00    -0.260 OA
HETATM    3  C1  UNK     1      -0.975  -0.492   1.291  1.00  0.00     0.004 A 
HETATM    4  C2  UNK     1      -1.118  -0.169  -0.059  1.00  0.00     0.092 A 
HETATM    5  C3  UNK     1      -2.024  -1.292   1.938  1.00  0.00    -0.043 A 
HETATM    6  C4  UNK     1       0.171  -0.031   1.952  1.00  0.00     0.017 A 
HETATM    7  C5  UNK     1       0.963   1.034  -0.076  1.00  0.00     0.071 A 
HETATM    8  C6  UNK     1      -0.168   0.586  -0.750  1.00  0.00     0.075 A 
HETATM    9  C7  UNK     1       1.133   0.726   1.273  1.00  0.00     0.038 A 
HETATM   10  C8  UNK     1      -3.082  -1.683   1.213  1.00  0.00     0.090 A 
HETATM   11  C9  UNK     1      -1.900  -1.656   3.389  1.00  0.00     0.049 C 
HETATM   12  C10 UNK     1      -3.247  -1.350  -0.212  1.00  0.00     0.288 A 
ENDROOT
BRANCH   7  13
HETATM   13  O2  UNK     1       1.901   1.771  -0.730  1.00  0.00    -0.344 OA
BRANCH  13  14
HETATM   14  C11 UNK     1       2.062   1.526  -2.127  1.00  0.00     0.253 C 
BRANCH  14  15
HETATM   15  C12 UNK     1       3.483   1.816  -2.560  1.00  0.00     0.146 C 
HETATM   16  O4  UNK     1       4.347   2.198  -1.773  1.00  0.00    -0.296 OA
HETATM   17  C13 UNK     1       3.789   1.611  -4.020  1.00  0.00     0.093 C 
ENDBRANCH  14  15
ENDBRANCH  13  14
ENDBRANCH   7  13
TORSDOF 3
