REMARK  5 active torsions:
REMARK  status: ('A' for Active; 'I' for Inactive)
REMARK    1  A    between atoms: C15_21  and  N1_4 
REMARK    2  A    between atoms: C16_22  and  N1_4 
REMARK    3  A    between atoms: C7_13  and  N1_4 
REMARK    4  A    between atoms: C10_16  and  N2_5 
REMARK    5  A    between atoms: C1_7  and  C3_9 
ROOT
HETATM    1  O1  UNK     1       1.609   0.155  -2.671  1.00  0.00    -0.291 OA
HETATM    2  O2  UNK     1       2.003   2.630   0.679  1.00  0.00    -0.274 OA
HETATM    3  O3  UNK     1      -0.266   2.746   0.865  1.00  0.00    -0.259 OA
HETATM    4  N3  UNK     1      -3.046  -0.190  -3.862  1.00  0.00    -0.191 NA
HETATM    5  C1  UNK     1      -0.799   0.963  -1.333  1.00  0.00     0.108 C 
HETATM    6  C2  UNK     1       0.589   1.385  -0.888  1.00  0.00     0.066 A 
HETATM    7  C4  UNK     1       1.677   0.964  -1.551  1.00  0.00     0.104 A 
HETATM    8  C5  UNK     1      -0.780   0.256  -2.685  1.00  0.00     0.086 C 
HETATM    9  C6  UNK     1       3.019   1.338  -1.115  1.00  0.00     0.033 A 
HETATM   10  C10 UNK     1       0.381  -0.114  -3.272  1.00  0.00     0.159 C 
HETATM   11  C11 UNK     1       0.714   2.299   0.277  1.00  0.00     0.298 A 
HETATM   12  C14 UNK     1       3.144   2.162  -0.000  1.00  0.00     0.092 A 
HETATM   13  C17 UNK     1       4.190   0.910  -1.754  1.00  0.00     0.017 A 
HETATM   14  C18 UNK     1       4.386   2.566   0.489  1.00  0.00     0.038 A 
HETATM   15  C19 UNK     1      -2.032   0.010  -3.335  1.00  0.00     0.100 C 
HETATM   16  C22 UNK     1       5.443   1.306  -1.276  1.00  0.00     0.001 A 
HETATM   17  C23 UNK     1       5.541   2.132  -0.156  1.00  0.00     0.003 A 
ENDROOT
BRANCH   5  18
HETATM   18  C3  UNK     1      -1.437   0.082  -0.298  1.00  0.00    -0.044 A 
HETATM   19  C8  UNK     1      -2.607   0.494   0.328  1.00  0.00     0.010 A 
HETATM   20  C12 UNK     1      -3.201  -0.324   1.289  1.00  0.00     0.030 A 
HETATM   21  C7  UNK     1      -2.619  -1.549   1.617  1.00  0.00     0.030 A 
HETATM   22  C13 UNK     1      -1.445  -1.955   0.984  1.00  0.00     0.030 A 
HETATM   23  C9  UNK     1      -0.851  -1.137   0.023  1.00  0.00     0.010 A 
BRANCH  21  24
HETATM   24  N1  UNK     1      -3.219  -2.377   2.588  1.00  0.00    -0.382 N 
BRANCH  24  25
HETATM   25  C15 UNK     1      -4.440  -1.965   3.252  1.00  0.00     0.118 C 
HETATM   26  C20 UNK     1      -4.123  -0.996   4.375  1.00  0.00     0.026 C 
ENDBRANCH  24  25
BRANCH  24  27
HETATM   27  C16 UNK     1      -2.630  -3.658   2.926  1.00  0.00     0.118 C 
HETATM   28  C21 UNK     1      -1.623  -3.490   4.047  1.00  0.00     0.026 C 
ENDBRANCH  24  27
ENDBRANCH  21  24
ENDBRANCH   5  18
BRANCH  10  29
HETATM   29  N2  UNK     1       0.485  -0.763  -4.471  1.00  0.00    -0.379 N 
HETATM   30  H18 UNK     1       1.406  -0.993  -4.822  1.00  0.00     0.158 HD
HETATM   31  H19 UNK     1      -0.339  -1.013  -5.002  1.00  0.00     0.158 HD
ENDBRANCH  10  29
TORSDOF 5
