REMARK  13 active torsions:
REMARK  status: ('A' for Active; 'I' for Inactive)
REMARK    1  A    between atoms: C12_22  and  O2_6 
REMARK    2  A    between atoms: C20_30  and  O2_6 
REMARK    3  A    between atoms: C18_28  and  O3_7 
REMARK    4  A    between atoms: C21_31  and  O3_7 
REMARK    5  A    between atoms: C1_11  and  N1_10 
REMARK    6  A    between atoms: C2_12  and  N1_10 
REMARK    7  A    between atoms: C5_15  and  N1_10 
REMARK    8  A    between atoms: C1_11  and  C3_13 
REMARK    9  A    between atoms: C2_12  and  C4_14 
REMARK   10  A    between atoms: C5_15  and  C6_16 
REMARK   11  A    between atoms: C17_27  and  C19_29 
REMARK   12  A    between atoms: C20_30  and  C22_32 
REMARK   13  A    between atoms: C25_35  and  C26_36 
ROOT
HETATM    1  O1  UNK     1      -1.282  -1.676  -0.091  1.00  0.00    -0.301 OA
HETATM    2  O4  UNK     1      -1.565  -1.354   3.959  1.00  0.00    -0.284 OA
HETATM    3  C6  UNK     1       0.345   0.032  -0.183  1.00  0.00     0.039 A 
HETATM    4  C11 UNK     1      -0.514  -0.760   0.580  1.00  0.00     0.101 A 
HETATM    5  C12 UNK     1       1.152   0.983   0.442  1.00  0.00     0.090 A 
HETATM    6  C13 UNK     1      -0.563  -0.600   1.963  1.00  0.00     0.052 A 
HETATM    7  C14 UNK     1       1.101   1.142   1.827  1.00  0.00     0.039 A 
HETATM    8  C15 UNK     1       0.244   0.351   2.593  1.00  0.00     0.021 A 
HETATM    9  C16 UNK     1      -1.476  -1.449   2.743  1.00  0.00     0.221 A 
HETATM   10  C17 UNK     1      -2.146  -2.481   0.636  1.00  0.00     0.197 A 
HETATM   11  C18 UNK     1      -2.284  -2.423   1.972  1.00  0.00     0.165 A 
ENDROOT
BRANCH   5  12
HETATM   12  O2  UNK     1       1.997   1.767  -0.285  1.00  0.00    -0.275 OA
BRANCH  12  13
HETATM   13  C20 UNK     1       3.275   1.222  -0.455  1.00  0.00     0.288 C 
HETATM   14  O5  UNK     1       3.666   0.150  -0.021  1.00  0.00    -0.260 OA
BRANCH  13  15
HETATM   15  C22 UNK     1       4.081   2.172  -1.257  1.00  0.00     0.083 C 
HETATM   16  C25 UNK     1       5.353   1.869  -1.556  1.00  0.00     0.017 C 
BRANCH  16  17
HETATM   17  C26 UNK     1       6.257   2.734  -2.334  1.00  0.00    -0.036 A 
HETATM   18  C30 UNK     1       5.732   3.729  -3.159  1.00  0.00     0.012 A 
HETATM   19  C33 UNK     1       6.588   4.548  -3.896  1.00  0.00     0.007 A 
HETATM   20  C32 UNK     1       7.969   4.371  -3.808  1.00  0.00    -0.062 A 
HETATM   21  C34 UNK     1       8.494   3.375  -2.984  1.00  0.00     0.007 A 
HETATM   22  C35 UNK     1       8.884   5.246  -4.596  1.00  0.00     0.048 C 
HETATM   23  C31 UNK     1       7.638   2.557  -2.247  1.00  0.00     0.012 A 
ENDBRANCH  16  17
ENDBRANCH  13  15
ENDBRANCH  12  13
ENDBRANCH   5  12
BRANCH   3  24
HETATM   24  C5  UNK     1       0.405  -0.131  -1.669  1.00  0.00     0.316 C 
BRANCH  24  25
HETATM   25  N1  UNK     1      -0.551   0.732  -2.360  1.00  0.00     0.093 N 
BRANCH  25  26
HETATM   26  C1  UNK     1      -0.808   0.233  -3.710  1.00  0.00     0.276 C 
BRANCH  26  27
HETATM   27  C3  UNK     1      -1.863  -0.887  -3.732  1.00  0.00     0.006 C 
HETATM   28  C8  UNK     1      -3.185  -0.360  -3.168  1.00  0.00     0.011 C 
HETATM   29  C7  UNK     1      -2.091  -1.451  -5.137  1.00  0.00     0.011 C 
ENDBRANCH  26  27
ENDBRANCH  25  26
BRANCH  25  30
HETATM   30  C2  UNK     1      -0.055   2.107  -2.409  1.00  0.00     0.276 C 
BRANCH  30  31
HETATM   31  C4  UNK     1      -1.187   3.133  -2.594  1.00  0.00     0.006 C 
HETATM   32  C10 UNK     1      -2.171   3.032  -1.426  1.00  0.00     0.011 C 
HETATM   33  C9  UNK     1      -0.665   4.569  -2.704  1.00  0.00     0.011 C 
ENDBRANCH  30  31
ENDBRANCH  25  30
ENDBRANCH  24  25
ENDBRANCH   3  24
BRANCH  10  34
HETATM   34  C19 UNK     1      -2.916  -3.430  -0.233  1.00  0.00     0.442 C 
HETATM   35  F1  UNK     1      -3.743  -4.195   0.506  1.00  0.00    -0.164 F 
HETATM   36  F2  UNK     1      -3.663  -2.761  -1.134  1.00  0.00    -0.164 F 
HETATM   37  F3  UNK     1      -2.086  -4.249  -0.909  1.00  0.00    -0.164 F 
ENDBRANCH  10  34
BRANCH  11  38
HETATM   38  O3  UNK     1      -3.152  -3.239   2.664  1.00  0.00    -0.304 OA
BRANCH  38  39
HETATM   39  C21 UNK     1      -4.135  -2.624   3.388  1.00  0.00     0.076 A 
HETATM   40  C24 UNK     1      -4.413  -3.047   4.688  1.00  0.00     0.039 A 
HETATM   41  C28 UNK     1      -5.418  -2.421   5.425  1.00  0.00     0.026 A 
HETATM   42  C29 UNK     1      -6.144  -1.371   4.864  1.00  0.00     0.034 A 
HETATM   43  C27 UNK     1      -5.866  -0.947   3.564  1.00  0.00     0.026 A 
HETATM   44 Cl1  UNK     1      -7.382  -0.596   5.774  1.00  0.00    -0.084 Cl
HETATM   45  C23 UNK     1      -4.862  -1.574   2.826  1.00  0.00     0.039 A 
ENDBRANCH  38  39
ENDBRANCH  11  38
TORSDOF 13
