REMARK  6 active torsions:
REMARK  status: ('A' for Active; 'I' for Inactive)
REMARK    1  A    between atoms: C10_17  and  O2_2 
REMARK    2  A    between atoms: C4_11  and  O2_2 
REMARK    3  A    between atoms: C15_22  and  O3_3 
REMARK    4  A    between atoms: C5_12  and  O3_3 
REMARK    5  A    between atoms: C18_25  and  N1_7 
REMARK    6  A    between atoms: C10_17  and  C11_18 
ROOT
HETATM    1  O1  UNK     1      -0.863  -0.038   2.618  1.00  0.00    -0.311 OA
HETATM    2  O4  UNK     1      -2.845  -2.872   0.467  1.00  0.00    -0.284 OA
HETATM    3  C1  UNK     1      -1.164  -1.219   0.519  1.00  0.00     0.051 A 
HETATM    4  C2  UNK     1      -0.526  -0.266   1.309  1.00  0.00     0.092 A 
HETATM    5  C3  UNK     1      -2.248  -2.019   1.109  1.00  0.00     0.221 A 
HETATM    6  C4  UNK     1       0.895   0.320  -0.553  1.00  0.00     0.071 A 
HETATM    7  C5  UNK     1      -2.576  -1.735   2.526  1.00  0.00     0.156 A 
HETATM    8  C6  UNK     1       0.505   0.506   0.773  1.00  0.00     0.075 A 
HETATM    9  C7  UNK     1      -1.885  -0.787   3.183  1.00  0.00     0.087 A 
HETATM   10  C8  UNK     1      -0.777  -1.409  -0.810  1.00  0.00     0.021 A 
HETATM   11  C9  UNK     1       0.255  -0.635  -1.343  1.00  0.00     0.038 A 
HETATM   12  C12 UNK     1      -2.138  -0.424   4.616  1.00  0.00     0.080 C 
ENDROOT
BRANCH   6  13
HETATM   13  O2  UNK     1       1.901   1.073  -1.078  1.00  0.00    -0.347 OA
BRANCH  13  14
HETATM   14  C10 UNK     1       2.249   0.831  -2.440  1.00  0.00     0.214 C 
BRANCH  14  15
HETATM   15  C11 UNK     1       3.390   1.728  -2.821  1.00  0.00    -0.034 A 
HETATM   16  C13 UNK     1       4.698   1.291  -2.644  1.00  0.00     0.012 A 
HETATM   17  C16 UNK     1       5.758   2.125  -2.999  1.00  0.00     0.037 A 
HETATM   18  C18 UNK     1       5.504   3.390  -3.528  1.00  0.00     0.102 A 
HETATM   19  C17 UNK     1       4.190   3.822  -3.702  1.00  0.00     0.037 A 
HETATM   20  C14 UNK     1       3.129   2.988  -3.347  1.00  0.00     0.012 A 
BRANCH  18  21
HETATM   21  N1  UNK     1       6.584   4.237  -3.890  1.00  0.00    -0.116 N 
HETATM   22  O5  UNK     1       7.760   3.829  -3.726  1.00  0.00    -0.532 OA
HETATM   23  O6  UNK     1       6.335   5.372  -4.364  1.00  0.00    -0.532 OA
ENDBRANCH  18  21
ENDBRANCH  14  15
ENDBRANCH  13  14
ENDBRANCH   6  13
BRANCH   7  24
HETATM   24  O3  UNK     1      -3.586  -2.461   3.118  1.00  0.00    -0.304 OA
BRANCH  24  25
HETATM   25  C15 UNK     1      -4.828  -2.367   2.556  1.00  0.00     0.076 A 
HETATM   26  C19 UNK     1      -5.328  -1.121   2.188  1.00  0.00     0.037 A 
HETATM   27  C21 UNK     1      -6.597  -1.026   1.615  1.00  0.00     0.003 A 
HETATM   28  C23 UNK     1      -7.359  -2.177   1.412  1.00  0.00     0.000 A 
HETATM   29  C22 UNK     1      -6.853  -3.423   1.783  1.00  0.00     0.003 A 
HETATM   30  C20 UNK     1      -5.585  -3.518   2.356  1.00  0.00     0.037 A 
ENDBRANCH  24  25
ENDBRANCH   7  24
TORSDOF 6
