REMARK  4 active torsions:
REMARK  status: ('A' for Active; 'I' for Inactive)
REMARK    1  A    between atoms: N1_2  and  N2_3 
REMARK       I    between atoms: C19_23  and  N2_3 
REMARK       I    between atoms: C19_23  and  N3_4 
REMARK    2  A    between atoms: C1_5  and  C7_11 
REMARK    3  A    between atoms: C12_16  and  C8_12 
REMARK    4  A    between atoms: C15_19  and  C8_12 
ROOT
HETATM    1  C7  UNK     1       0.168   0.064   1.405  1.00  0.00     0.026 C 
HETATM    2  C8  UNK     1       0.747   0.460   0.255  1.00  0.00    -0.006 C 
ENDROOT
BRANCH   2   3
HETATM    3  C12 UNK     1       2.075   1.091   0.174  1.00  0.00    -0.025 A 
HETATM    4  C14 UNK     1       2.176   2.470   0.253  1.00  0.00     0.012 A 
HETATM    5  C17 UNK     1       3.433   3.069   0.175  1.00  0.00     0.001 A 
HETATM    6  C18 UNK     1       4.573   2.280   0.018  1.00  0.00     0.000 A 
HETATM    7  C16 UNK     1       4.455   0.893  -0.059  1.00  0.00     0.001 A 
HETATM    8  C13 UNK     1       3.198   0.294   0.019  1.00  0.00     0.012 A 
ENDBRANCH   2   3
BRANCH   2   9
HETATM    9  C15 UNK     1      -0.055   0.226  -0.981  1.00  0.00     0.151 C 
HETATM   10  N1  UNK     1       0.357   0.560  -2.162  1.00  0.00    -0.182 NA
BRANCH  10  11
HETATM   11  N2  UNK     1      -0.516   0.266  -3.151  1.00  0.00    -0.229 N 
HETATM   12  C19 UNK     1      -0.181   0.579  -4.458  1.00  0.00     0.334 C 
HETATM   13  O1  UNK     1       0.870   1.115  -4.808  1.00  0.00    -0.246 OA
HETATM   14  N3  UNK     1      -1.174   0.218  -5.350  1.00  0.00    -0.351 N 
HETATM   15  H20 UNK     1      -2.032  -0.224  -5.038  1.00  0.00     0.160 HD
HETATM   16  H21 UNK     1      -1.072   0.384  -6.345  1.00  0.00     0.160 HD
HETATM   17  H19 UNK     1      -1.398  -0.177  -2.913  1.00  0.00     0.194 HD
ENDBRANCH  10  11
ENDBRANCH   2   9
BRANCH   1  18
HETATM   18  C1  UNK     1      -1.154  -0.568   1.526  1.00  0.00    -0.023 A 
HETATM   19  C2  UNK     1      -2.280   0.224   1.716  1.00  0.00    -0.051 A 
HETATM   20  C5  UNK     1      -3.534  -0.375   1.830  1.00  0.00     0.014 A 
HETATM   21  C9  UNK     1      -2.194   1.715   1.803  1.00  0.00     0.049 C 
HETATM   22  C4  UNK     1      -3.653  -1.763   1.753  1.00  0.00    -0.061 A 
HETATM   23  C11 UNK     1      -4.994  -2.405   1.876  1.00  0.00     0.048 C 
HETATM   24  C6  UNK     1      -2.518  -2.551   1.563  1.00  0.00     0.014 A 
HETATM   25  C3  UNK     1      -1.264  -1.951   1.449  1.00  0.00    -0.051 A 
HETATM   26  C10 UNK     1      -0.071  -2.830   1.246  1.00  0.00     0.049 C 
ENDBRANCH   1  18
TORSDOF 4
