REMARK  3 active torsions:
REMARK  status: ('A' for Active; 'I' for Inactive)
REMARK    1  A    between atoms: C7_11  and  O2_2 
REMARK    2  A    between atoms: C12_16  and  O3_3 
REMARK    3  A    between atoms: C2_6  and  C4_8 
ROOT
HETATM    1  O1  UNK     1      -0.300   0.258  -0.991  1.00  0.00    -0.309 OA
HETATM    2  O4  UNK     1       2.636   2.553   0.656  1.00  0.00    -0.287 OA
HETATM    3  C1  UNK     1       1.755   1.521  -1.279  1.00  0.00     0.081 A 
HETATM    4  C2  UNK     1      -0.292   0.571   0.360  1.00  0.00     0.090 A 
HETATM    5  C3  UNK     1       0.720   0.732  -1.777  1.00  0.00     0.093 A 
HETATM    6  C5  UNK     1       1.761   1.863   0.152  1.00  0.00     0.190 A 
HETATM    7  C6  UNK     1       0.644   1.326   0.956  1.00  0.00     0.094 A 
HETATM    8  C7  UNK     1       2.767   1.976  -2.126  1.00  0.00     0.082 A 
HETATM    9  C8  UNK     1       0.690   0.394  -3.130  1.00  0.00     0.038 A 
HETATM   10  C11 UNK     1       2.736   1.636  -3.479  1.00  0.00     0.037 A 
HETATM   11  C13 UNK     1       1.699   0.847  -3.980  1.00  0.00     0.006 A 
ENDROOT
BRANCH   4  12
HETATM   12  C4  UNK     1      -1.436   0.015   1.111  1.00  0.00     0.001 A 
HETATM   13  C10 UNK     1      -1.944   0.696   2.220  1.00  0.00     0.014 A 
HETATM   14  C14 UNK     1      -3.024   0.171   2.929  1.00  0.00     0.004 A 
HETATM   15  C15 UNK     1      -3.600  -1.035   2.532  1.00  0.00     0.037 A 
HETATM   16  C12 UNK     1      -3.096  -1.717   1.425  1.00  0.00     0.069 A 
HETATM   17  C9  UNK     1      -2.015  -1.193   0.715  1.00  0.00     0.051 A 
BRANCH  16  18
HETATM   18  O3  UNK     1      -3.658  -2.895   1.037  1.00  0.00    -0.356 OA
HETATM   19  C16 UNK     1      -4.759  -3.373   1.807  1.00  0.00     0.210 C 
ENDBRANCH  16  18
ENDBRANCH   4  12
BRANCH   8  20
HETATM   20  O2  UNK     1       3.800   2.748  -1.688  1.00  0.00    -0.360 OA
HETATM   21  H9  UNK     1       3.718   2.917  -0.737  1.00  0.00     0.217 HD
ENDBRANCH   8  20
TORSDOF 3
