REMARK  3 active torsions:
REMARK  status: ('A' for Active; 'I' for Inactive)
REMARK    1  A    between atoms: C7_11  and  O3_3 
REMARK    2  A    between atoms: C12_16  and  O4_4 
REMARK    3  A    between atoms: C1_5  and  C4_8 
ROOT
HETATM    1  O1  UNK     1      -0.284   0.250  -1.018  1.00  0.00    -0.340 OA
HETATM    2  O2  UNK     1       0.067   0.133   3.067  1.00  0.00    -0.292 OA
HETATM    3  C1  UNK     1       1.008   0.273  -0.392  1.00  0.00     0.169 C 
HETATM    4  C2  UNK     1       0.939   0.936   0.982  1.00  0.00     0.121 C 
HETATM    5  C3  UNK     1      -1.164  -0.460   1.142  1.00  0.00     0.076 A 
HETATM    6  C5  UNK     1      -0.032   0.176   1.847  1.00  0.00     0.167 C 
HETATM    7  C6  UNK     1      -1.238  -0.368  -0.251  1.00  0.00     0.089 A 
HETATM    8  C7  UNK     1      -2.172  -1.108   1.860  1.00  0.00     0.085 A 
HETATM    9  C8  UNK     1      -2.340  -0.895  -0.924  1.00  0.00     0.074 A 
HETATM   10  C11 UNK     1      -3.262  -1.652   1.180  1.00  0.00     0.074 A 
HETATM   11  C12 UNK     1      -3.349  -1.541  -0.208  1.00  0.00     0.071 A 
ENDROOT
BRANCH   3  12
HETATM   12  C4  UNK     1       1.969   1.007  -1.304  1.00  0.00    -0.029 A 
HETATM   13  C10 UNK     1       3.314   0.640  -1.339  1.00  0.00     0.010 A 
HETATM   14  C14 UNK     1       4.199   1.316  -2.179  1.00  0.00     0.001 A 
HETATM   15  C15 UNK     1       3.739   2.359  -2.984  1.00  0.00     0.000 A 
HETATM   16  C13 UNK     1       2.393   2.725  -2.949  1.00  0.00     0.001 A 
HETATM   17  C9  UNK     1       1.508   2.049  -2.109  1.00  0.00     0.010 A 
ENDBRANCH   3  12
BRANCH   8  18
HETATM   18  O3  UNK     1      -2.147  -1.231   3.217  1.00  0.00    -0.360 OA
HETATM   19  H11 UNK     1      -1.316  -0.882   3.574  1.00  0.00     0.217 HD
ENDBRANCH   8  18
BRANCH  11  20
HETATM   20  O4  UNK     1      -4.419  -2.066  -0.866  1.00  0.00    -0.361 OA
HETATM   21  H12 UNK     1      -5.018  -2.475  -0.218  1.00  0.00     0.217 HD
ENDBRANCH  11  20
TORSDOF 3
