REMARK  7 active torsions:
REMARK  status: ('A' for Active; 'I' for Inactive)
REMARK    1  A    between atoms: C4_11  and  N1_5 
REMARK    2  A    between atoms: C7_14  and  N2_6 
REMARK    3  A    between atoms: C8_15  and  N2_6 
REMARK    4  A    between atoms: C10_17  and  N3_7 
REMARK    5  A    between atoms: C8_15  and  N3_7 
REMARK    6  A    between atoms: C4_11  and  C6_13 
REMARK    7  A    between atoms: C6_13  and  C7_14 
ROOT
HETATM    1  N3  UNK     1      -1.264  -0.214  -1.375  1.00  0.00    -0.333 N 
HETATM    2  H14 UNK     1      -1.344  -0.541  -0.417  1.00  0.00     0.168 HD
ENDROOT
BRANCH   1   3
HETATM    3  C10 UNK     1      -0.069   0.472  -1.591  1.00  0.00     0.036 A 
HETATM    4  C12 UNK     1       0.986   0.336  -0.695  1.00  0.00     0.067 A 
HETATM    5  C11 UNK     1       2.174   1.031  -0.930  1.00  0.00     0.092 A 
HETATM    6  O2  UNK     1       3.206   0.853   0.012  1.00  0.00    -0.275 OA
HETATM    7  C9  UNK     1       2.344   1.863  -2.038  1.00  0.00     0.004 A 
HETATM    8  C18 UNK     1       4.428   1.494  -0.121  1.00  0.00     0.288 A 
HETATM    9  C16 UNK     1       4.592   2.368  -1.295  1.00  0.00     0.090 A 
HETATM   10  O3  UNK     1       5.333   1.346   0.693  1.00  0.00    -0.260 OA
HETATM   11  C13 UNK     1       3.628   2.556  -2.207  1.00  0.00    -0.043 A 
HETATM   12  C17 UNK     1       3.842   3.457  -3.388  1.00  0.00     0.049 C 
HETATM   13  C14 UNK     1       1.269   1.986  -2.929  1.00  0.00     0.017 A 
HETATM   14  C15 UNK     1       0.072   1.296  -2.706  1.00  0.00     0.030 A 
ENDBRANCH   1   3
BRANCH   1  15
HETATM   15  C8  UNK     1      -2.196  -0.801  -2.250  1.00  0.00     0.172 C 
HETATM   16  S1  UNK     1      -2.118  -0.890  -3.925  1.00  0.00    -0.041 SA
BRANCH  15  17
HETATM   17  N2  UNK     1      -3.286  -1.406  -1.638  1.00  0.00    -0.367 N 
HETATM   18  H13 UNK     1      -3.962  -1.848  -2.254  1.00  0.00     0.161 HD
BRANCH  17  19
HETATM   19  C7  UNK     1      -3.555  -1.492  -0.215  1.00  0.00     0.123 C 
BRANCH  19  20
HETATM   20  C6  UNK     1      -2.969  -2.753   0.417  1.00  0.00     0.039 C 
BRANCH  20  21
HETATM   21  C4  UNK     1      -3.214  -2.860   1.921  1.00  0.00     0.127 C 
BRANCH  21  22
HETATM   22  N1  UNK     1      -2.614  -1.771   2.660  1.00  0.00    -0.352 N 
HETATM   23  C1  UNK     1      -1.184  -1.571   2.684  1.00  0.00     0.126 C 
HETATM   24  C2  UNK     1      -1.042  -0.170   3.246  1.00  0.00     0.029 C 
HETATM   25  C3  UNK     1      -2.252  -0.018   4.160  1.00  0.00     0.104 C 
HETATM   26  C5  UNK     1      -3.292  -0.902   3.512  1.00  0.00     0.219 C 
HETATM   27  O1  UNK     1      -4.489  -0.861   3.754  1.00  0.00    -0.273 OA
ENDBRANCH  21  22
ENDBRANCH  20  21
ENDBRANCH  19  20
ENDBRANCH  17  19
ENDBRANCH  15  17
ENDBRANCH   1  15
TORSDOF 7
