REMARK  4 active torsions:
REMARK  status: ('A' for Active; 'I' for Inactive)
REMARK    1  A    between atoms: C5_10  and  O2_2 
REMARK    2  A    between atoms: C9_14  and  O4_4 
REMARK    3  A    between atoms: C15_20  and  O5_5 
REMARK    4  A    between atoms: C2_7  and  C4_9 
ROOT
HETATM    1  O1  UNK     1       0.230  -1.251  -0.066  1.00  0.00    -0.306 OA
HETATM    2  O3  UNK     1       1.200  -2.677   3.626  1.00  0.00    -0.284 OA
HETATM    3  C1  UNK     1       0.887  -3.124   1.332  1.00  0.00     0.053 A 
HETATM    4  C2  UNK     1       0.267  -0.421   1.043  1.00  0.00     0.123 A 
HETATM    5  C3  UNK     1       0.544  -2.576   0.098  1.00  0.00     0.090 A 
HETATM    6  C5  UNK     1       0.573  -0.826   2.290  1.00  0.00     0.152 A 
HETATM    7  C6  UNK     1       0.914  -2.251   2.516  1.00  0.00     0.220 A 
HETATM    8  C7  UNK     1       1.198  -4.482   1.439  1.00  0.00     0.055 A 
HETATM    9  C8  UNK     1       0.509  -3.383  -1.039  1.00  0.00     0.041 A 
HETATM   10  C9  UNK     1       1.163  -5.288   0.300  1.00  0.00     0.066 A 
HETATM   11  C12 UNK     1       0.819  -4.740  -0.937  1.00  0.00     0.039 A 
ENDROOT
BRANCH   4  12
HETATM   12  C4  UNK     1      -0.089   0.974   0.730  1.00  0.00     0.001 A 
HETATM   13  C10 UNK     1       0.905   1.887   0.378  1.00  0.00     0.017 A 
HETATM   14  C13 UNK     1       0.567   3.207   0.081  1.00  0.00     0.037 A 
HETATM   15  C15 UNK     1      -0.766   3.614   0.136  1.00  0.00     0.065 A 
HETATM   16  C14 UNK     1      -1.761   2.702   0.488  1.00  0.00     0.037 A 
HETATM   17  C11 UNK     1      -1.422   1.381   0.785  1.00  0.00     0.017 A 
BRANCH  15  18
HETATM   18  O5  UNK     1      -1.096   4.902  -0.154  1.00  0.00    -0.361 OA
HETATM   19  H10 UNK     1      -0.286   5.393  -0.376  1.00  0.00     0.217 HD
ENDBRANCH  15  18
ENDBRANCH   4  12
BRANCH   6  20
HETATM   20  O2  UNK     1       0.569   0.020   3.378  1.00  0.00    -0.355 OA
HETATM   21  H8  UNK     1       0.328   0.917   3.097  1.00  0.00     0.218 HD
ENDBRANCH   6  20
BRANCH  10  22
HETATM   22  O4  UNK     1       1.465  -6.612   0.395  1.00  0.00    -0.361 OA
HETATM   23  H9  UNK     1       1.679  -6.821   1.320  1.00  0.00     0.217 HD
ENDBRANCH  10  22
TORSDOF 4
