REMARK  4 active torsions:
REMARK  status: ('A' for Active; 'I' for Inactive)
REMARK    1  A    between atoms: C9_14  and  O3_3 
REMARK    2  A    between atoms: C1_6  and  N1_5 
REMARK    3  A    between atoms: C1_6  and  C4_9 
REMARK    4  A    between atoms: C13_18  and  C15_20 
ROOT
HETATM    1  O2  UNK     1       0.472  -0.228  -0.350  1.00  0.00    -0.320 OA
HETATM    2  O4  UNK     1      -1.945   1.101   2.657  1.00  0.00    -0.286 OA
HETATM    3  C4  UNK     1       1.916   1.624  -0.091  1.00  0.00     0.038 A 
HETATM    4  C7  UNK     1       0.767   0.940   0.307  1.00  0.00     0.100 A 
HETATM    5  C8  UNK     1      -0.029   1.447   1.333  1.00  0.00     0.050 A 
HETATM    6  C9  UNK     1       2.267   2.817   0.541  1.00  0.00     0.076 A 
HETATM    7  C10 UNK     1       0.321   2.642   1.968  1.00  0.00     0.021 A 
HETATM    8  C11 UNK     1       1.470   3.325   1.568  1.00  0.00     0.038 A 
HETATM    9  C12 UNK     1      -1.236   0.705   1.740  1.00  0.00     0.197 A 
HETATM   10  C13 UNK     1      -1.529  -0.546   0.988  1.00  0.00     0.048 A 
HETATM   11  C14 UNK     1      -0.666  -0.899   0.023  1.00  0.00     0.159 A 
ENDROOT
BRANCH   3  12
HETATM   12  C1  UNK     1       2.774   1.087  -1.190  1.00  0.00     0.317 C 
BRANCH  12  13
HETATM   13  N1  UNK     1       1.931   0.651  -2.301  1.00  0.00     0.097 N 
HETATM   14  C2  UNK     1       1.139   1.771  -2.826  1.00  0.00     0.299 C 
HETATM   15  C5  UNK     1       0.277   1.295  -3.992  1.00  0.00     0.198 C 
HETATM   16  O1  UNK     1       1.097   0.739  -5.021  1.00  0.00    -0.388 OA
HETATM   17  C6  UNK     1       1.847  -0.372  -4.528  1.00  0.00     0.198 C 
HETATM   18  C3  UNK     1       2.746   0.064  -3.374  1.00  0.00     0.299 C 
ENDBRANCH  12  13
ENDBRANCH   3  12
BRANCH   6  19
HETATM   19  O3  UNK     1       3.384   3.500   0.168  1.00  0.00    -0.360 OA
HETATM   20  H14 UNK     1       3.465   4.301   0.715  1.00  0.00     0.217 HD
ENDBRANCH   6  19
BRANCH  10  21
HETATM   21  C15 UNK     1      -2.723  -1.361   1.267  1.00  0.00    -0.020 A 
HETATM   22  C16 UNK     1      -2.663  -2.398   2.200  1.00  0.00     0.012 A 
HETATM   23  C18 UNK     1      -3.795  -3.168   2.464  1.00  0.00     0.001 A 
HETATM   24  C20 UNK     1      -4.991  -2.903   1.796  1.00  0.00     0.000 A 
HETATM   25  C19 UNK     1      -5.053  -1.868   0.863  1.00  0.00     0.001 A 
HETATM   26  C17 UNK     1      -3.921  -1.098   0.599  1.00  0.00     0.012 A 
ENDBRANCH  10  21
TORSDOF 4
