REMARK  2 active torsions:
REMARK  status: ('A' for Active; 'I' for Inactive)
REMARK    1  A    between atoms: C8_12  and  O1_3 
REMARK    2  A    between atoms: C5_9  and  C6_10 
ROOT
HETATM    1  S1  UNK     1       0.726  -0.362  -0.940  1.00  0.00    -0.086 SA
HETATM    2  O2  UNK     1       0.187   3.441  -0.581  1.00  0.00    -0.286 OA
HETATM    3  C1  UNK     1       1.735   1.991  -1.650  1.00  0.00     0.032 A 
HETATM    4  C2  UNK     1      -0.098   1.054  -0.375  1.00  0.00     0.057 A 
HETATM    5  C3  UNK     1       1.938   0.619  -1.784  1.00  0.00     0.020 A 
HETATM    6  C4  UNK     1       0.556   2.309  -0.834  1.00  0.00     0.200 A 
HETATM    7  C6  UNK     1      -1.195   1.051   0.384  1.00  0.00     0.037 C 
HETATM    8  C7  UNK     1       2.579   2.920  -2.241  1.00  0.00     0.017 A 
HETATM    9  C9  UNK     1       3.011   0.144  -2.525  1.00  0.00     0.020 A 
HETATM   10  C11 UNK     1       3.657   2.445  -2.987  1.00  0.00     0.001 A 
HETATM   11  C12 UNK     1       3.872   1.066  -3.128  1.00  0.00     0.001 A 
ENDROOT
BRANCH   7  12
HETATM   12  C5  UNK     1      -1.900  -0.146   0.878  1.00  0.00    -0.000 A 
HETATM   13  C10 UNK     1      -2.925  -0.671   0.105  1.00  0.00     0.033 A 
HETATM   14  C14 UNK     1      -3.607  -1.803   0.552  1.00  0.00     0.011 A 
HETATM   15 Br1  UNK     1      -5.006  -2.537  -0.485  1.00  0.00    -0.051 Br
HETATM   16  C15 UNK     1      -3.255  -2.396   1.765  1.00  0.00     0.022 A 
HETATM   17  C13 UNK     1      -2.222  -1.856   2.532  1.00  0.00     0.039 A 
HETATM   18  C8  UNK     1      -1.540  -0.724   2.085  1.00  0.00     0.078 A 
BRANCH  18  19
HETATM   19  O1  UNK     1      -0.535  -0.217   2.854  1.00  0.00    -0.355 OA
HETATM   20  C16 UNK     1      -0.894   0.765   3.823  1.00  0.00     0.210 C 
ENDBRANCH  18  19
ENDBRANCH   7  12
TORSDOF 2
