REMARK  9 active torsions:
REMARK  status: ('A' for Active; 'I' for Inactive)
REMARK    1  A    between atoms: C12_21  and  O2_2 
REMARK    2  A    between atoms: C14_23  and  O5_5 
REMARK    3  A    between atoms: C21_30  and  O5_5 
REMARK    4  A    between atoms: C25_34  and  O8_8 
REMARK    5  A    between atoms: C26_35  and  O8_8 
REMARK    6  A    between atoms: C12_21  and  C2_11 
REMARK    7  A    between atoms: C11_20  and  C6_15 
REMARK    8  A    between atoms: C14_23  and  C8_17 
REMARK    9  A    between atoms: C21_30  and  C25_34 
ROOT
HETATM    1  O1  UNK     1      -1.667  -2.296  -0.063  1.00  0.00    -0.292 OA
HETATM    2  N1  UNK     1      -0.229   0.768   3.250  1.00  0.00    -0.362 N 
HETATM    3  C1  UNK     1      -3.655  -0.624   2.468  1.00  0.00     0.008 C 
HETATM    4  C2  UNK     1      -3.191  -1.901   1.754  1.00  0.00     0.164 C 
HETATM    5  C3  UNK     1      -2.517  -0.115   3.367  1.00  0.00     0.063 C 
HETATM    6  C4  UNK     1      -0.909  -0.702   1.521  1.00  0.00     0.025 C 
HETATM    7  C5  UNK     1      -1.188  -0.034   2.661  1.00  0.00     0.020 C 
HETATM    8  C6  UNK     1       0.434  -0.530   0.813  1.00  0.00     0.104 C 
HETATM    9  C7  UNK     1      -1.912  -1.667   0.966  1.00  0.00     0.172 C 
HETATM   10  C8  UNK     1       1.451   0.225   1.674  1.00  0.00     0.052 C 
HETATM   11  C9  UNK     1      -4.132   0.475   1.505  1.00  0.00     0.011 C 
HETATM   12  C10 UNK     1       1.083   0.857   2.812  1.00  0.00     0.018 C 
HETATM   13  C13 UNK     1       1.993   1.672   3.691  1.00  0.00     0.069 C 
HETATM   14  H9  UNK     1      -0.477   1.252   4.105  1.00  0.00     0.165 HD
ENDROOT
BRANCH   8  15
HETATM   15  C11 UNK     1       0.249   0.172  -0.509  1.00  0.00     0.029 A 
HETATM   16  C15 UNK     1       0.620  -0.550  -1.753  1.00  0.00     0.194 A 
HETATM   17  O7  UNK     1       1.067  -1.689  -1.736  1.00  0.00    -0.287 OA
HETATM   18  C17 UNK     1       0.421   0.182  -3.017  1.00  0.00     0.048 A 
HETATM   19  C18 UNK     1      -0.092   1.479  -2.977  1.00  0.00     0.089 A 
HETATM   20  C19 UNK     1       0.741  -0.410  -4.241  1.00  0.00     0.018 A 
HETATM   21  O4  UNK     1      -0.423   2.109  -1.804  1.00  0.00    -0.321 OA
HETATM   22  C22 UNK     1      -0.288   2.190  -4.161  1.00  0.00     0.038 A 
HETATM   23  C16 UNK     1      -0.232   1.416  -0.634  1.00  0.00     0.154 A 
HETATM   24  C24 UNK     1       0.030   1.601  -5.385  1.00  0.00     0.003 A 
HETATM   25  C23 UNK     1       0.543   0.303  -5.424  1.00  0.00     0.001 A 
ENDBRANCH   8  15
BRANCH  10  26
HETATM   26  C14 UNK     1       2.855   0.180   1.232  1.00  0.00     0.292 C 
HETATM   27  O6  UNK     1       3.473  -0.856   1.075  1.00  0.00    -0.259 OA
BRANCH  26  28
HETATM   28  O5  UNK     1       3.286   1.451   1.048  1.00  0.00    -0.316 OA
BRANCH  28  29
HETATM   29  C21 UNK     1       4.644   1.573   0.613  1.00  0.00     0.205 C 
BRANCH  29  30
HETATM   30  C25 UNK     1       4.681   1.564  -0.903  1.00  0.00     0.194 C 
BRANCH  30  31
HETATM   31  O8  UNK     1       3.899   2.646  -1.393  1.00  0.00    -0.389 OA
BRANCH  31  32
HETATM   32  C26 UNK     1       3.916   2.700  -2.813  1.00  0.00     0.163 C 
HETATM   33  C27 UNK     1       3.069   3.868  -3.272  1.00  0.00     0.033 C 
ENDBRANCH  31  32
ENDBRANCH  30  31
ENDBRANCH  29  30
ENDBRANCH  28  29
ENDBRANCH  26  28
ENDBRANCH  10  26
BRANCH   4  34
HETATM   34  C12 UNK     1      -4.303  -2.488   0.940  1.00  0.00     0.270 C 
HETATM   35  O3  UNK     1      -4.236  -2.694  -0.264  1.00  0.00    -0.264 OA
BRANCH  34  36
HETATM   36  O2  UNK     1      -5.372  -2.746   1.747  1.00  0.00    -0.326 OA
HETATM   37  C20 UNK     1      -6.513  -3.312   1.094  1.00  0.00     0.213 C 
ENDBRANCH  34  36
ENDBRANCH   4  34
TORSDOF 9
