REMARK  7 active torsions:
REMARK  status: ('A' for Active; 'I' for Inactive)
REMARK    1  A    between atoms: C5_14  and  O1_2 
REMARK    2  A    between atoms: C6_15  and  O1_2 
REMARK    3  A    between atoms: C15_24  and  O4_5 
REMARK    4  A    between atoms: C3_12  and  N1_9 
REMARK       I    between atoms: C9_18  and  N1_9 
REMARK    5  A    between atoms: C1_10  and  C6_15 
REMARK    6  A    between atoms: C15_24  and  C4_13 
REMARK    7  A    between atoms: C8_17  and  C9_18 
ROOT
HETATM    1  S1  UNK     1      -2.648  -0.901  -0.651  1.00  0.00    -0.065 SA
HETATM    2  C1  UNK     1      -1.781  -0.572   1.745  1.00  0.00     0.080 A 
HETATM    3  C2  UNK     1      -3.027  -1.254   1.866  1.00  0.00    -0.020 A 
HETATM    4  C3  UNK     1      -1.479  -0.332   0.443  1.00  0.00     0.094 A 
HETATM    5  C4  UNK     1      -3.605  -1.495   0.639  1.00  0.00     0.089 A 
HETATM    6  C7  UNK     1      -3.631  -1.657   3.161  1.00  0.00     0.051 C 
ENDROOT
BRANCH   4   7
HETATM    7  N1  UNK     1      -0.371   0.301  -0.128  1.00  0.00    -0.316 N 
HETATM    8  C9  UNK     1      -0.151   0.499  -1.484  1.00  0.00     0.262 C 
HETATM    9  O5  UNK     1      -0.862   0.171  -2.433  1.00  0.00    -0.267 OA
HETATM   10  H2  UNK     1       0.325   0.615   0.543  1.00  0.00     0.169 HD
BRANCH   8  11
HETATM   11  C8  UNK     1       1.115   1.198  -1.737  1.00  0.00     0.108 A 
HETATM   12  C11 UNK     1       1.727   0.914  -2.892  1.00  0.00     0.037 A 
HETATM   13  C10 UNK     1       2.987   1.556  -3.232  1.00  0.00    -0.001 A 
HETATM   14  C12 UNK     1       3.541   2.466  -2.337  1.00  0.00     0.089 A 
HETATM   15  C17 UNK     1       3.661   1.290  -4.427  1.00  0.00     0.014 A 
HETATM   16  O2  UNK     1       2.892   2.761  -1.123  1.00  0.00    -0.274 OA
HETATM   17  C18 UNK     1       4.746   3.115  -2.602  1.00  0.00     0.038 A 
HETATM   18  C16 UNK     1       1.686   2.163  -0.770  1.00  0.00     0.304 A 
HETATM   19  O7  UNK     1       1.128   2.425   0.290  1.00  0.00    -0.259 OA
HETATM   20  C20 UNK     1       5.411   2.843  -3.796  1.00  0.00     0.003 A 
HETATM   21  C19 UNK     1       4.870   1.933  -4.706  1.00  0.00     0.001 A 
ENDBRANCH   8  11
ENDBRANCH   4   7
BRANCH   2  22
HETATM   22  C6  UNK     1      -0.934  -0.178   2.843  1.00  0.00     0.297 C 
HETATM   23  O3  UNK     1      -1.337   0.118   3.983  1.00  0.00    -0.259 OA
BRANCH  22  24
HETATM   24  O1  UNK     1       0.393  -0.165   2.491  1.00  0.00    -0.313 OA
BRANCH  24  25
HETATM   25  C5  UNK     1       1.349  -0.447   3.519  1.00  0.00     0.124 C 
HETATM   26  C13 UNK     1       2.752  -0.351   2.938  1.00  0.00     0.040 C 
HETATM   27  C14 UNK     1       1.068  -1.825   4.099  1.00  0.00     0.040 C 
ENDBRANCH  24  25
ENDBRANCH  22  24
ENDBRANCH   2  22
BRANCH   5  28
HETATM   28  C15 UNK     1      -4.840  -2.145   0.333  1.00  0.00     0.300 C 
HETATM   29  O6  UNK     1      -5.856  -2.157   1.067  1.00  0.00    -0.259 OA
BRANCH  28  30
HETATM   30  O4  UNK     1      -4.814  -2.783  -0.888  1.00  0.00    -0.322 OA
HETATM   31  C21 UNK     1      -5.996  -3.472  -1.308  1.00  0.00     0.213 C 
ENDBRANCH  28  30
ENDBRANCH   5  28
TORSDOF 7
