REMARK  7 active torsions:
REMARK  status: ('A' for Active; 'I' for Inactive)
REMARK    1  A    between atoms: C10_20  and  O1_4 
REMARK    2  A    between atoms: C22_32  and  O1_4 
REMARK    3  A    between atoms: C20_30  and  O4_7 
REMARK       I    between atoms: C12_22  and  N2_10 
REMARK    4  A    between atoms: C6_16  and  N2_10 
REMARK    5  A    between atoms: C1_11  and  C3_13 
REMARK    6  A    between atoms: C3_13  and  C6_16 
REMARK    7  A    between atoms: C12_22  and  C13_23 
ROOT
HETATM    1  C6  UNK     1      -3.519  -2.022  -1.258  1.00  0.00     0.127 C 
ENDROOT
BRANCH   1   2
HETATM    2  C3  UNK     1      -3.266  -2.863  -0.008  1.00  0.00     0.061 C 
BRANCH   2   3
HETATM    3  C1  UNK     1      -3.244  -2.053   1.257  1.00  0.00    -0.022 A 
HETATM    4  C2  UNK     1      -2.102  -1.453   1.823  1.00  0.00     0.002 A 
HETATM    5  C7  UNK     1      -0.737  -1.387   1.478  1.00  0.00     0.051 A 
HETATM    6  C5  UNK     1      -2.534  -0.805   2.982  1.00  0.00     0.043 A 
HETATM    7  C10 UNK     1       0.142  -0.677   2.304  1.00  0.00     0.079 A 
HETATM    8  C11 UNK     1      -0.317  -0.040   3.455  1.00  0.00     0.039 A 
HETATM    9  C8  UNK     1      -1.666  -0.091   3.817  1.00  0.00     0.033 A 
HETATM   10  N1  UNK     1      -3.889  -1.022   3.086  1.00  0.00    -0.359 N 
HETATM   11  C4  UNK     1      -4.328  -1.783   2.036  1.00  0.00     0.013 A 
HETATM   12  H3  UNK     1      -4.472  -0.668   3.833  1.00  0.00     0.166 HD
HETATM   13  C9  UNK     1      -5.749  -2.161   1.912  1.00  0.00     0.068 C 
BRANCH   7  14
HETATM   14  O1  UNK     1       1.463  -0.608   1.976  1.00  0.00    -0.255 OA
BRANCH  14  15
HETATM   15  C22 UNK     1       2.034   0.675   1.749  1.00  0.00     0.530 C 
HETATM   16  F1  UNK     1       1.114   1.538   1.266  1.00  0.00    -0.144 F 
HETATM   17  F2  UNK     1       3.017   0.557   0.829  1.00  0.00    -0.144 F 
HETATM   18  F3  UNK     1       2.579   1.172   2.879  1.00  0.00    -0.144 F 
ENDBRANCH  14  15
ENDBRANCH   7  14
ENDBRANCH   2   3
ENDBRANCH   1   2
BRANCH   1  19
HETATM   19  N2  UNK     1      -2.524  -0.992  -1.446  1.00  0.00    -0.356 N 
HETATM   20  C12 UNK     1      -1.361  -1.189  -2.169  1.00  0.00     0.257 C 
HETATM   21  O3  UNK     1      -1.023  -2.229  -2.731  1.00  0.00    -0.267 OA
HETATM   22  H11 UNK     1      -2.697  -0.101  -0.991  1.00  0.00     0.162 HD
BRANCH  20  23
HETATM   23  C13 UNK     1      -0.510   0.006  -2.220  1.00  0.00     0.108 A 
HETATM   24  C15 UNK     1       0.807  -0.209  -2.315  1.00  0.00     0.037 A 
HETATM   25  C14 UNK     1       1.731   0.913  -2.372  1.00  0.00     0.002 A 
HETATM   26  C16 UNK     1       1.222   2.207  -2.324  1.00  0.00     0.089 A 
HETATM   27  C18 UNK     1       3.113   0.735  -2.472  1.00  0.00     0.051 A 
HETATM   28  C19 UNK     1       2.053   3.324  -2.374  1.00  0.00     0.041 A 
HETATM   29  O2  UNK     1      -0.165   2.427  -2.224  1.00  0.00    -0.274 OA
HETATM   30  C21 UNK     1       3.430   3.138  -2.474  1.00  0.00     0.039 A 
HETATM   31  C20 UNK     1       3.959   1.847  -2.523  1.00  0.00     0.069 A 
HETATM   32  C17 UNK     1      -1.074   1.374  -2.169  1.00  0.00     0.304 A 
HETATM   33  O5  UNK     1      -2.281   1.575  -2.083  1.00  0.00    -0.259 OA
BRANCH  31  34
HETATM   34  O4  UNK     1       5.306   1.669  -2.622  1.00  0.00    -0.356 OA
HETATM   35  C23 UNK     1       6.113   2.844  -2.671  1.00  0.00     0.210 C 
ENDBRANCH  31  34
ENDBRANCH  20  23
ENDBRANCH   1  19
TORSDOF 7
