REMARK  2 active torsions:
REMARK  status: ('A' for Active; 'I' for Inactive)
REMARK       I    between atoms: C11_16  and  N1_5 
REMARK    1  A    between atoms: C4_9  and  N1_5 
REMARK    2  A    between atoms: C11_16  and  C12_17 
ROOT
HETATM    1  O1  UNK     1      -3.175  -1.504  -0.241  1.00  0.00    -0.275 OA
HETATM    2  O2  UNK     1      -5.212  -2.524  -0.443  1.00  0.00    -0.260 OA
HETATM    3  C1  UNK     1      -2.299  -1.013   1.986  1.00  0.00     0.004 A 
HETATM    4  C2  UNK     1      -2.170  -0.982   0.596  1.00  0.00     0.092 A 
HETATM    5  C3  UNK     1      -3.513  -1.604   2.566  1.00  0.00    -0.043 A 
HETATM    6  C4  UNK     1      -0.023   0.091   0.739  1.00  0.00     0.037 A 
HETATM    7  C5  UNK     1      -1.049  -0.439  -0.036  1.00  0.00     0.067 A 
HETATM    8  C6  UNK     1      -1.255  -0.475   2.749  1.00  0.00     0.017 A 
HETATM    9  C7  UNK     1      -0.125   0.073   2.129  1.00  0.00     0.030 A 
HETATM   10  C8  UNK     1      -4.454  -2.093   1.744  1.00  0.00     0.090 A 
HETATM   11  C9  UNK     1      -3.683  -1.653   4.056  1.00  0.00     0.049 C 
HETATM   12  C10 UNK     1      -4.331  -2.067   0.277  1.00  0.00     0.288 A 
ENDROOT
BRANCH   6  13
HETATM   13  N1  UNK     1       1.106   0.637   0.128  1.00  0.00    -0.323 N 
HETATM   14  C11 UNK     1       1.334   0.718  -1.240  1.00  0.00     0.256 C 
HETATM   15  O3  UNK     1       0.607   0.335  -2.150  1.00  0.00    -0.267 OA
HETATM   16  H5  UNK     1       1.773   1.047   0.775  1.00  0.00     0.169 HD
BRANCH  14  17
HETATM   17  C12 UNK     1       2.611   1.381  -1.614  1.00  0.00     0.033 A 
HETATM   18  C13 UNK     1       2.700   2.012  -2.836  1.00  0.00     0.036 A 
HETATM   19  C15 UNK     1       3.898   2.633  -3.187  1.00  0.00     0.011 A 
HETATM   20 Br1  UNK     1       4.058   3.509  -4.854  1.00  0.00    -0.051 Br
HETATM   21  C17 UNK     1       4.980   2.608  -2.306  1.00  0.00     0.019 A 
HETATM   22  C16 UNK     1       4.863   1.962  -1.076  1.00  0.00     0.002 A 
HETATM   23  C14 UNK     1       3.664   1.341  -0.726  1.00  0.00     0.017 A 
ENDBRANCH  14  17
ENDBRANCH   6  13
TORSDOF 2
