REMARK  5 active torsions:
REMARK  status: ('A' for Active; 'I' for Inactive)
REMARK    1  A    between atoms: C6_13  and  O1_2 
REMARK    2  A    between atoms: C8_15  and  O1_2 
REMARK       I    between atoms: C11_18  and  N1_7 
REMARK    3  A    between atoms: C4_11  and  N1_7 
REMARK    4  A    between atoms: C2_9  and  C6_13 
REMARK    5  A    between atoms: C11_18  and  C12_19 
ROOT
HETATM    1  S1  UNK     1       0.632  -0.318   2.467  1.00  0.00    -0.075 SA
HETATM    2  C1  UNK     1      -1.824  -0.973   2.098  1.00  0.00     0.006 A 
HETATM    3  C2  UNK     1      -1.350  -0.495   0.843  1.00  0.00     0.085 A 
HETATM    4  C3  UNK     1      -0.849  -0.931   3.070  1.00  0.00    -0.007 A 
HETATM    5  C4  UNK     1      -0.048  -0.117   0.923  1.00  0.00     0.094 A 
HETATM    6  C5  UNK     1      -3.149  -1.458   2.399  1.00  0.00    -0.024 A 
HETATM    7  C7  UNK     1      -0.922  -1.330   4.496  1.00  0.00     0.057 C 
HETATM    8  C9  UNK     1      -3.441  -2.810   2.247  1.00  0.00     0.012 A 
HETATM    9  C10 UNK     1      -4.127  -0.570   2.839  1.00  0.00     0.012 A 
HETATM   10  C16 UNK     1      -4.723  -3.279   2.537  1.00  0.00     0.001 A 
HETATM   11  C17 UNK     1      -5.408  -1.039   3.129  1.00  0.00     0.001 A 
HETATM   12  C20 UNK     1      -5.706  -2.393   2.979  1.00  0.00     0.000 A 
ENDROOT
BRANCH   5  13
HETATM   13  N1  UNK     1       0.808   0.402  -0.053  1.00  0.00    -0.316 N 
HETATM   14  C11 UNK     1       2.136   0.761   0.130  1.00  0.00     0.262 C 
HETATM   15  O4  UNK     1       2.814   0.698   1.154  1.00  0.00    -0.267 OA
HETATM   16  H1  UNK     1       0.374   0.532  -0.963  1.00  0.00     0.169 HD
BRANCH  14  17
HETATM   17  C12 UNK     1       2.740   1.273  -1.107  1.00  0.00     0.108 A 
HETATM   18  C14 UNK     1       3.713   2.179  -0.958  1.00  0.00     0.037 A 
HETATM   19  C13 UNK     1       4.372   2.745  -2.125  1.00  0.00    -0.001 A 
HETATM   20  C15 UNK     1       3.973   2.329  -3.391  1.00  0.00     0.089 A 
HETATM   21  C22 UNK     1       5.392   3.693  -2.017  1.00  0.00     0.014 A 
HETATM   22  O2  UNK     1       2.948   1.375  -3.541  1.00  0.00    -0.274 OA
HETATM   23  C23 UNK     1       4.563   2.832  -4.549  1.00  0.00     0.038 A 
HETATM   24  C21 UNK     1       2.299   0.815  -2.444  1.00  0.00     0.304 A 
HETATM   25  O5  UNK     1       1.407  -0.015  -2.584  1.00  0.00    -0.259 OA
HETATM   26  C25 UNK     1       5.580   3.778  -4.433  1.00  0.00     0.003 A 
HETATM   27  C24 UNK     1       5.994   4.207  -3.170  1.00  0.00     0.001 A 
ENDBRANCH  14  17
ENDBRANCH   5  13
BRANCH   3  28
HETATM   28  C6  UNK     1      -2.124  -0.411  -0.372  1.00  0.00     0.297 C 
HETATM   29  O3  UNK     1      -1.677   0.011  -1.448  1.00  0.00    -0.259 OA
BRANCH  28  30
HETATM   30  O1  UNK     1      -3.425  -0.845  -0.236  1.00  0.00    -0.313 OA
BRANCH  30  31
HETATM   31  C8  UNK     1      -4.040  -1.415  -1.396  1.00  0.00     0.124 C 
HETATM   32  C18 UNK     1      -3.223  -2.612  -1.860  1.00  0.00     0.040 C 
HETATM   33  C19 UNK     1      -5.473  -1.803  -1.064  1.00  0.00     0.040 C 
ENDBRANCH  30  31
ENDBRANCH  28  30
ENDBRANCH   3  28
TORSDOF 5
