REMARK  6 active torsions:
REMARK  status: ('A' for Active; 'I' for Inactive)
REMARK    1  A    between atoms: C19_27  and  O2_3 
REMARK    2  A    between atoms: C7_15  and  O2_3 
REMARK    3  A    between atoms: C3_11  and  N1_8 
REMARK       I    between atoms: C8_16  and  N1_8 
REMARK    4  A    between atoms: C2_10  and  C7_15 
REMARK    5  A    between atoms: C10_18  and  C4_12 
REMARK    6  A    between atoms: C6_14  and  C8_16 
ROOT
HETATM    1  O4  UNK     1      -1.032   0.174  -2.331  1.00  0.00    -0.267 OA
HETATM    2  N1  UNK     1      -0.535   0.058  -0.027  1.00  0.00    -0.316 N 
HETATM    3  C8  UNK     1      -0.312   0.387  -1.357  1.00  0.00     0.262 C 
HETATM    4  H1  UNK     1       0.169   0.286   0.670  1.00  0.00     0.169 HD
ENDROOT
BRANCH   2   5
HETATM    5  C3  UNK     1      -1.657  -0.601   0.482  1.00  0.00     0.094 A 
HETATM    6  C2  UNK     1      -1.965  -0.963   1.755  1.00  0.00     0.080 A 
HETATM    7  C1  UNK     1      -3.227  -1.621   1.811  1.00  0.00    -0.022 A 
HETATM    8  C4  UNK     1      -3.813  -1.723   0.569  1.00  0.00     0.059 A 
HETATM    9  C5  UNK     1      -3.839  -2.137   3.062  1.00  0.00     0.051 C 
HETATM   10  S1  UNK     1      -2.843  -1.027  -0.659  1.00  0.00    -0.067 SA
BRANCH   6  11
HETATM   11  C7  UNK     1      -1.106  -0.703   2.884  1.00  0.00     0.296 C 
HETATM   12  O3  UNK     1      -1.519  -0.516   4.037  1.00  0.00    -0.259 OA
BRANCH  11  13
HETATM   13  O2  UNK     1       0.236  -0.677   2.571  1.00  0.00    -0.318 OA
BRANCH  13  14
HETATM   14  C19 UNK     1       1.146  -0.423   3.646  1.00  0.00     0.174 C 
HETATM   15  C20 UNK     1       2.561  -0.435   3.108  1.00  0.00     0.034 C 
ENDBRANCH  13  14
ENDBRANCH  11  13
ENDBRANCH   6  11
BRANCH   8  16
HETATM   16  C10 UNK     1      -5.064  -2.308   0.204  1.00  0.00     0.163 C 
HETATM   17  O5  UNK     1      -6.071  -2.359   0.953  1.00  0.00    -0.292 OA
HETATM   18  C16 UNK     1      -5.240  -2.930  -1.185  1.00  0.00     0.097 C 
ENDBRANCH   8  16
ENDBRANCH   2   5
BRANCH   3  19
HETATM   19  C6  UNK     1       0.971   1.076  -1.542  1.00  0.00     0.108 A 
HETATM   20  C11 UNK     1       1.574   0.894  -2.723  1.00  0.00     0.037 A 
HETATM   21  C9  UNK     1       2.850   1.535  -3.001  1.00  0.00    -0.001 A 
HETATM   22  C12 UNK     1       3.428   2.336  -2.022  1.00  0.00     0.089 A 
HETATM   23  C14 UNK     1       3.515   1.374  -4.219  1.00  0.00     0.014 A 
HETATM   24  O1  UNK     1       2.789   2.524  -0.781  1.00  0.00    -0.274 OA
HETATM   25  C15 UNK     1       4.649   2.978  -2.225  1.00  0.00     0.038 A 
HETATM   26  C13 UNK     1       1.568   1.924  -0.486  1.00  0.00     0.304 A 
HETATM   27  O6  UNK     1       1.019   2.092   0.598  1.00  0.00    -0.259 OA
HETATM   28  C18 UNK     1       5.305   2.811  -3.442  1.00  0.00     0.003 A 
HETATM   29  C17 UNK     1       4.740   2.011  -4.438  1.00  0.00     0.001 A 
ENDBRANCH   3  19
TORSDOF 6
