REMARK  5 active torsions:
REMARK  status: ('A' for Active; 'I' for Inactive)
REMARK    1  A    between atoms: C11_16  and  O2_2 
REMARK    2  A    between atoms: C20_25  and  O2_2 
REMARK    3  A    between atoms: C22_27  and  O3_3 
REMARK    4  A    between atoms: C8_13  and  O3_3 
REMARK    5  A    between atoms: C20_25  and  C22_27 
ROOT
HETATM    1  O5  UNK     1      -0.620   1.116   0.602  1.00  0.00    -0.262 OA
HETATM    2  C22 UNK     1       0.248   0.272   0.783  1.00  0.00     0.288 C 
ENDROOT
BRANCH   2   3
HETATM    3  C20 UNK     1       1.702   0.431   0.419  1.00  0.00     0.287 C 
BRANCH   3   4
HETATM    4  O2  UNK     1       1.893   1.717  -0.139  1.00  0.00    -0.342 OA
BRANCH   4   5
HETATM    5  C11 UNK     1       2.903   1.855  -1.060  1.00  0.00     0.070 A 
HETATM    6  C10 UNK     1       2.784   2.804  -2.068  1.00  0.00     0.049 A 
HETATM    7  C4  UNK     1       3.807   2.957  -3.018  1.00  0.00    -0.023 A 
HETATM    8  C16 UNK     1       3.714   3.908  -4.047  1.00  0.00     0.012 A 
HETATM    9  C5  UNK     1       4.957   2.136  -2.936  1.00  0.00    -0.026 A 
HETATM   10  C19 UNK     1       4.740   4.048  -4.982  1.00  0.00     0.001 A 
HETATM   11  C21 UNK     1       5.870   3.240  -4.902  1.00  0.00     0.001 A 
HETATM   12  C17 UNK     1       5.979   2.290  -3.886  1.00  0.00     0.012 A 
HETATM   13  C13 UNK     1       5.050   1.185  -1.907  1.00  0.00     0.015 A 
HETATM   14  C15 UNK     1       4.024   1.046  -0.972  1.00  0.00     0.037 A 
ENDBRANCH   4   5
ENDBRANCH   3   4
ENDBRANCH   2   3
BRANCH   2  15
HETATM   15  O3  UNK     1       0.045  -0.994   1.361  1.00  0.00    -0.277 OA
BRANCH  15  16
HETATM   16  C8  UNK     1      -1.242  -1.240   1.728  1.00  0.00     0.082 A 
HETATM   17  C7  UNK     1      -2.125  -1.828   0.828  1.00  0.00     0.075 A 
HETATM   18  C2  UNK     1      -3.441  -2.072   1.225  1.00  0.00     0.092 A 
HETATM   19  C1  UNK     1      -3.907  -1.746   2.500  1.00  0.00     0.004 A 
HETATM   20  O1  UNK     1      -4.288  -2.669   0.270  1.00  0.00    -0.275 OA
HETATM   21  C3  UNK     1      -5.308  -2.039   2.832  1.00  0.00    -0.043 A 
HETATM   22  C6  UNK     1      -3.002  -1.155   3.391  1.00  0.00     0.017 A 
HETATM   23  C12 UNK     1      -6.091  -2.607   1.904  1.00  0.00     0.090 A 
HETATM   24  C14 UNK     1      -5.840  -1.701   4.194  1.00  0.00     0.049 C 
HETATM   25  C18 UNK     1      -5.613  -2.957   0.555  1.00  0.00     0.288 A 
HETATM   26  O4  UNK     1      -6.359  -3.476  -0.268  1.00  0.00    -0.260 OA
HETATM   27  C9  UNK     1      -1.680  -0.905   3.008  1.00  0.00     0.038 A 
ENDBRANCH  15  16
ENDBRANCH   2  15
TORSDOF 5
