REMARK  4 active torsions:
REMARK  status: ('A' for Active; 'I' for Inactive)
REMARK    1  A    between atoms: C5_10  and  O2_2 
REMARK    2  A    between atoms: C13_18  and  O3_3 
REMARK    3  A    between atoms: C14_19  and  O4_4 
REMARK    4  A    between atoms: C2_7  and  C4_9 
ROOT
HETATM    1  O1  UNK     1       0.334  -1.928   0.001  1.00  0.00    -0.306 OA
HETATM    2  O5  UNK     1       1.072  -3.567   3.657  1.00  0.00    -0.284 OA
HETATM    3  C1  UNK     1       1.011  -3.851   1.317  1.00  0.00     0.051 A 
HETATM    4  C2  UNK     1       0.197  -1.189   1.165  1.00  0.00     0.123 A 
HETATM    5  C3  UNK     1       0.741  -3.233   0.098  1.00  0.00     0.090 A 
HETATM    6  C5  UNK     1       0.418  -1.668   2.403  1.00  0.00     0.152 A 
HETATM    7  C6  UNK     1       0.855  -3.077   2.558  1.00  0.00     0.220 A 
HETATM    8  C7  UNK     1       1.422  -5.186   1.355  1.00  0.00     0.025 A 
HETATM    9  C8  UNK     1       1.561  -5.898   0.163  1.00  0.00    -0.061 A 
HETATM   10  C9  UNK     1       0.880  -3.947  -1.092  1.00  0.00     0.039 A 
HETATM   11  C11 UNK     1       1.290  -5.280  -1.058  1.00  0.00     0.009 A 
HETATM   12  C16 UNK     1       1.999  -7.323   0.194  1.00  0.00     0.048 C 
ENDROOT
BRANCH   4  13
HETATM   13  C4  UNK     1      -0.246   0.195   0.919  1.00  0.00     0.004 A 
HETATM   14  C10 UNK     1       0.697   1.207   0.736  1.00  0.00     0.054 A 
HETATM   15  C13 UNK     1       0.278   2.517   0.504  1.00  0.00     0.102 A 
HETATM   16  C14 UNK     1      -1.084   2.815   0.454  1.00  0.00     0.101 A 
HETATM   17  C15 UNK     1      -2.027   1.803   0.638  1.00  0.00     0.040 A 
HETATM   18  C12 UNK     1      -1.607   0.493   0.870  1.00  0.00     0.017 A 
BRANCH  15  19
HETATM   19  O3  UNK     1       1.208   3.496   0.326  1.00  0.00    -0.353 OA
HETATM   20  C17 UNK     1       1.654   4.186   1.493  1.00  0.00     0.210 C 
ENDBRANCH  15  19
BRANCH  16  21
HETATM   21  O4  UNK     1      -1.506   4.090   0.228  1.00  0.00    -0.353 OA
HETATM   22  C18 UNK     1      -1.710   4.473  -1.131  1.00  0.00     0.210 C 
ENDBRANCH  16  21
ENDBRANCH   4  13
BRANCH   6  23
HETATM   23  O2  UNK     1       0.241  -0.915   3.544  1.00  0.00    -0.355 OA
HETATM   24  H10 UNK     1      -0.047  -0.019   3.306  1.00  0.00     0.218 HD
ENDBRANCH   6  23
TORSDOF 4
