REMARK  6 active torsions:
REMARK  status: ('A' for Active; 'I' for Inactive)
REMARK    1  A    between atoms: C4_9  and  O1_1 
REMARK    2  A    between atoms: C6_11  and  O2_2 
REMARK       I    between atoms: C16_21  and  N1_5 
REMARK    3  A    between atoms: C5_10  and  N1_5 
REMARK    4  A    between atoms: C1_6  and  C8_13 
REMARK    5  A    between atoms: C11_16  and  C2_7 
REMARK    6  A    between atoms: C11_16  and  C15_20 
ROOT
HETATM    1  O3  UNK     1       0.159   0.901   2.581  1.00  0.00    -0.288 OA
HETATM    2  C11 UNK     1      -0.323   0.361   1.574  1.00  0.00     0.182 C 
ENDROOT
BRANCH   2   3
HETATM    3  C2  UNK     1      -1.519  -0.460   1.667  1.00  0.00     0.014 A 
HETATM    4  C10 UNK     1      -1.723  -1.501   0.761  1.00  0.00     0.018 A 
HETATM    5  C14 UNK     1      -2.871  -2.289   0.850  1.00  0.00     0.030 A 
HETATM    6  C5  UNK     1      -3.815  -2.036   1.846  1.00  0.00     0.034 A 
HETATM    7  C13 UNK     1      -3.611  -0.995   2.752  1.00  0.00     0.030 A 
HETATM    8  C9  UNK     1      -2.463  -0.207   2.663  1.00  0.00     0.018 A 
BRANCH   6   9
HETATM    9  N1  UNK     1      -4.962  -2.824   1.935  1.00  0.00    -0.328 N 
HETATM   10  C16 UNK     1      -6.012  -2.723   2.858  1.00  0.00     0.218 C 
HETATM   11  O4  UNK     1      -6.126  -1.911   3.771  1.00  0.00    -0.274 OA
HETATM   12  C19 UNK     1      -7.071  -3.768   2.617  1.00  0.00     0.117 C 
HETATM   13  H10 UNK     1      -5.037  -3.563   1.239  1.00  0.00     0.169 HD
ENDBRANCH   6   9
ENDBRANCH   2   3
BRANCH   2  14
HETATM   14  C15 UNK     1       0.303   0.570   0.223  1.00  0.00     0.056 C 
HETATM   15  C8  UNK     1       1.391   1.342   0.087  1.00  0.00     0.015 C 
BRANCH  15  16
HETATM   16  C1  UNK     1       2.065   1.616  -1.194  1.00  0.00    -0.033 A 
HETATM   17  C3  UNK     1       2.903   2.724  -1.318  1.00  0.00     0.051 A 
HETATM   18  C4  UNK     1       3.541   2.984  -2.531  1.00  0.00     0.102 A 
HETATM   19  C6  UNK     1       3.341   2.136  -3.620  1.00  0.00     0.101 A 
HETATM   20  C12 UNK     1       2.503   1.028  -3.497  1.00  0.00     0.040 A 
HETATM   21  C7  UNK     1       1.865   0.768  -2.284  1.00  0.00     0.014 A 
BRANCH  18  22
HETATM   22  O1  UNK     1       4.357   4.070  -2.640  1.00  0.00    -0.353 OA
HETATM   23  C17 UNK     1       4.508   4.886  -1.480  1.00  0.00     0.210 C 
ENDBRANCH  18  22
BRANCH  19  24
HETATM   24  O2  UNK     1       3.958   2.379  -4.810  1.00  0.00    -0.353 OA
HETATM   25  C18 UNK     1       3.700   1.464  -5.873  1.00  0.00     0.210 C 
ENDBRANCH  19  24
ENDBRANCH  15  16
ENDBRANCH   2  14
TORSDOF 6
