REMARK  7 active torsions:
REMARK  status: ('A' for Active; 'I' for Inactive)
REMARK    1  A    between atoms: C14_22  and  O3_4 
REMARK    2  A    between atoms: C20_28  and  O3_4 
REMARK    3  A    between atoms: C24_32  and  O6_7 
REMARK    4  A    between atoms: C25_33  and  O6_7 
REMARK    5  A    between atoms: C12_20  and  C6_14 
REMARK    6  A    between atoms: C10_18  and  C14_22 
REMARK    7  A    between atoms: C20_28  and  C24_32 
ROOT
HETATM    1  O1  UNK     1      -0.496  -2.234   2.638  1.00  0.00    -0.293 OA
HETATM    2  N1  UNK     1      -4.342  -0.738   0.314  1.00  0.00    -0.362 N 
HETATM    3  C1  UNK     1      -3.970  -2.426   3.664  1.00  0.00    -0.036 C 
HETATM    4  C2  UNK     1      -4.560  -1.409   2.667  1.00  0.00     0.067 C 
HETATM    5  C3  UNK     1      -2.499  -2.078   3.931  1.00  0.00     0.092 C 
HETATM    6  C4  UNK     1      -3.694  -1.171   1.455  1.00  0.00     0.021 C 
HETATM    7  C5  UNK     1      -2.364  -1.397   1.437  1.00  0.00     0.024 C 
HETATM    8  C6  UNK     1      -1.534  -1.133   0.182  1.00  0.00     0.104 C 
HETATM    9  C7  UNK     1      -1.692  -1.942   2.656  1.00  0.00     0.159 C 
HETATM   10  C8  UNK     1      -4.092  -3.863   3.113  1.00  0.00     0.015 C 
HETATM   11  C9  UNK     1      -4.756  -2.354   4.986  1.00  0.00     0.015 C 
HETATM   12  C10 UNK     1      -2.407  -0.853  -1.045  1.00  0.00     0.052 C 
HETATM   13  C11 UNK     1      -3.738  -0.637  -0.929  1.00  0.00     0.018 C 
HETATM   14  C13 UNK     1      -4.669  -0.295  -2.061  1.00  0.00     0.069 C 
HETATM   15  H12 UNK     1      -5.341  -0.578   0.368  1.00  0.00     0.165 HD
ENDROOT
BRANCH   8  16
HETATM   16  C12 UNK     1      -0.576   0.010   0.410  1.00  0.00     0.029 A 
HETATM   17  C15 UNK     1       0.881  -0.256   0.317  1.00  0.00     0.194 A 
HETATM   18  O5  UNK     1       1.325  -1.368   0.063  1.00  0.00    -0.287 OA
HETATM   19  C17 UNK     1       1.772   0.896   0.549  1.00  0.00     0.050 A 
HETATM   20  C18 UNK     1       1.211   2.141   0.834  1.00  0.00     0.089 A 
HETATM   21  C19 UNK     1       3.160   0.748   0.484  1.00  0.00     0.042 A 
HETATM   22  O2  UNK     1      -0.144   2.344   0.910  1.00  0.00    -0.321 OA
HETATM   23  C21 UNK     1       2.035   3.245   1.057  1.00  0.00     0.040 A 
HETATM   24  C16 UNK     1      -0.961   1.262   0.692  1.00  0.00     0.154 A 
HETATM   25  C23 UNK     1       3.421   3.099   0.992  1.00  0.00     0.026 A 
HETATM   26  C22 UNK     1       3.982   1.854   0.707  1.00  0.00     0.035 A 
HETATM   27 Cl1  UNK     1       5.693   1.682   0.629  1.00  0.00    -0.084 Cl
ENDBRANCH   8  16
BRANCH  12  28
HETATM   28  C14 UNK     1      -1.738  -0.889  -2.356  1.00  0.00     0.292 C 
HETATM   29  O4  UNK     1      -1.603  -1.906  -3.009  1.00  0.00    -0.259 OA
BRANCH  28  30
HETATM   30  O3  UNK     1      -1.332   0.367  -2.662  1.00  0.00    -0.316 OA
BRANCH  30  31
HETATM   31  C20 UNK     1      -0.659   0.496  -3.919  1.00  0.00     0.205 C 
BRANCH  31  32
HETATM   32  C24 UNK     1       0.829   0.293  -3.706  1.00  0.00     0.202 C 
BRANCH  32  33
HETATM   33  O6  UNK     1       1.311   1.290  -2.813  1.00  0.00    -0.349 OA
BRANCH  33  34
HETATM   34  C25 UNK     1       2.619   1.669  -2.960  1.00  0.00     0.068 A 
HETATM   35  C26 UNK     1       3.552   0.754  -3.436  1.00  0.00     0.037 A 
HETATM   36  C28 UNK     1       4.884   1.140  -3.584  1.00  0.00     0.003 A 
HETATM   37  C30 UNK     1       5.275   2.437  -3.255  1.00  0.00     0.000 A 
HETATM   38  C29 UNK     1       4.334   3.350  -2.778  1.00  0.00     0.003 A 
HETATM   39  C27 UNK     1       3.002   2.964  -2.630  1.00  0.00     0.037 A 
ENDBRANCH  33  34
ENDBRANCH  32  33
ENDBRANCH  31  32
ENDBRANCH  30  31
ENDBRANCH  28  30
ENDBRANCH  12  28
TORSDOF 7
