REMARK  5 active torsions:
REMARK  status: ('A' for Active; 'I' for Inactive)
REMARK    1  A    between atoms: C17_22  and  O2_2 
REMARK    2  A    between atoms: C9_14  and  O2_2 
REMARK    3  A    between atoms: C10_15  and  O3_3 
REMARK    4  A    between atoms: C18_23  and  O3_3 
REMARK    5  A    between atoms: C1_6  and  C6_11 
ROOT
HETATM    1  N1  UNK     1       0.862   0.142   2.969  1.00  0.00     0.097 N 
HETATM    2  C1  UNK     1       0.875  -0.635   1.714  1.00  0.00     0.292 C 
HETATM    3  C2  UNK     1       1.466   0.121   0.530  1.00  0.00    -0.011 A 
HETATM    4  C3  UNK     1       2.192   1.311   0.733  1.00  0.00    -0.045 A 
HETATM    5  C4  UNK     1       2.351   1.880   2.118  1.00  0.00     0.069 C 
HETATM    6  C5  UNK     1       2.135   0.821   3.195  1.00  0.00     0.275 C 
HETATM    7  C7  UNK     1       1.366  -0.392  -0.775  1.00  0.00     0.049 A 
HETATM    8  C8  UNK     1       2.743   1.993  -0.362  1.00  0.00     0.047 A 
HETATM    9  C9  UNK     1       1.929   0.287  -1.857  1.00  0.00     0.102 A 
HETATM   10  C10 UNK     1       2.611   1.482  -1.651  1.00  0.00     0.102 A 
HETATM   11  H6  UNK     1       0.678  -0.489   3.749  1.00  0.00     0.317 HD
ENDROOT
BRANCH   2  12
HETATM   12  C6  UNK     1      -0.528  -1.102   1.447  1.00  0.00     0.053 A 
HETATM   13  C11 UNK     1      -1.579  -0.083   1.200  1.00  0.00     0.195 A 
HETATM   14  O4  UNK     1      -1.338   1.117   1.207  1.00  0.00    -0.287 OA
HETATM   15  C13 UNK     1      -2.938  -0.595   0.943  1.00  0.00     0.048 A 
HETATM   16  C14 UNK     1      -3.155  -1.973   0.946  1.00  0.00     0.089 A 
HETATM   17  C15 UNK     1      -3.996   0.283   0.699  1.00  0.00     0.018 A 
HETATM   18  C16 UNK     1      -4.433  -2.480   0.705  1.00  0.00     0.038 A 
HETATM   19  O1  UNK     1      -2.153  -2.881   1.179  1.00  0.00    -0.321 OA
HETATM   20  C20 UNK     1      -5.491  -1.605   0.461  1.00  0.00     0.003 A 
HETATM   21  C19 UNK     1      -5.273  -0.226   0.458  1.00  0.00     0.001 A 
HETATM   22  C12 UNK     1      -0.893  -2.390   1.416  1.00  0.00     0.156 A 
ENDBRANCH   2  12
BRANCH   9  23
HETATM   23  O2  UNK     1       1.805  -0.233  -3.110  1.00  0.00    -0.349 OA
BRANCH  23  24
HETATM   24  C17 UNK     1       0.481  -0.414  -3.608  1.00  0.00     0.171 C 
HETATM   25  C21 UNK     1       0.494  -0.252  -5.114  1.00  0.00     0.034 C 
ENDBRANCH  23  24
ENDBRANCH   9  23
BRANCH  10  26
HETATM   26  O3  UNK     1       3.160   2.157  -2.699  1.00  0.00    -0.349 OA
BRANCH  26  27
HETATM   27  C18 UNK     1       2.699   3.487  -2.927  1.00  0.00     0.171 C 
HETATM   28  C22 UNK     1       2.805   3.800  -4.404  1.00  0.00     0.034 C 
ENDBRANCH  26  27
ENDBRANCH  10  26
TORSDOF 5
