REMARK  1 active torsions:
REMARK  status: ('A' for Active; 'I' for Inactive)
REMARK    1  A    between atoms: C3_7  and  C4_8 
ROOT
HETATM    1 Br1  UNK     1      -4.669  -2.308   2.872  1.00  0.00    -0.051 Br
HETATM    2  O1  UNK     1       0.375   0.114   0.570  1.00  0.00    -0.309 OA
HETATM    3  O2  UNK     1      -2.589  -0.918  -2.027  1.00  0.00    -0.287 OA
HETATM    4  C1  UNK     1      -1.840  -0.816   0.211  1.00  0.00     0.049 A 
HETATM    5  C2  UNK     1      -0.788  -0.439   1.044  1.00  0.00     0.090 A 
HETATM    6  C3  UNK     1       0.509   0.297  -0.798  1.00  0.00     0.091 A 
HETATM    7  C5  UNK     1      -1.705  -0.614  -1.239  1.00  0.00     0.187 A 
HETATM    8  C6  UNK     1      -0.434  -0.019  -1.699  1.00  0.00     0.093 A 
HETATM    9  C7  UNK     1      -3.002  -1.374   0.750  1.00  0.00     0.037 A 
HETATM   10  C8  UNK     1      -0.891  -0.619   2.424  1.00  0.00     0.039 A 
HETATM   11  C11 UNK     1      -3.103  -1.553   2.130  1.00  0.00     0.012 A 
HETATM   12  C12 UNK     1      -2.050  -1.176   2.965  1.00  0.00     0.022 A 
ENDROOT
BRANCH   6  13
HETATM   13  C4  UNK     1       1.795   0.903  -1.198  1.00  0.00     0.020 A 
HETATM   14  C10 UNK     1       2.861   0.048  -1.498  1.00  0.00     0.016 A 
HETATM   15  C14 UNK     1       4.096   0.571  -1.882  1.00  0.00     0.001 A 
HETATM   16  C15 UNK     1       4.273   1.952  -1.968  1.00  0.00     0.002 A 
HETATM   17  C13 UNK     1       3.214   2.810  -1.670  1.00  0.00     0.025 A 
HETATM   18  C9  UNK     1       1.979   2.288  -1.286  1.00  0.00     0.047 A 
HETATM   19 Cl1  UNK     1       0.701   3.396  -0.929  1.00  0.00    -0.083 Cl
ENDBRANCH   6  13
TORSDOF 1
