REMARK  4 active torsions:
REMARK  status: ('A' for Active; 'I' for Inactive)
REMARK    1  A    between atoms: C1_11  and  N1_9 
REMARK       I    between atoms: C9_19  and  N1_9 
REMARK    2  A    between atoms: C10_20  and  N2_10 
REMARK    3  A    between atoms: C12_22  and  C2_12 
REMARK    4  A    between atoms: C4_14  and  C9_19 
ROOT
HETATM    1  O2  UNK     1       1.114   0.946   1.738  1.00  0.00    -0.267 OA
HETATM    2  N1  UNK     1      -0.363   0.056   0.133  1.00  0.00    -0.322 N 
HETATM    3  C9  UNK     1       0.763   0.734   0.579  1.00  0.00     0.262 C 
HETATM    4  H1  UNK     1      -0.489  -0.049  -0.870  1.00  0.00     0.169 HD
ENDROOT
BRANCH   2   5
HETATM    5  C1  UNK     1      -1.357  -0.543   0.919  1.00  0.00     0.050 A 
HETATM    6  C8  UNK     1      -1.252  -0.477   2.306  1.00  0.00     0.033 A 
HETATM    7  C11 UNK     1      -2.231  -1.067   3.105  1.00  0.00     0.038 A 
HETATM    8  C10 UNK     1      -3.313  -1.721   2.515  1.00  0.00     0.103 A 
HETATM    9  C5  UNK     1      -3.415  -1.784   1.125  1.00  0.00     0.054 A 
HETATM   10  C2  UNK     1      -2.436  -1.194   0.326  1.00  0.00     0.076 A 
BRANCH   8  11
HETATM   11  N2  UNK     1      -4.310  -2.321   3.329  1.00  0.00    -0.116 N 
HETATM   12  O4  UNK     1      -4.198  -2.252   4.577  1.00  0.00    -0.532 OA
HETATM   13  O5  UNK     1      -5.275  -2.903   2.778  1.00  0.00    -0.532 OA
ENDBRANCH   8  11
BRANCH  10  14
HETATM   14  C12 UNK     1      -2.571  -1.278  -1.160  1.00  0.00     0.419 C 
HETATM   15  F1  UNK     1      -3.686  -1.951  -1.568  1.00  0.00    -0.166 F 
HETATM   16  F2  UNK     1      -2.645  -0.059  -1.769  1.00  0.00    -0.166 F 
HETATM   17  F3  UNK     1      -1.518  -1.918  -1.744  1.00  0.00    -0.166 F 
ENDBRANCH  10  14
ENDBRANCH   2   5
BRANCH   3  18
HETATM   18  C4  UNK     1       1.585   1.228  -0.532  1.00  0.00     0.108 A 
HETATM   19  C13 UNK     1       0.997   1.606  -1.837  1.00  0.00     0.304 A 
HETATM   20  O1  UNK     1       1.879   2.062  -2.812  1.00  0.00    -0.274 OA
HETATM   21  O3  UNK     1      -0.208   1.525  -2.053  1.00  0.00    -0.259 OA
HETATM   22  C7  UNK     1       3.264   2.160  -2.573  1.00  0.00     0.089 A 
HETATM   23  C15 UNK     1       4.068   2.627  -3.611  1.00  0.00     0.038 A 
HETATM   24  C3  UNK     1       3.796   1.799  -1.340  1.00  0.00    -0.001 A 
HETATM   25  C17 UNK     1       5.442   2.735  -3.405  1.00  0.00     0.003 A 
HETATM   26  C16 UNK     1       5.994   2.377  -2.173  1.00  0.00     0.001 A 
HETATM   27  C14 UNK     1       5.175   1.910  -1.142  1.00  0.00     0.014 A 
HETATM   28  C6  UNK     1       2.899   1.319  -0.300  1.00  0.00     0.037 A 
ENDBRANCH   3  18
TORSDOF 4
