REMARK  2 active torsions:
REMARK  status: ('A' for Active; 'I' for Inactive)
REMARK    1  A    between atoms: C3_7  and  C8_12 
REMARK    2  A    between atoms: C11_15  and  C8_12 
ROOT
HETATM    1  O1  UNK     1      -0.254   0.480  -2.028  1.00  0.00    -0.274 OA
HETATM    2  O2  UNK     1      -2.285  -0.535  -1.778  1.00  0.00    -0.259 OA
HETATM    3  C1  UNK     1       1.257   0.624  -0.128  1.00  0.00    -0.001 A 
HETATM    4  C2  UNK     1       0.973   0.884  -1.465  1.00  0.00     0.089 A 
HETATM    5  C3  UNK     1      -0.896  -0.453   0.140  1.00  0.00     0.087 A 
HETATM    6  C4  UNK     1       0.267  -0.071   0.680  1.00  0.00     0.035 A 
HETATM    7  C5  UNK     1       2.484   1.041   0.394  1.00  0.00     0.014 A 
HETATM    8  C6  UNK     1      -1.220  -0.188  -1.280  1.00  0.00     0.302 A 
HETATM    9  C7  UNK     1       1.877   1.547  -2.292  1.00  0.00     0.038 A 
HETATM   10  C9  UNK     1       3.402   1.706  -0.424  1.00  0.00     0.001 A 
HETATM   11  C10 UNK     1       3.099   1.959  -1.764  1.00  0.00     0.003 A 
ENDROOT
BRANCH   5  12
HETATM   12  C8  UNK     1      -1.830  -1.148   1.034  1.00  0.00     0.175 C 
HETATM   13  O3  UNK     1      -2.582  -2.013   0.582  1.00  0.00    -0.291 OA
BRANCH  12  14
HETATM   14  C11 UNK     1      -1.771  -0.779   2.497  1.00  0.00     0.169 C 
HETATM   15 Br1  UNK     1      -3.523  -1.043   3.284  1.00  0.00    -0.088 Br
ENDBRANCH  12  14
ENDBRANCH   5  12
TORSDOF 2
