REMARK  2 active torsions:
REMARK  status: ('A' for Active; 'I' for Inactive)
REMARK    1  A    between atoms: C7_11  and  N1_4 
REMARK    2  A    between atoms: C11_15  and  C9_13 
ROOT
HETATM    1  O1  UNK     1      -2.496  -0.387  -1.903  1.00  0.00    -0.331 OA
HETATM    2  O2  UNK     1       1.119   0.588   1.133  1.00  0.00    -0.274 OA
HETATM    3  O3  UNK     1       2.839   1.080   2.555  1.00  0.00    -0.260 OA
HETATM    4  N1  UNK     1      -2.779  -1.029   0.431  1.00  0.00    -0.354 N 
HETATM    5  C1  UNK     1      -1.540  -0.353   0.822  1.00  0.00     0.169 C 
HETATM    6  C2  UNK     1      -0.701   0.067  -0.354  1.00  0.00     0.028 A 
HETATM    7  C3  UNK     1      -1.227   0.046  -1.643  1.00  0.00     0.081 A 
HETATM    8  C4  UNK     1       0.604   0.557  -0.182  1.00  0.00     0.101 A 
HETATM    9  C5  UNK     1      -2.957  -1.383  -0.975  1.00  0.00     0.301 C 
HETATM   10  C6  UNK     1       1.380   1.014  -1.250  1.00  0.00     0.010 A 
HETATM   11  C8  UNK     1      -0.483   0.518  -2.726  1.00  0.00     0.038 A 
HETATM   12  C9  UNK     1       2.743   1.509  -0.996  1.00  0.00    -0.007 A 
HETATM   13  C10 UNK     1       0.816   0.992  -2.530  1.00  0.00     0.018 A 
HETATM   14  C14 UNK     1       3.196   1.515   0.268  1.00  0.00     0.095 A 
HETATM   15  C15 UNK     1       2.393   1.053   1.413  1.00  0.00     0.289 A 
ENDROOT
BRANCH   4  16
HETATM   16  C7  UNK     1      -3.564  -1.627   1.425  1.00  0.00     0.032 A 
HETATM   17  C12 UNK     1      -3.594  -1.118   2.743  1.00  0.00     0.030 A 
HETATM   18  C16 UNK     1      -4.376  -1.713   3.733  1.00  0.00     0.009 A 
HETATM   19  C18 UNK     1      -5.150  -2.833   3.430  1.00  0.00    -0.062 A 
HETATM   20  C17 UNK     1      -5.142  -3.358   2.138  1.00  0.00     0.009 A 
HETATM   21  C21 UNK     1      -5.987  -3.469   4.488  1.00  0.00     0.048 C 
HETATM   22  C13 UNK     1      -4.359  -2.763   1.148  1.00  0.00     0.030 A 
ENDBRANCH   4  16
BRANCH  12  23
HETATM   23  C11 UNK     1       3.681   2.006  -2.022  1.00  0.00    -0.025 A 
HETATM   24  C19 UNK     1       3.688   3.357  -2.358  1.00  0.00     0.012 A 
HETATM   25  C22 UNK     1       4.576   3.826  -3.327  1.00  0.00     0.001 A 
HETATM   26  C24 UNK     1       5.453   2.942  -3.955  1.00  0.00     0.000 A 
HETATM   27  C23 UNK     1       5.442   1.589  -3.615  1.00  0.00     0.001 A 
HETATM   28  C20 UNK     1       4.554   1.121  -2.647  1.00  0.00     0.012 A 
ENDBRANCH  12  23
TORSDOF 2
