REMARK  7 active torsions:
REMARK  status: ('A' for Active; 'I' for Inactive)
REMARK    1  A    between atoms: C10_18  and  O3_3 
REMARK    2  A    between atoms: C19_27  and  O3_3 
REMARK    3  A    between atoms: C20_28  and  O6_6 
REMARK    4  A    between atoms: C7_15  and  N1_7 
REMARK    5  A    between atoms: C1_9  and  C4_12 
REMARK    6  A    between atoms: C10_18  and  C3_11 
REMARK    7  A    between atoms: C19_27  and  C20_28 
ROOT
HETATM    1  O1  UNK     1      -0.857   1.110  -2.454  1.00  0.00    -0.270 OA
HETATM    2  O2  UNK     1       1.259   2.098  -2.659  1.00  0.00    -0.286 OA
HETATM    3  O4  UNK     1       2.844  -0.430   0.107  1.00  0.00    -0.287 OA
HETATM    4  C1  UNK     1       0.013  -0.704  -0.411  1.00  0.00     0.104 C 
HETATM    5  C2  UNK     1       0.919   0.304  -1.083  1.00  0.00     0.065 A 
HETATM    6  C3  UNK     1      -1.328  -0.801  -1.112  1.00  0.00     0.081 C 
HETATM    7  C5  UNK     1       0.469   1.145  -2.034  1.00  0.00     0.204 A 
HETATM    8  C6  UNK     1       2.357   0.346  -0.705  1.00  0.00     0.197 A 
HETATM    9  C7  UNK     1      -1.710   0.075  -2.065  1.00  0.00     0.157 C 
HETATM   10  C8  UNK     1       3.174   1.377  -1.359  1.00  0.00     0.049 A 
HETATM   11  C9  UNK     1       2.578   2.204  -2.306  1.00  0.00     0.092 A 
HETATM   12  C13 UNK     1       4.526   1.528  -1.042  1.00  0.00     0.018 A 
HETATM   13  C14 UNK     1       3.331   3.190  -2.944  1.00  0.00     0.038 A 
HETATM   14  C17 UNK     1       5.278   2.515  -1.680  1.00  0.00     0.001 A 
HETATM   15  C18 UNK     1       4.681   3.346  -2.629  1.00  0.00     0.003 A 
ENDROOT
BRANCH   6  16
HETATM   16  C10 UNK     1      -2.193  -1.929  -0.723  1.00  0.00     0.294 C 
HETATM   17  O5  UNK     1      -2.146  -3.021  -1.256  1.00  0.00    -0.259 OA
BRANCH  16  18
HETATM   18  O3  UNK     1      -2.997  -1.520   0.288  1.00  0.00    -0.316 OA
BRANCH  18  19
HETATM   19  C19 UNK     1      -3.903  -2.513   0.780  1.00  0.00     0.205 C 
BRANCH  19  20
HETATM   20  C20 UNK     1      -4.732  -1.915   1.901  1.00  0.00     0.193 C 
BRANCH  20  21
HETATM   21  O6  UNK     1      -3.865  -1.510   2.953  1.00  0.00    -0.394 OA
HETATM   22  C21 UNK     1      -4.588  -0.920   4.024  1.00  0.00     0.201 C 
ENDBRANCH  20  21
ENDBRANCH  19  20
ENDBRANCH  18  19
ENDBRANCH  16  18
ENDBRANCH   6  16
BRANCH   4  23
HETATM   23  C4  UNK     1      -0.180  -0.352   1.035  1.00  0.00    -0.042 A 
HETATM   24  C11 UNK     1       0.239  -1.233   2.020  1.00  0.00     0.027 A 
HETATM   25  C15 UNK     1       0.038  -0.861   3.340  1.00  0.00     0.116 A 
HETATM   26  N2  UNK     1      -0.538   0.301   3.720  1.00  0.00    -0.273 NA
HETATM   27  C16 UNK     1      -0.931   1.130   2.726  1.00  0.00     0.116 A 
HETATM   28  C12 UNK     1      -0.775   0.851   1.377  1.00  0.00     0.027 A 
ENDBRANCH   4  23
BRANCH   9  29
HETATM   29  N1  UNK     1      -2.899   0.074  -2.737  1.00  0.00    -0.379 N 
HETATM   30  H6  UNK     1      -3.070   0.788  -3.433  1.00  0.00     0.158 HD
HETATM   31  H7  UNK     1      -3.601  -0.627  -2.539  1.00  0.00     0.158 HD
ENDBRANCH   9  29
TORSDOF 7
