REMARK  3 active torsions:
REMARK  status: ('A' for Active; 'I' for Inactive)
REMARK    1  A    between atoms: C9_13  and  O2_2 
REMARK    2  A    between atoms: C5_9  and  O3_3 
REMARK    3  A    between atoms: C3_7  and  C6_10 
ROOT
HETATM    1  O1  UNK     1      -0.072   0.725   0.387  1.00  0.00    -0.306 OA
HETATM    2  O4  UNK     1      -1.598  -1.810  -2.414  1.00  0.00    -0.284 OA
HETATM    3  C1  UNK     1      -1.713  -0.958  -0.218  1.00  0.00     0.051 A 
HETATM    4  C2  UNK     1      -1.143  -0.073   0.695  1.00  0.00     0.093 A 
HETATM    5  C3  UNK     1       0.460   0.655  -0.890  1.00  0.00     0.123 A 
HETATM    6  C4  UNK     1      -1.144  -1.047  -1.572  1.00  0.00     0.220 A 
HETATM    7  C5  UNK     1       0.011  -0.163  -1.860  1.00  0.00     0.152 A 
HETATM    8  C7  UNK     1      -1.662   0.027   1.986  1.00  0.00     0.075 A 
HETATM    9  C8  UNK     1      -2.804  -1.748   0.152  1.00  0.00     0.021 A 
HETATM   10  C9  UNK     1      -2.751  -0.760   2.360  1.00  0.00     0.070 A 
HETATM   11  C10 UNK     1      -3.321  -1.646   1.444  1.00  0.00     0.038 A 
ENDROOT
BRANCH   5  12
HETATM   12  C6  UNK     1       1.605   1.562  -1.087  1.00  0.00     0.001 A 
HETATM   13  C11 UNK     1       1.396   2.857  -1.562  1.00  0.00     0.014 A 
HETATM   14  C13 UNK     1       2.479   3.716  -1.747  1.00  0.00     0.001 A 
HETATM   15  C15 UNK     1       3.772   3.280  -1.458  1.00  0.00     0.000 A 
HETATM   16  C14 UNK     1       3.982   1.986  -0.983  1.00  0.00     0.001 A 
HETATM   17  C12 UNK     1       2.899   1.127  -0.798  1.00  0.00     0.014 A 
ENDBRANCH   5  12
BRANCH   7  18
HETATM   18  O3  UNK     1       0.584  -0.233  -3.111  1.00  0.00    -0.355 OA
HETATM   19  H9  UNK     1       1.327   0.389  -3.169  1.00  0.00     0.218 HD
ENDBRANCH   7  18
BRANCH  10  20
HETATM   20  O2  UNK     1      -3.261  -0.665   3.618  1.00  0.00    -0.356 OA
HETATM   21  C16 UNK     1      -2.632   0.260   4.505  1.00  0.00     0.210 C 
ENDBRANCH  10  20
TORSDOF 3
