REMARK  2 active torsions:
REMARK  status: ('A' for Active; 'I' for Inactive)
REMARK    1  A    between atoms: C10_15  and  O3_4 
REMARK    2  A    between atoms: C10_15  and  C4_9 
ROOT
HETATM    1 Cl1  UNK     1       4.200   2.314  -0.904  1.00  0.00    -0.084 Cl
HETATM    2  O1  UNK     1      -1.061  -0.258  -1.602  1.00  0.00    -0.274 OA
HETATM    3  O2  UNK     1      -2.916  -1.254  -0.714  1.00  0.00    -0.259 OA
HETATM    4  C1  UNK     1       0.712   0.509  -0.126  1.00  0.00     0.001 A 
HETATM    5  C2  UNK     1       0.193   0.353  -1.407  1.00  0.00     0.089 A 
HETATM    6  C3  UNK     1      -0.062   0.032   1.010  1.00  0.00     0.039 A 
HETATM    7  C4  UNK     1      -1.253  -0.547   0.819  1.00  0.00     0.114 A 
HETATM    8  C5  UNK     1       1.959   1.120   0.027  1.00  0.00     0.038 A 
HETATM    9  C6  UNK     1       0.883   0.789  -2.536  1.00  0.00     0.040 A 
HETATM   10  C7  UNK     1      -1.825  -0.724  -0.535  1.00  0.00     0.305 A 
HETATM   11  C8  UNK     1       2.663   1.562  -1.097  1.00  0.00     0.035 A 
HETATM   12  C9  UNK     1       2.126   1.397  -2.376  1.00  0.00     0.026 A 
ENDROOT
BRANCH   7  13
HETATM   13  C10 UNK     1      -1.958  -0.996   2.026  1.00  0.00     0.182 C 
HETATM   14  O4  UNK     1      -1.377  -1.362   3.037  1.00  0.00    -0.646 OA
BRANCH  13  15
HETATM   15  O3  UNK     1      -3.286  -0.929   1.830  1.00  0.00    -0.772 OA
HETATM   16  H5  UNK     1      -3.792  -1.220   2.619  1.00  0.00     0.167 HD
ENDBRANCH  13  15
ENDBRANCH   7  13
TORSDOF 2
