REMARK  4 active torsions:
REMARK  status: ('A' for Active; 'I' for Inactive)
REMARK    1  A    between atoms: C7_16  and  N1_7 
REMARK    2  A    between atoms: C23_32  and  N3_9 
REMARK    3  A    between atoms: C1_10  and  C3_12 
REMARK    4  A    between atoms: C11_20  and  C14_23 
ROOT
HETATM    1  O1  UNK     1       2.501  -0.519  -1.618  1.00  0.00    -0.291 OA
HETATM    2  O3  UNK     1       2.094   3.430  -0.299  1.00  0.00    -0.274 OA
HETATM    3  O4  UNK     1       0.216   3.665  -1.570  1.00  0.00    -0.259 OA
HETATM    4  N2  UNK     1      -0.814  -1.427  -4.993  1.00  0.00    -0.191 NA
HETATM    5  C1  UNK     1       0.204   0.948  -2.522  1.00  0.00     0.133 C 
HETATM    6  C2  UNK     1       1.261   1.529  -1.602  1.00  0.00     0.068 A 
HETATM    7  C4  UNK     1       2.306   0.787  -1.207  1.00  0.00     0.104 A 
HETATM    8  C5  UNK     1       0.614  -0.411  -3.084  1.00  0.00     0.088 C 
HETATM    9  C6  UNK     1       3.314   1.325  -0.297  1.00  0.00     0.033 A 
HETATM   10  C7  UNK     1       1.700  -1.068  -2.619  1.00  0.00     0.160 C 
HETATM   11  C8  UNK     1       1.128   2.947  -1.175  1.00  0.00     0.298 A 
HETATM   12  C10 UNK     1       3.174   2.640   0.137  1.00  0.00     0.092 A 
HETATM   13  C13 UNK     1       4.413   0.591   0.166  1.00  0.00     0.017 A 
HETATM   14  C15 UNK     1       4.086   3.234   1.010  1.00  0.00     0.038 A 
HETATM   15  C16 UNK     1      -0.175  -0.972  -4.139  1.00  0.00     0.100 C 
HETATM   16  C17 UNK     1       5.336   1.172   1.041  1.00  0.00     0.001 A 
HETATM   17  C18 UNK     1       5.172   2.492   1.462  1.00  0.00     0.003 A 
ENDROOT
BRANCH   5  18
HETATM   18  C3  UNK     1      -1.139   0.890  -1.869  1.00  0.00     0.068 A 
HETATM   19  O2  UNK     1      -1.220   0.091  -0.787  1.00  0.00    -0.313 OA
HETATM   20  C11 UNK     1      -2.506   0.185  -0.357  1.00  0.00     0.086 A 
HETATM   21  C12 UNK     1      -3.224   1.036  -1.164  1.00  0.00     0.040 A 
HETATM   22  C9  UNK     1      -2.322   1.494  -2.154  1.00  0.00     0.036 A 
BRANCH  20  23
HETATM   23  C14 UNK     1      -2.825  -0.596   0.805  1.00  0.00    -0.002 A 
HETATM   24  C19 UNK     1      -4.120  -0.575   1.333  1.00  0.00     0.017 A 
HETATM   25  C21 UNK     1      -4.430  -1.334   2.462  1.00  0.00     0.037 A 
HETATM   26  C23 UNK     1      -3.448  -2.118   3.067  1.00  0.00     0.102 A 
HETATM   27  C22 UNK     1      -2.155  -2.142   2.544  1.00  0.00     0.037 A 
HETATM   28  C20 UNK     1      -1.844  -1.383   1.415  1.00  0.00     0.017 A 
BRANCH  26  29
HETATM   29  N3  UNK     1      -3.764  -2.890   4.216  1.00  0.00    -0.116 N 
HETATM   30  O5  UNK     1      -4.933  -2.854   4.670  1.00  0.00    -0.532 OA
HETATM   31  O6  UNK     1      -2.865  -3.588   4.745  1.00  0.00    -0.532 OA
ENDBRANCH  26  29
ENDBRANCH  20  23
ENDBRANCH   5  18
BRANCH  10  32
HETATM   32  N1  UNK     1       2.128  -2.292  -3.054  1.00  0.00    -0.379 N 
HETATM   33  H7  UNK     1       2.957  -2.696  -2.638  1.00  0.00     0.158 HD
HETATM   34  H8  UNK     1       1.627  -2.792  -3.778  1.00  0.00     0.158 HD
ENDBRANCH  10  32
TORSDOF 4
