REMARK  4 active torsions:
REMARK  status: ('A' for Active; 'I' for Inactive)
REMARK    1  A    between atoms: C4_8  and  N1_4 
REMARK    2  A    between atoms: C14_18  and  C3_7 
REMARK    3  A    between atoms: C15_19  and  C6_10 
REMARK    4  A    between atoms: C14_18  and  C16_20 
ROOT
HETATM    1  O3  UNK     1       1.730   1.940   1.326  1.00  0.00    -0.288 OA
HETATM    2  C14 UNK     1       1.254   1.409   0.312  1.00  0.00     0.182 C 
ENDROOT
BRANCH   2   3
HETATM    3  C3  UNK     1       1.907   1.548  -0.980  1.00  0.00     0.017 A 
HETATM    4  C5  UNK     1       2.622   2.712  -1.273  1.00  0.00     0.055 A 
HETATM    5  C1  UNK     1       3.224   2.799  -2.512  1.00  0.00     0.105 A 
HETATM    6  O1  UNK     1       3.956   3.850  -2.972  1.00  0.00    -0.323 OA
HETATM    7  C2  UNK     1       3.132   1.782  -3.435  1.00  0.00     0.105 A 
HETATM    8  C11 UNK     1       4.315   3.381  -4.288  1.00  0.00     0.352 A 
HETATM    9  O2  UNK     1       3.795   2.069  -4.588  1.00  0.00    -0.323 OA
HETATM   10  C7  UNK     1       2.433   0.623  -3.170  1.00  0.00     0.040 A 
HETATM   11  C8  UNK     1       1.813   0.509  -1.923  1.00  0.00     0.018 A 
ENDBRANCH   2   3
BRANCH   2  12
HETATM   12  C16 UNK     1       0.003   0.580   0.400  1.00  0.00     0.056 C 
HETATM   13  C15 UNK     1      -0.617   0.403   1.576  1.00  0.00     0.015 C 
BRANCH  13  14
HETATM   14  C6  UNK     1      -1.837  -0.402   1.764  1.00  0.00    -0.036 A 
HETATM   15  C12 UNK     1      -2.176  -1.351   0.813  1.00  0.00     0.013 A 
HETATM   16  C9  UNK     1      -3.331  -2.113   0.991  1.00  0.00     0.030 A 
HETATM   17  C4  UNK     1      -4.131  -1.916   2.117  1.00  0.00     0.029 A 
HETATM   18  C10 UNK     1      -3.776  -0.956   3.065  1.00  0.00     0.030 A 
HETATM   19  C13 UNK     1      -2.621  -0.194   2.887  1.00  0.00     0.013 A 
BRANCH  17  20
HETATM   20  N1  UNK     1      -5.298  -2.686   2.296  1.00  0.00    -0.390 N 
HETATM   21  C17 UNK     1      -5.676  -3.686   1.317  1.00  0.00     0.149 C 
HETATM   22  C18 UNK     1      -6.128  -2.498   3.470  1.00  0.00     0.149 C 
ENDBRANCH  17  20
ENDBRANCH  13  14
ENDBRANCH   2  12
TORSDOF 4
