REMARK  8 active torsions:
REMARK  status: ('A' for Active; 'I' for Inactive)
REMARK    1  A    between atoms: C16_22  and  O1_1 
REMARK    2  A    between atoms: C20_26  and  O1_1 
REMARK    3  A    between atoms: C23_29  and  N1_6 
REMARK    4  A    between atoms: C1_7  and  C2_8 
REMARK    5  A    between atoms: C10_16  and  C7_13 
REMARK    6  A    between atoms: C11_17  and  C13_19 
REMARK    7  A    between atoms: C12_18  and  C13_19 
REMARK    8  A    between atoms: C19_25  and  C20_26 
ROOT
HETATM    1  C12 UNK     1      -0.221  -0.224  -2.171  1.00  0.00     0.014 A 
HETATM    2  C14 UNK     1      -0.637   0.767  -1.305  1.00  0.00     0.018 A 
HETATM    3  C15 UNK     1      -0.746  -1.501  -2.132  1.00  0.00     0.018 A 
HETATM    4  C16 UNK     1      -2.165  -0.812  -0.300  1.00  0.00     0.079 A 
HETATM    5  C17 UNK     1      -1.618   0.470  -0.360  1.00  0.00     0.038 A 
HETATM    6  C18 UNK     1      -1.728  -1.798  -1.186  1.00  0.00     0.038 A 
ENDROOT
BRANCH   1   7
HETATM    7  C13 UNK     1       0.823   0.091  -3.176  1.00  0.00     0.182 C 
HETATM    8  O2  UNK     1       0.847  -0.518  -4.240  1.00  0.00    -0.288 OA
BRANCH   7   9
HETATM    9  C11 UNK     1       1.830   1.131  -2.824  1.00  0.00     0.056 C 
HETATM   10  C10 UNK     1       2.824   1.440  -3.687  1.00  0.00     0.015 C 
BRANCH  10  11
HETATM   11  C7  UNK     1       3.869   2.422  -3.446  1.00  0.00    -0.036 A 
HETATM   12  C8  UNK     1       5.053   2.376  -4.182  1.00  0.00     0.012 A 
HETATM   13  C5  UNK     1       6.055   3.318  -3.952  1.00  0.00     0.008 A 
HETATM   14  C2  UNK     1       5.873   4.306  -2.984  1.00  0.00    -0.055 A 
HETATM   15  C6  UNK     1       4.689   4.352  -2.248  1.00  0.00     0.008 A 
HETATM   16  C9  UNK     1       3.687   3.410  -2.479  1.00  0.00     0.012 A 
BRANCH  14  17
HETATM   17  C1  UNK     1       6.944   5.315  -2.737  1.00  0.00     0.010 C 
HETATM   18  C3  UNK     1       7.505   5.240  -1.304  1.00  0.00     0.015 C 
HETATM   19  C4  UNK     1       6.482   6.752  -3.043  1.00  0.00     0.015 C 
ENDBRANCH  14  17
ENDBRANCH  10  11
ENDBRANCH   7   9
ENDBRANCH   1   7
BRANCH   4  20
HETATM   20  O1  UNK     1      -3.121  -1.103   0.623  1.00  0.00    -0.275 OA
BRANCH  20  21
HETATM   21  C20 UNK     1      -2.623  -1.572   1.840  1.00  0.00     0.298 C 
HETATM   22  O3  UNK     1      -1.443  -1.741   2.109  1.00  0.00    -0.259 OA
BRANCH  21  23
HETATM   23  C19 UNK     1      -3.724  -1.865   2.793  1.00  0.00     0.040 A 
HETATM   24  C21 UNK     1      -3.551  -2.870   3.722  1.00  0.00     0.020 A 
HETATM   25  C24 UNK     1      -4.585  -3.146   4.617  1.00  0.00     0.037 A 
HETATM   26  C23 UNK     1      -5.769  -2.410   4.563  1.00  0.00     0.102 A 
HETATM   27  C25 UNK     1      -5.919  -1.399   3.614  1.00  0.00     0.037 A 
HETATM   28  C22 UNK     1      -4.885  -1.123   2.719  1.00  0.00     0.020 A 
BRANCH  26  29
HETATM   29  N1  UNK     1      -6.821  -2.691   5.474  1.00  0.00    -0.116 N 
HETATM   30  O4  UNK     1      -6.666  -3.604   6.320  1.00  0.00    -0.532 OA
HETATM   31  O5  UNK     1      -7.878  -2.017   5.409  1.00  0.00    -0.532 OA
ENDBRANCH  26  29
ENDBRANCH  21  23
ENDBRANCH  20  21
ENDBRANCH   4  20
TORSDOF 8
