REMARK  11 active torsions:
REMARK  status: ('A' for Active; 'I' for Inactive)
REMARK    1  A    between atoms: C1_6  and  O1_1 
REMARK    2  A    between atoms: C15_20  and  O3_3 
REMARK    3  A    between atoms: C16_21  and  O3_3 
REMARK    4  A    between atoms: C1_6  and  C4_9 
REMARK    5  A    between atoms: C2_7  and  C3_8 
REMARK    6  A    between atoms: C2_7  and  C4_9 
REMARK    7  A    between atoms: C3_8  and  C5_10 
REMARK    8  A    between atoms: C6_11  and  C7_12 
REMARK    9  A    between atoms: C6_11  and  C8_13 
REMARK   10  A    between atoms: C11_16  and  C8_13 
REMARK   11  A    between atoms: C13_18  and  C15_20 
ROOT
HETATM    1  C11 UNK     1       3.941   2.193   0.003  1.00  0.00    -0.085 C 
HETATM    2  C13 UNK     1       2.706   2.640   0.301  1.00  0.00     0.002 C 
HETATM    3  C14 UNK     1       4.590   1.134   0.855  1.00  0.00     0.043 C 
ENDROOT
BRANCH   1   4
HETATM    4  C8  UNK     1       4.748   2.660  -1.190  1.00  0.00     0.037 C 
BRANCH   4   5
HETATM    5  C6  UNK     1       4.596   1.773  -2.434  1.00  0.00     0.031 C 
BRANCH   5   6
HETATM    6  C7  UNK     1       3.196   1.762  -2.982  1.00  0.00    -0.024 C 
HETATM    7  C5  UNK     1       2.376   0.705  -3.149  1.00  0.00    -0.087 C 
HETATM    8  C12 UNK     1       2.839  -0.676  -2.764  1.00  0.00     0.043 C 
BRANCH   7   9
HETATM    9  C3  UNK     1       0.966   0.782  -3.691  1.00  0.00     0.041 C 
BRANCH   9  10
HETATM   10  C2  UNK     1      -0.075   0.342  -2.660  1.00  0.00     0.086 C 
BRANCH  10  11
HETATM   11  C4  UNK     1      -1.499   0.430  -3.198  1.00  0.00     0.160 C 
HETATM   12  O2  UNK     1      -1.728   0.808  -4.349  1.00  0.00    -0.295 OA
BRANCH  11  13
HETATM   13  C1  UNK     1      -2.645   0.041  -2.251  1.00  0.00     0.111 C 
HETATM   14  C9  UNK     1      -2.737   1.003  -1.072  1.00  0.00     0.053 C 
HETATM   15  C10 UNK     1      -2.516  -1.405  -1.783  1.00  0.00     0.053 C 
BRANCH  13  16
HETATM   16  O1  UNK     1      -3.862   0.165  -2.986  1.00  0.00    -0.383 OA
HETATM   17  H19 UNK     1      -3.854  -0.500  -3.696  1.00  0.00     0.211 HD
ENDBRANCH  13  16
ENDBRANCH  11  13
ENDBRANCH  10  11
ENDBRANCH   9  10
ENDBRANCH   7   9
ENDBRANCH   5   6
ENDBRANCH   4   5
ENDBRANCH   1   4
BRANCH   2  18
HETATM   18  C15 UNK     1       1.832   2.205   1.434  1.00  0.00     0.203 C 
BRANCH  18  19
HETATM   19  O3  UNK     1       1.590   0.810   1.310  1.00  0.00    -0.347 OA
BRANCH  19  20
HETATM   20  C16 UNK     1       0.432   0.331   1.866  1.00  0.00     0.071 A 
HETATM   21  C19 UNK     1      -0.199  -0.780   1.312  1.00  0.00     0.075 A 
HETATM   22  C18 UNK     1      -1.376  -1.248   1.894  1.00  0.00     0.092 A 
HETATM   23  C17 UNK     1      -1.934  -0.635   3.013  1.00  0.00    -0.002 A 
HETATM   24  O4  UNK     1      -1.991  -2.375   1.312  1.00  0.00    -0.275 OA
HETATM   25  C21 UNK     1      -1.294   0.479   3.561  1.00  0.00     0.017 A 
HETATM   26  C22 UNK     1      -3.163  -1.175   3.568  1.00  0.00     0.020 A 
HETATM   27  C20 UNK     1      -0.114   0.960   2.988  1.00  0.00     0.038 A 
HETATM   28  C23 UNK     1      -3.739  -2.243   3.011  1.00  0.00     0.083 A 
HETATM   29  C24 UNK     1      -3.167  -2.910   1.827  1.00  0.00     0.288 A 
HETATM   30  O5  UNK     1      -3.709  -3.890   1.327  1.00  0.00    -0.260 OA
ENDBRANCH  19  20
ENDBRANCH  18  19
ENDBRANCH   2  18
TORSDOF 11
