REMARK  7 active torsions:
REMARK  status: ('A' for Active; 'I' for Inactive)
REMARK    1  A    between atoms: C20_27  and  O3_3 
REMARK    2  A    between atoms: C22_29  and  O3_3 
REMARK    3  A    between atoms: C10_17  and  N1_5 
REMARK    4  A    between atoms: C12_19  and  N2_6 
REMARK    5  A    between atoms: C1_8  and  N3_7 
REMARK       I    between atoms: C11_18  and  N3_7 
REMARK    6  A    between atoms: C10_17  and  C11_18 
REMARK    7  A    between atoms: C12_19  and  C13_20 
ROOT
HETATM    1  N1  UNK     1      -0.943  -1.586   1.597  1.00  0.00     0.100 N 
HETATM    2  N2  UNK     1       0.966  -0.613  -0.344  1.00  0.00     0.096 N 
HETATM    3  C6  UNK     1       0.366  -1.066   2.010  1.00  0.00     0.303 C 
HETATM    4  C7  UNK     1      -1.382  -0.939   0.354  1.00  0.00     0.303 C 
HETATM    5  C8  UNK     1       1.404  -1.260   0.899  1.00  0.00     0.303 C 
HETATM    6  C9  UNK     1      -0.344  -1.131  -0.757  1.00  0.00     0.303 C 
ENDROOT
BRANCH   2   7
HETATM    7  C12 UNK     1       1.955  -0.801  -1.403  1.00  0.00     0.312 C 
BRANCH   7   8
HETATM    8  C13 UNK     1       1.850   0.241  -2.462  1.00  0.00    -0.011 A 
HETATM    9  C14 UNK     1       2.621   1.487  -2.344  1.00  0.00     0.009 A 
HETATM   10  C16 UNK     1       2.501   2.445  -3.352  1.00  0.00     0.090 A 
HETATM   11  C17 UNK     1       3.477   1.774  -1.273  1.00  0.00     0.051 A 
HETATM   12  O2  UNK     1       1.662   2.232  -4.464  1.00  0.00    -0.275 OA
HETATM   13  C19 UNK     1       3.197   3.655  -3.318  1.00  0.00     0.041 A 
HETATM   14  C18 UNK     1       0.924   1.066  -4.603  1.00  0.00     0.288 A 
HETATM   15  C15 UNK     1       1.060   0.065  -3.531  1.00  0.00     0.092 A 
HETATM   16  O4  UNK     1       0.192   0.871  -5.566  1.00  0.00    -0.260 OA
HETATM   17  C21 UNK     1       4.042   3.921  -2.245  1.00  0.00     0.039 A 
HETATM   18  C20 UNK     1       4.182   2.982  -1.224  1.00  0.00     0.069 A 
BRANCH  18  19
HETATM   19  O3  UNK     1       5.009   3.242  -0.174  1.00  0.00    -0.351 OA
BRANCH  19  20
HETATM   20  C22 UNK     1       4.664   2.661   1.082  1.00  0.00     0.171 C 
HETATM   21  C23 UNK     1       5.168   3.555   2.195  1.00  0.00     0.034 C 
ENDBRANCH  19  20
ENDBRANCH  18  19
ENDBRANCH   7   8
ENDBRANCH   2   7
BRANCH   1  22
HETATM   22  C10 UNK     1      -1.933  -1.401   2.656  1.00  0.00     0.374 C 
BRANCH  22  23
HETATM   23  C11 UNK     1      -3.051  -2.404   2.458  1.00  0.00     0.246 C 
HETATM   24  O1  UNK     1      -2.876  -3.514   1.962  1.00  0.00    -0.272 OA
HETATM   25  N3  UNK     1      -4.265  -1.924   2.928  1.00  0.00    -0.355 N 
HETATM   26  H18 UNK     1      -4.313  -0.974   3.286  1.00  0.00     0.162 HD
BRANCH  25  27
HETATM   27  C1  UNK     1      -5.487  -2.688   2.887  1.00  0.00     0.084 C 
HETATM   28  C2  UNK     1      -6.456  -2.271   3.987  1.00  0.00     0.025 C 
HETATM   29  C4  UNK     1      -7.186  -1.051   3.428  1.00  0.00     0.002 C 
HETATM   30  C5  UNK     1      -7.037  -1.120   1.908  1.00  0.00     0.002 C 
HETATM   31  C3  UNK     1      -6.281  -2.413   1.616  1.00  0.00     0.025 C 
ENDBRANCH  25  27
ENDBRANCH  22  23
ENDBRANCH   1  22
TORSDOF 7
