REMARK  6 active torsions:
REMARK  status: ('A' for Active; 'I' for Inactive)
REMARK    1  A    between atoms: C13_18  and  O3_3 
REMARK    2  A    between atoms: C23_28  and  O3_3 
REMARK    3  A    between atoms: C3_8  and  C8_13 
REMARK    4  A    between atoms: C11_16  and  C9_14 
REMARK    5  A    between atoms: C10_15  and  C11_16 
REMARK    6  A    between atoms: C12_17  and  C23_28 
ROOT
HETATM    1  C9  UNK     1       0.748   1.119   0.639  1.00  0.00     0.014 A 
HETATM    2  C13 UNK     1      -1.432  -0.182   1.794  1.00  0.00     0.079 A 
HETATM    3  C15 UNK     1      -0.487   1.762   0.715  1.00  0.00     0.018 A 
HETATM    4  C16 UNK     1       0.894  -0.174   1.140  1.00  0.00     0.018 A 
HETATM    5  C17 UNK     1      -1.577   1.112   1.293  1.00  0.00     0.038 A 
HETATM    6  C18 UNK     1      -0.197  -0.825   1.718  1.00  0.00     0.038 A 
ENDROOT
BRANCH   1   7
HETATM    7  C11 UNK     1       1.908   1.811   0.025  1.00  0.00     0.182 C 
HETATM    8  O4  UNK     1       2.790   1.155  -0.517  1.00  0.00    -0.288 OA
BRANCH   7   9
HETATM    9  C10 UNK     1       1.960   3.296   0.128  1.00  0.00     0.056 C 
HETATM   10  C8  UNK     1       2.592   4.024  -0.820  1.00  0.00     0.015 C 
BRANCH  10  11
HETATM   11  C3  UNK     1       3.261   3.476  -1.990  1.00  0.00    -0.033 A 
HETATM   12  C4  UNK     1       2.533   2.725  -2.916  1.00  0.00     0.051 A 
HETATM   13  C1  UNK     1       3.211   2.227  -4.010  1.00  0.00     0.105 A 
HETATM   14  O1  UNK     1       2.672   1.477  -5.009  1.00  0.00    -0.323 OA
HETATM   15  C2  UNK     1       4.555   2.455  -4.195  1.00  0.00     0.105 A 
HETATM   16  C7  UNK     1       3.828   1.259  -5.844  1.00  0.00     0.352 A 
HETATM   17  O2  UNK     1       5.026   1.877  -5.333  1.00  0.00    -0.323 OA
HETATM   18  C5  UNK     1       5.296   3.194  -3.296  1.00  0.00     0.040 A 
HETATM   19  C6  UNK     1       4.634   3.710  -2.179  1.00  0.00     0.014 A 
ENDBRANCH  10  11
ENDBRANCH   7   9
ENDBRANCH   1   7
BRANCH   2  20
HETATM   20  O3  UNK     1      -2.496  -0.816   2.358  1.00  0.00    -0.275 OA
BRANCH  20  21
HETATM   21  C23 UNK     1      -3.264  -1.561   1.460  1.00  0.00     0.298 C 
HETATM   22  O5  UNK     1      -3.055  -1.664   0.261  1.00  0.00    -0.259 OA
BRANCH  21  23
HETATM   23  C12 UNK     1      -4.403  -2.222   2.147  1.00  0.00     0.040 A 
HETATM   24  C19 UNK     1      -5.298  -3.005   1.418  1.00  0.00     0.018 A 
HETATM   25  C21 UNK     1      -6.368  -3.625   2.063  1.00  0.00     0.007 A 
HETATM   26  C14 UNK     1      -6.543  -3.461   3.437  1.00  0.00    -0.062 A 
HETATM   27  C22 UNK     1      -5.649  -2.677   4.166  1.00  0.00     0.007 A 
HETATM   28  C24 UNK     1      -7.688  -4.124   4.126  1.00  0.00     0.048 C 
HETATM   29  C20 UNK     1      -4.579  -2.058   3.521  1.00  0.00     0.018 A 
ENDBRANCH  21  23
ENDBRANCH  20  21
ENDBRANCH   2  20
TORSDOF 6
