REMARK  4 active torsions:
REMARK  status: ('A' for Active; 'I' for Inactive)
REMARK    1  A    between atoms: C6_13  and  S1_1 
REMARK    2  A    between atoms: N1_7  and  S1_1 
REMARK    3  A    between atoms: C4_11  and  N1_7 
REMARK    4  A    between atoms: C1_8  and  C4_11 
ROOT
HETATM    1  O4  UNK     1      -3.401  -0.555   2.116  1.00  0.00    -0.275 OA
HETATM    2  O5  UNK     1      -3.827  -1.557   4.132  1.00  0.00    -0.260 OA
HETATM    3  C6  UNK     1      -1.034  -0.213  -1.309  1.00  0.00     0.080 A 
HETATM    4  C7  UNK     1      -0.693  -1.153  -0.333  1.00  0.00     0.039 A 
HETATM    5  C8  UNK     1      -2.156   0.602  -1.141  1.00  0.00     0.028 A 
HETATM    6  C9  UNK     1      -1.474  -1.280   0.818  1.00  0.00    -0.001 A 
HETATM    7  C10 UNK     1      -2.588  -0.459   0.969  1.00  0.00     0.089 A 
HETATM    8  C11 UNK     1      -2.941   0.482   0.003  1.00  0.00     0.040 A 
HETATM    9  C12 UNK     1      -1.165  -2.240   1.864  1.00  0.00     0.020 A 
HETATM   10  C13 UNK     1      -1.940  -2.326   2.948  1.00  0.00     0.083 A 
HETATM   11  C14 UNK     1      -3.125  -1.467   3.130  1.00  0.00     0.288 A 
ENDROOT
BRANCH   3  12
HETATM   12  S1  UNK     1      -0.054  -0.057  -2.746  1.00  0.00     0.258 S 
HETATM   13  O2  UNK     1       0.637  -1.319  -2.982  1.00  0.00    -0.201 OA
HETATM   14  O3  UNK     1      -0.892   0.504  -3.797  1.00  0.00    -0.201 OA
BRANCH  12  15
HETATM   15  N1  UNK     1       1.097   1.117  -2.281  1.00  0.00    -0.313 N 
HETATM   16  H10 UNK     1       0.894   2.105  -2.479  1.00  0.00     0.172 HD
BRANCH  15  17
HETATM   17  C4  UNK     1       1.985   0.860  -1.138  1.00  0.00     0.164 C 
BRANCH  17  18
HETATM   18  C1  UNK     1       3.333   1.530  -1.320  1.00  0.00     0.140 C 
HETATM   19  O1  UNK     1       3.162   2.954  -1.417  1.00  0.00    -0.384 OA
HETATM   20  C5  UNK     1       4.203   3.589  -0.659  1.00  0.00     0.168 C 
HETATM   21  C3  UNK     1       5.183   2.506  -0.262  1.00  0.00     0.029 C 
HETATM   22  C2  UNK     1       4.288   1.296  -0.162  1.00  0.00     0.035 C 
ENDBRANCH  17  18
ENDBRANCH  15  17
ENDBRANCH  12  15
ENDBRANCH   3  12
TORSDOF 4
