REMARK  1 active torsions:
REMARK  status: ('A' for Active; 'I' for Inactive)
REMARK       I    between atoms: C5_10  and  N1_4 
REMARK    1  A    between atoms: C5_10  and  C7_12 
ROOT
HETATM    1  O2  UNK     1       1.140   2.478  -0.350  1.00  0.00    -0.274 OA
HETATM    2  O3  UNK     1      -0.223   2.124   1.449  1.00  0.00    -0.259 OA
HETATM    3  C7  UNK     1       0.641   0.197   0.374  1.00  0.00     0.108 A 
HETATM    4  C8  UNK     1       1.399  -0.309  -0.605  1.00  0.00     0.037 A 
HETATM    5  C9  UNK     1       2.086   0.577  -1.533  1.00  0.00    -0.001 A 
HETATM    6  C10 UNK     1       0.471   1.656   0.552  1.00  0.00     0.304 A 
HETATM    7  C11 UNK     1       1.940   1.952  -1.383  1.00  0.00     0.089 A 
HETATM    8  C12 UNK     1       2.887   0.093  -2.570  1.00  0.00     0.014 A 
HETATM    9  C13 UNK     1       2.570   2.854  -2.237  1.00  0.00     0.038 A 
HETATM   10  C14 UNK     1       3.527   0.986  -3.435  1.00  0.00     0.001 A 
HETATM   11  C15 UNK     1       3.368   2.364  -3.268  1.00  0.00     0.003 A 
ENDROOT
BRANCH   3  12
HETATM   12  C5  UNK     1      -0.015  -0.783   1.264  1.00  0.00     0.260 C 
HETATM   13  N1  UNK     1      -1.282  -1.236   0.907  1.00  0.00    -0.344 N 
HETATM   14  C1  UNK     1      -2.046  -0.826  -0.278  1.00  0.00     0.156 C 
HETATM   15  C2  UNK     1      -1.893  -2.319   1.679  1.00  0.00     0.156 C 
HETATM   16  C3  UNK     1      -3.525  -0.606   0.051  1.00  0.00     0.291 C 
HETATM   17  N2  UNK     1      -4.099  -1.773   0.733  1.00  0.00     0.087 N 
HETATM   18  C4  UNK     1      -3.366  -2.045   1.976  1.00  0.00     0.291 C 
HETATM   19  C6  UNK     1      -5.519  -1.559   1.010  1.00  0.00     0.310 C 
HETATM   20  O1  UNK     1       0.603  -1.146   2.267  1.00  0.00    -0.267 OA
ENDBRANCH   3  12
TORSDOF 1
