REMARK  2 active torsions:
REMARK  status: ('A' for Active; 'I' for Inactive)
REMARK    1  A    between atoms: C7_10  and  O2_2 
REMARK    2  A    between atoms: C3_6  and  C4_7 
ROOT
HETATM    1  O1  UNK     1      -0.002   0.987   0.578  1.00  0.00    -0.309 OA
HETATM    2  O3  UNK     1      -2.041  -2.015  -1.274  1.00  0.00    -0.287 OA
HETATM    3  C1  UNK     1      -1.775  -0.672   0.652  1.00  0.00     0.081 A 
HETATM    4  C2  UNK     1      -1.037   0.362   1.226  1.00  0.00     0.093 A 
HETATM    5  C3  UNK     1       0.327   0.565  -0.701  1.00  0.00     0.090 A 
HETATM    6  C5  UNK     1      -1.434  -1.116  -0.708  1.00  0.00     0.190 A 
HETATM    7  C6  UNK     1      -0.311  -0.414  -1.362  1.00  0.00     0.094 A 
HETATM    8  C7  UNK     1      -2.819  -1.273   1.359  1.00  0.00     0.082 A 
HETATM    9  C8  UNK     1      -1.340   0.803   2.514  1.00  0.00     0.038 A 
HETATM   10  C9  UNK     1      -3.120  -0.830   2.648  1.00  0.00     0.037 A 
HETATM   11  C10 UNK     1      -2.382   0.205   3.224  1.00  0.00     0.006 A 
ENDROOT
BRANCH   5  12
HETATM   12  C4  UNK     1       1.450   1.307  -1.308  1.00  0.00    -0.002 A 
HETATM   13  C11 UNK     1       1.503   1.494  -2.691  1.00  0.00     0.014 A 
HETATM   14  C13 UNK     1       2.563   2.196  -3.264  1.00  0.00     0.001 A 
HETATM   15  C15 UNK     1       3.574   2.714  -2.455  1.00  0.00     0.000 A 
HETATM   16  C14 UNK     1       3.525   2.530  -1.074  1.00  0.00     0.001 A 
HETATM   17  C12 UNK     1       2.465   1.828  -0.501  1.00  0.00     0.014 A 
ENDBRANCH   5  12
BRANCH   8  18
HETATM   18  O2  UNK     1      -3.569  -2.285   0.842  1.00  0.00    -0.360 OA
HETATM   19  H10 UNK     1      -3.269  -2.508  -0.052  1.00  0.00     0.217 HD
ENDBRANCH   8  18
TORSDOF 2
