REMARK  4 active torsions:
REMARK  status: ('A' for Active; 'I' for Inactive)
REMARK    1  A    between atoms: C7_12  and  O2_2 
REMARK    2  A    between atoms: C11_16  and  O4_4 
REMARK    3  A    between atoms: C12_17  and  O5_5 
REMARK    4  A    between atoms: C1_6  and  C3_8 
ROOT
HETATM    1  O1  UNK     1      -0.190   0.139  -1.284  1.00  0.00    -0.340 OA
HETATM    2  O3  UNK     1       0.942   3.514   0.756  1.00  0.00    -0.292 OA
HETATM    3  C1  UNK     1      -0.579   0.335   0.085  1.00  0.00     0.172 C 
HETATM    4  C2  UNK     1      -0.722   1.821   0.407  1.00  0.00     0.121 C 
HETATM    5  C4  UNK     1       0.594   2.509   0.149  1.00  0.00     0.165 C 
HETATM    6  C5  UNK     1       1.418   1.940  -0.939  1.00  0.00     0.046 A 
HETATM    7  C6  UNK     1       0.967   0.799  -1.609  1.00  0.00     0.083 A 
HETATM    8  C9  UNK     1       2.610   2.559  -1.321  1.00  0.00     0.054 A 
HETATM    9  C10 UNK     1       1.695   0.296  -2.688  1.00  0.00     0.040 A 
HETATM   10  C12 UNK     1       3.344   2.039  -2.388  1.00  0.00     0.069 A 
HETATM   11  C14 UNK     1       2.885   0.913  -3.073  1.00  0.00     0.039 A 
ENDROOT
BRANCH   3  12
HETATM   12  C3  UNK     1      -1.881  -0.402   0.322  1.00  0.00     0.008 A 
HETATM   13  C7  UNK     1      -2.158  -0.982   1.561  1.00  0.00     0.110 A 
HETATM   14  C11 UNK     1      -3.361  -1.658   1.762  1.00  0.00     0.102 A 
HETATM   15  C15 UNK     1      -4.289  -1.754   0.725  1.00  0.00     0.039 A 
HETATM   16  C13 UNK     1      -4.013  -1.175  -0.514  1.00  0.00     0.003 A 
HETATM   17  C8  UNK     1      -2.809  -0.499  -0.715  1.00  0.00     0.013 A 
BRANCH  13  18
HETATM   18  O2  UNK     1      -1.253  -0.890   2.578  1.00  0.00    -0.352 OA
HETATM   19  C16 UNK     1      -1.685  -0.240   3.770  1.00  0.00     0.210 C 
ENDBRANCH  13  18
BRANCH  14  20
HETATM   20  O4  UNK     1      -3.643  -2.227   2.967  1.00  0.00    -0.353 OA
HETATM   21  C17 UNK     1      -3.235  -3.581   3.155  1.00  0.00     0.210 C 
ENDBRANCH  14  20
ENDBRANCH   3  12
BRANCH  10  22
HETATM   22  O5  UNK     1       4.506   2.638  -2.768  1.00  0.00    -0.356 OA
HETATM   23  C18 UNK     1       5.202   2.062  -3.872  1.00  0.00     0.210 C 
ENDBRANCH  10  22
TORSDOF 4
