REMARK  2 active torsions:
REMARK  status: ('A' for Active; 'I' for Inactive)
REMARK    1  A    between atoms: C9_14  and  O2_4 
REMARK    2  A    between atoms: C3_8  and  C4_9 
ROOT
HETATM    1  O1  UNK     1       0.081   0.031   0.386  1.00  0.00    -0.309 OA
HETATM    2  O3  UNK     1      -2.605  -0.937  -2.520  1.00  0.00    -0.287 OA
HETATM    3  C1  UNK     1      -2.077  -0.905  -0.217  1.00  0.00     0.048 A 
HETATM    4  C2  UNK     1      -1.115  -0.548   0.726  1.00  0.00     0.093 A 
HETATM    5  C3  UNK     1       0.345   0.263  -0.956  1.00  0.00     0.091 A 
HETATM    6  C5  UNK     1      -1.805  -0.652  -1.640  1.00  0.00     0.187 A 
HETATM    7  C6  UNK     1      -0.503  -0.030  -1.954  1.00  0.00     0.093 A 
HETATM    8  C7  UNK     1      -1.350  -0.775   2.082  1.00  0.00     0.075 A 
HETATM    9  C8  UNK     1      -3.279  -1.492   0.187  1.00  0.00     0.021 A 
HETATM   10  C9  UNK     1      -2.549  -1.360   2.490  1.00  0.00     0.070 A 
HETATM   11  C10 UNK     1      -3.511  -1.718   1.544  1.00  0.00     0.038 A 
ENDROOT
BRANCH   5  12
HETATM   12  C4  UNK     1       1.656   0.895  -1.209  1.00  0.00     0.020 A 
HETATM   13  C11 UNK     1       1.829   2.283  -1.230  1.00  0.00     0.048 A 
HETATM   14 Cl1  UNK     1       0.507   3.365  -0.962  1.00  0.00    -0.083 Cl
HETATM   15  C13 UNK     1       3.089   2.831  -1.473  1.00  0.00     0.048 A 
HETATM   16  C15 UNK     1       4.182   1.993  -1.695  1.00  0.00     0.035 A 
HETATM   17  C14 UNK     1       4.016   0.608  -1.675  1.00  0.00     0.025 A 
HETATM   18 Cl2  UNK     1       5.737   2.668  -1.994  1.00  0.00    -0.084 Cl
HETATM   19  C12 UNK     1       2.756   0.061  -1.432  1.00  0.00     0.017 A 
ENDBRANCH   5  12
BRANCH  10  20
HETATM   20  O2  UNK     1      -2.780  -1.584   3.813  1.00  0.00    -0.356 OA
HETATM   21  C16 UNK     1      -4.026  -2.186   4.161  1.00  0.00     0.210 C 
ENDBRANCH  10  20
TORSDOF 2
