REMARK  1 active torsions:
REMARK  status: ('A' for Active; 'I' for Inactive)
REMARK       I    between atoms: C7_11  and  N1_4 
REMARK    1  A    between atoms: C7_11  and  C8_12 
ROOT
HETATM    1  O2  UNK     1       1.186  -0.115  -2.403  1.00  0.00    -0.274 OA
HETATM    2  O3  UNK     1      -0.895  -1.057  -2.422  1.00  0.00    -0.259 OA
HETATM    3  C8  UNK     1      -0.486   0.581  -0.760  1.00  0.00     0.108 A 
HETATM    4  C9  UNK     1       0.375   1.446  -0.211  1.00  0.00     0.037 A 
HETATM    5  C10 UNK     1      -0.109  -0.264  -1.915  1.00  0.00     0.304 A 
HETATM    6  C11 UNK     1       1.722   1.579  -0.744  1.00  0.00    -0.001 A 
HETATM    7  C12 UNK     1       2.097   0.794  -1.829  1.00  0.00     0.089 A 
HETATM    8  C13 UNK     1       2.653   2.468  -0.202  1.00  0.00     0.014 A 
HETATM    9  C14 UNK     1       3.371   0.873  -2.387  1.00  0.00     0.038 A 
HETATM   10  C15 UNK     1       3.936   2.559  -0.751  1.00  0.00     0.001 A 
HETATM   11  C16 UNK     1       4.293   1.763  -1.841  1.00  0.00     0.003 A 
ENDROOT
BRANCH   3  12
HETATM   12  C7  UNK     1      -1.829   0.520  -0.148  1.00  0.00     0.260 C 
HETATM   13  N1  UNK     1      -2.034  -0.387   0.895  1.00  0.00    -0.344 N 
HETATM   14  C1  UNK     1      -0.978  -1.203   1.542  1.00  0.00     0.083 C 
HETATM   15  C5  UNK     1      -3.367  -0.448   1.508  1.00  0.00     0.126 C 
HETATM   16  C2  UNK     1      -1.464  -2.635   1.821  1.00  0.00     0.025 C 
HETATM   17  C6  UNK     1      -0.453  -0.514   2.804  1.00  0.00     0.032 C 
HETATM   18  C3  UNK     1      -2.819  -2.681   2.517  1.00  0.00     0.004 C 
HETATM   19  C4  UNK     1      -3.843  -1.879   1.725  1.00  0.00     0.020 C 
HETATM   20  O1  UNK     1      -2.690   1.279  -0.597  1.00  0.00    -0.267 OA
ENDBRANCH   3  12
TORSDOF 1
