REMARK  2 active torsions:
REMARK  status: ('A' for Active; 'I' for Inactive)
REMARK    1  A    between atoms: C1_6  and  C4_9 
REMARK    2  A    between atoms: C3_8  and  C6_11 
ROOT
HETATM    1 Br1  UNK     1       2.621   0.803  -4.910  1.00  0.00    -0.048 Br
HETATM    2 Cl1  UNK     1       4.125   3.945  -0.625  1.00  0.00    -0.084 Cl
HETATM    3  O1  UNK     1       0.542  -0.142  -2.886  1.00  0.00    -0.273 OA
HETATM    4  O2  UNK     1      -1.203  -1.587  -2.701  1.00  0.00    -0.259 OA
HETATM    5  C1  UNK     1       0.099   0.631  -0.184  1.00  0.00     0.004 A 
HETATM    6  C2  UNK     1       1.185   1.232  -0.988  1.00  0.00     0.013 A 
HETATM    7  C3  UNK     1      -0.691  -0.306  -0.764  1.00  0.00     0.062 A 
HETATM    8  C5  UNK     1       1.370   0.828  -2.305  1.00  0.00     0.108 A 
HETATM    9  C7  UNK     1      -0.488  -0.737  -2.179  1.00  0.00     0.300 A 
HETATM   10  C8  UNK     1       2.056   2.207  -0.479  1.00  0.00     0.039 A 
HETATM   11  C9  UNK     1       2.377   1.359  -3.114  1.00  0.00     0.047 A 
HETATM   12  C12 UNK     1       3.070   2.749  -1.276  1.00  0.00     0.036 A 
HETATM   13  C15 UNK     1       3.230   2.325  -2.593  1.00  0.00     0.046 A 
ENDROOT
BRANCH   7  14
HETATM   14  C6  UNK     1      -1.782  -0.936  -0.017  1.00  0.00    -0.019 A 
HETATM   15  C13 UNK     1      -3.049  -0.366  -0.039  1.00  0.00     0.014 A 
HETATM   16  C18 UNK     1      -4.087  -0.964   0.674  1.00  0.00     0.020 A 
HETATM   17  C21 UNK     1      -3.852  -2.130   1.403  1.00  0.00     0.011 A 
HETATM   18 Br2  UNK     1      -5.258  -2.941   2.371  1.00  0.00    -0.051 Br
HETATM   19  C19 UNK     1      -2.577  -2.697   1.420  1.00  0.00     0.020 A 
HETATM   20  C14 UNK     1      -1.538  -2.097   0.707  1.00  0.00     0.014 A 
ENDBRANCH   7  14
BRANCH   5  21
HETATM   21  C4  UNK     1      -0.170   0.996   1.212  1.00  0.00    -0.024 A 
HETATM   22  C10 UNK     1      -1.050   2.034   1.490  1.00  0.00     0.012 A 
HETATM   23  C16 UNK     1      -1.305   2.381   2.817  1.00  0.00     0.001 A 
HETATM   24  C20 UNK     1      -0.678   1.689   3.852  1.00  0.00     0.000 A 
HETATM   25  C17 UNK     1       0.204   0.648   3.561  1.00  0.00     0.001 A 
HETATM   26  C11 UNK     1       0.460   0.300   2.235  1.00  0.00     0.012 A 
ENDBRANCH   5  21
TORSDOF 2
