REMARK  5 active torsions:
REMARK  status: ('A' for Active; 'I' for Inactive)
REMARK    1  A    between atoms: C11_18  and  O1_2 
REMARK    2  A    between atoms: C14_21  and  O1_2 
REMARK    3  A    between atoms: C10_17  and  N1_7 
REMARK       I    between atoms: C12_19  and  N1_7 
REMARK    4  A    between atoms: C11_18  and  C9_16 
REMARK    5  A    between atoms: C12_19  and  C13_20 
ROOT
HETATM    1  S1  UNK     1       2.125   1.579   0.731  1.00  0.00    -0.075 SA
HETATM    2  C1  UNK     1       5.331   1.232  -2.590  1.00  0.00     0.000 C 
HETATM    3  C2  UNK     1       4.278   1.775  -3.564  1.00  0.00     0.005 C 
HETATM    4  C3  UNK     1       6.064   2.291  -1.760  1.00  0.00     0.000 C 
HETATM    5  C4  UNK     1       3.229   2.717  -2.973  1.00  0.00     0.041 C 
HETATM    6  C5  UNK     1       5.618   2.375  -0.292  1.00  0.00     0.005 C 
HETATM    7  C6  UNK     1       2.588   2.178  -1.732  1.00  0.00    -0.026 A 
HETATM    8  C7  UNK     1       4.310   3.129  -0.040  1.00  0.00     0.046 C 
HETATM    9  C8  UNK     1       3.088   2.360  -0.452  1.00  0.00    -0.008 A 
HETATM   10  C9  UNK     1       1.393   1.389  -1.716  1.00  0.00     0.080 A 
HETATM   11  C10 UNK     1       1.033   1.001  -0.446  1.00  0.00     0.094 A 
ENDROOT
BRANCH  11  12
HETATM   12  N1  UNK     1      -0.019   0.251   0.007  1.00  0.00    -0.316 N 
HETATM   13  C12 UNK     1      -0.293  -0.087   1.339  1.00  0.00     0.262 C 
HETATM   14  O3  UNK     1       0.336   0.212   2.346  1.00  0.00    -0.267 OA
HETATM   15  H13 UNK     1      -0.658  -0.066  -0.717  1.00  0.00     0.169 HD
BRANCH  13  16
HETATM   16  C13 UNK     1      -1.513  -0.911   1.472  1.00  0.00     0.108 A 
HETATM   17  C15 UNK     1      -2.197  -0.775   2.614  1.00  0.00     0.037 A 
HETATM   18  C16 UNK     1      -3.411  -1.545   2.838  1.00  0.00    -0.001 A 
HETATM   19  C18 UNK     1      -3.845  -2.421   1.848  1.00  0.00     0.089 A 
HETATM   20  C20 UNK     1      -4.157  -1.434   4.014  1.00  0.00     0.014 A 
HETATM   21  O4  UNK     1      -3.120  -2.560   0.648  1.00  0.00    -0.274 OA
HETATM   22  C21 UNK     1      -4.998  -3.188   2.000  1.00  0.00     0.038 A 
HETATM   23  C17 UNK     1      -1.956  -1.837   0.405  1.00  0.00     0.304 A 
HETATM   24  O5  UNK     1      -1.331  -1.965  -0.642  1.00  0.00    -0.259 OA
HETATM   25  C23 UNK     1      -5.736  -3.071   3.176  1.00  0.00     0.003 A 
HETATM   26  C22 UNK     1      -5.317  -2.197   4.181  1.00  0.00     0.001 A 
ENDBRANCH  13  16
ENDBRANCH  11  12
BRANCH  10  27
HETATM   27  C11 UNK     1       0.625   1.008  -2.876  1.00  0.00     0.296 C 
HETATM   28  O2  UNK     1       1.114   0.833  -4.001  1.00  0.00    -0.259 OA
BRANCH  27  29
HETATM   29  O1  UNK     1      -0.721   0.852  -2.627  1.00  0.00    -0.318 OA
BRANCH  29  30
HETATM   30  C14 UNK     1      -1.544   0.474  -3.737  1.00  0.00     0.174 C 
HETATM   31  C19 UNK     1      -2.978   0.353  -3.269  1.00  0.00     0.034 C 
ENDBRANCH  29  30
ENDBRANCH  27  29
ENDBRANCH  10  27
TORSDOF 5
