REMARK  4 active torsions:
REMARK  status: ('A' for Active; 'I' for Inactive)
REMARK    1  A    between atoms: C7_16  and  N1_7 
REMARK    2  A    between atoms: C21_30  and  N3_9 
REMARK    3  A    between atoms: C1_10  and  C3_12 
REMARK    4  A    between atoms: C11_20  and  C14_23 
ROOT
HETATM    1  O1  UNK     1       0.840   2.642  -0.741  1.00  0.00    -0.291 OA
HETATM    2  O3  UNK     1       3.040  -0.588  -2.236  1.00  0.00    -0.274 OA
HETATM    3  O4  UNK     1       3.399  -1.331  -0.111  1.00  0.00    -0.259 OA
HETATM    4  N2  UNK     1       1.089   2.656   4.069  1.00  0.00    -0.191 NA
HETATM    5  C1  UNK     1       1.827   0.724   1.153  1.00  0.00     0.133 C 
HETATM    6  C2  UNK     1       2.062   0.622  -0.342  1.00  0.00     0.068 A 
HETATM    7  C4  UNK     1       1.564   1.547  -1.177  1.00  0.00     0.104 A 
HETATM    8  C5  UNK     1       1.209   2.061   1.549  1.00  0.00     0.088 C 
HETATM    9  C6  UNK     1       1.758   1.444  -2.621  1.00  0.00     0.033 A 
HETATM   10  C7  UNK     1       0.749   2.930   0.620  1.00  0.00     0.160 C 
HETATM   11  C8  UNK     1       2.882  -0.506  -0.856  1.00  0.00     0.298 A 
HETATM   12  C10 UNK     1       2.491   0.368  -3.112  1.00  0.00     0.092 A 
HETATM   13  C13 UNK     1       1.243   2.366  -3.540  1.00  0.00     0.017 A 
HETATM   14  C15 UNK     1       2.721   0.188  -4.476  1.00  0.00     0.038 A 
HETATM   15  C16 UNK     1       1.143   2.390   2.941  1.00  0.00     0.100 C 
HETATM   16  C17 UNK     1       1.465   2.199  -4.911  1.00  0.00     0.001 A 
HETATM   17  C18 UNK     1       2.203   1.112  -5.378  1.00  0.00     0.003 A 
ENDROOT
BRANCH   5  18
HETATM   18  C3  UNK     1       1.029  -0.427   1.676  1.00  0.00     0.068 A 
HETATM   19  O2  UNK     1      -0.223  -0.529   1.188  1.00  0.00    -0.313 OA
HETATM   20  C11 UNK     1      -0.761  -1.624   1.786  1.00  0.00     0.086 A 
HETATM   21  C12 UNK     1       0.147  -2.203   2.642  1.00  0.00     0.040 A 
HETATM   22  C9  UNK     1       1.318  -1.413   2.565  1.00  0.00     0.036 A 
BRANCH  20  23
HETATM   23  C14 UNK     1      -2.113  -1.930   1.409  1.00  0.00     0.000 A 
HETATM   24  C19 UNK     1      -2.786  -1.125   0.485  1.00  0.00     0.050 A 
HETATM   25  C21 UNK     1      -4.099  -1.422   0.120  1.00  0.00     0.103 A 
HETATM   26  C23 UNK     1      -4.744  -2.527   0.676  1.00  0.00     0.036 A 
HETATM   27  C22 UNK     1      -4.077  -3.333   1.598  1.00  0.00     0.003 A 
HETATM   28  C20 UNK     1      -2.765  -3.035   1.964  1.00  0.00     0.014 A 
BRANCH  25  29
HETATM   29  N3  UNK     1      -4.778  -0.603  -0.821  1.00  0.00    -0.116 N 
HETATM   30  O5  UNK     1      -5.957  -0.891  -1.138  1.00  0.00    -0.532 OA
HETATM   31  O6  UNK     1      -4.179   0.386  -1.309  1.00  0.00    -0.532 OA
ENDBRANCH  25  29
ENDBRANCH  20  23
ENDBRANCH   5  18
BRANCH  10  32
HETATM   32  N1  UNK     1       0.169   4.139   0.888  1.00  0.00    -0.379 N 
HETATM   33  H7  UNK     1      -0.141   4.714   0.115  1.00  0.00     0.158 HD
HETATM   34  H8  UNK     1       0.047   4.457   1.841  1.00  0.00     0.158 HD
ENDBRANCH  10  32
TORSDOF 4
