REMARK  10 active torsions:
REMARK  status: ('A' for Active; 'I' for Inactive)
REMARK    1  A    between atoms: C16_24  and  O1_2 
REMARK    2  A    between atoms: C20_28  and  O1_2 
REMARK    3  A    between atoms: C25_33  and  O5_6 
REMARK    4  A    between atoms: C30_38  and  O5_6 
REMARK    5  A    between atoms: C14_22  and  N1_8 
REMARK       I    between atoms: C17_25  and  N1_8 
REMARK    6  A    between atoms: C1_9  and  C2_10 
REMARK    7  A    between atoms: C8_16  and  C9_17 
REMARK    8  A    between atoms: C12_20  and  C16_24 
REMARK    9  A    between atoms: C17_25  and  C18_26 
REMARK   10  A    between atoms: C20_28  and  C23_31 
ROOT
HETATM    1  S1  UNK     1       0.933  -0.170   2.760  1.00  0.00    -0.075 SA
HETATM    2  C9  UNK     1      -1.441  -0.952   2.167  1.00  0.00     0.006 A 
HETATM    3  C12 UNK     1      -0.873  -0.462   0.956  1.00  0.00     0.085 A 
HETATM    4  C13 UNK     1      -0.567  -0.853   3.226  1.00  0.00    -0.007 A 
HETATM    5  C14 UNK     1       0.414  -0.006   1.136  1.00  0.00     0.094 A 
HETATM    6  C15 UNK     1      -0.756  -1.243   4.644  1.00  0.00     0.057 C 
ENDROOT
BRANCH   5   7
HETATM    7  N1  UNK     1       1.332   0.548   0.239  1.00  0.00    -0.316 N 
HETATM    8  C17 UNK     1       2.618   0.975   0.543  1.00  0.00     0.262 C 
HETATM    9  O4  UNK     1       3.196   0.955   1.628  1.00  0.00    -0.267 OA
HETATM   10  H17 UNK     1       0.999   0.638  -0.718  1.00  0.00     0.169 HD
BRANCH   8  11
HETATM   11  C18 UNK     1       3.311   1.506  -0.637  1.00  0.00     0.108 A 
HETATM   12  C21 UNK     1       3.710   2.782  -0.564  1.00  0.00     0.037 A 
HETATM   13  C19 UNK     1       4.405   3.398  -1.683  1.00  0.00     0.002 A 
HETATM   14  C26 UNK     1       4.841   4.725  -1.650  1.00  0.00     0.014 A 
HETATM   15  C22 UNK     1       4.646   2.640  -2.825  1.00  0.00     0.123 A 
HETATM   16  C28 UNK     1       5.505   5.270  -2.752  1.00  0.00     0.004 A 
HETATM   17  C27 UNK     1       5.737   4.495  -3.890  1.00  0.00     0.040 A 
HETATM   18  C25 UNK     1       5.307   3.171  -3.931  1.00  0.00     0.103 A 
HETATM   19  O3  UNK     1       4.223   1.299  -2.896  1.00  0.00    -0.271 OA
HETATM   20  C24 UNK     1       3.557   0.682  -1.841  1.00  0.00     0.304 A 
HETATM   21  O6  UNK     1       3.193  -0.487  -1.912  1.00  0.00    -0.259 OA
BRANCH  18  22
HETATM   22  O5  UNK     1       5.535   2.419  -5.042  1.00  0.00    -0.349 OA
BRANCH  22  23
HETATM   23  C30 UNK     1       5.585   3.105  -6.292  1.00  0.00     0.171 C 
HETATM   24  C31 UNK     1       5.123   2.168  -7.388  1.00  0.00     0.034 C 
ENDBRANCH  22  23
ENDBRANCH  18  22
ENDBRANCH   8  11
ENDBRANCH   5   7
BRANCH   3  25
HETATM   25  C16 UNK     1      -1.531  -0.427  -0.328  1.00  0.00     0.297 C 
HETATM   26  O2  UNK     1      -1.004   0.008  -1.362  1.00  0.00    -0.259 OA
BRANCH  25  27
HETATM   27  O1  UNK     1      -2.815  -0.925  -0.311  1.00  0.00    -0.317 OA
BRANCH  27  28
HETATM   28  C20 UNK     1      -3.527  -0.920  -1.553  1.00  0.00     0.178 C 
BRANCH  28  29
HETATM   29  C23 UNK     1      -4.913  -1.504  -1.329  1.00  0.00     0.022 C 
HETATM   30  C29 UNK     1      -5.724  -1.545  -2.611  1.00  0.00     0.007 C 
ENDBRANCH  28  29
ENDBRANCH  27  28
ENDBRANCH  25  27
ENDBRANCH   3  25
BRANCH   2  31
HETATM   31  C8  UNK     1      -2.763  -1.501   2.346  1.00  0.00    -0.024 A 
HETATM   32  C10 UNK     1      -2.978  -2.870   2.186  1.00  0.00     0.013 A 
HETATM   33  C6  UNK     1      -4.256  -3.400   2.361  1.00  0.00     0.009 A 
HETATM   34  C2  UNK     1      -5.319  -2.562   2.696  1.00  0.00    -0.051 A 
HETATM   35  C7  UNK     1      -5.104  -1.193   2.857  1.00  0.00     0.009 A 
HETATM   36  C11 UNK     1      -3.826  -0.663   2.682  1.00  0.00     0.013 A 
BRANCH  34  37
HETATM   37  C1  UNK     1      -6.686  -3.129   2.882  1.00  0.00    -0.024 C 
HETATM   38  C3  UNK     1      -6.707  -4.191   4.026  1.00  0.00     0.019 C 
HETATM   39  C4  UNK     1      -7.190  -3.828   1.582  1.00  0.00     0.019 C 
HETATM   40  C5  UNK     1      -7.797  -2.093   3.256  1.00  0.00     0.019 C 
ENDBRANCH  34  37
ENDBRANCH   2  31
TORSDOF 10
