REMARK  4 active torsions:
REMARK  status: ('A' for Active; 'I' for Inactive)
REMARK    1  A    between atoms: C1_8  and  N1_6 
REMARK    2  A    between atoms: C3_10  and  N1_6 
REMARK    3  A    between atoms: C5_12  and  N2_7 
REMARK    4  A    between atoms: C3_10  and  C6_13 
ROOT
HETATM    1  O1  UNK     1       2.965   1.305  -2.202  1.00  0.00    -0.273 OA
HETATM    2  O2  UNK     1       1.896   0.994  -4.194  1.00  0.00    -0.257 OA
HETATM    3  C1  UNK     1       0.472   0.812  -0.875  1.00  0.00     0.081 A 
HETATM    4  C2  UNK     1       1.705   1.122  -0.106  1.00  0.00     0.027 A 
HETATM    5  C4  UNK     1       2.901   1.354  -0.795  1.00  0.00     0.092 A 
HETATM    6  C5  UNK     1       0.610   0.786  -2.211  1.00  0.00     0.205 A 
HETATM    7  C7  UNK     1       1.760   1.202   1.296  1.00  0.00     0.017 A 
HETATM    8  C8  UNK     1       1.846   1.030  -2.970  1.00  0.00     0.324 A 
HETATM    9  C9  UNK     1       4.102   1.650  -0.145  1.00  0.00     0.038 A 
HETATM   10  C10 UNK     1       2.957   1.499   1.961  1.00  0.00     0.001 A 
HETATM   11  C13 UNK     1       4.127   1.722   1.242  1.00  0.00     0.003 A 
ENDROOT
BRANCH   3  12
HETATM   12  N1  UNK     1      -0.684   0.581  -0.175  1.00  0.00    -0.383 N 
HETATM   13  H3  UNK     1      -1.561   0.544  -0.680  1.00  0.00     0.160 HD
BRANCH  12  14
HETATM   14  C3  UNK     1      -0.702   0.214   1.213  1.00  0.00     0.158 C 
BRANCH  14  15
HETATM   15  C6  UNK     1      -1.861  -0.683   1.542  1.00  0.00    -0.041 A 
HETATM   16  C11 UNK     1      -3.070  -0.126   1.942  1.00  0.00     0.010 A 
HETATM   17  C14 UNK     1      -4.145  -0.959   2.249  1.00  0.00     0.024 A 
HETATM   18  C16 UNK     1      -4.004  -2.344   2.154  1.00  0.00     0.034 A 
HETATM   19  C15 UNK     1      -2.788  -2.895   1.752  1.00  0.00     0.024 A 
HETATM   20 Cl1  UNK     1      -5.331  -3.372   2.534  1.00  0.00    -0.084 Cl
HETATM   21  C12 UNK     1      -1.712  -2.062   1.445  1.00  0.00     0.010 A 
ENDBRANCH  14  15
ENDBRANCH  12  14
ENDBRANCH   3  12
BRANCH   6  22
HETATM   22  N2  UNK     1      -0.554   0.493  -2.986  1.00  0.00    -0.107 N 
HETATM   23  O3  UNK     1      -1.603   0.284  -2.365  1.00  0.00    -0.531 OA
HETATM   24  O4  UNK     1      -0.420   0.470  -4.214  1.00  0.00    -0.531 OA
ENDBRANCH   6  22
TORSDOF 4
