REMARK  4 active torsions:
REMARK  status: ('A' for Active; 'I' for Inactive)
REMARK    1  A    between atoms: C5_10  and  O2_2 
REMARK    2  A    between atoms: C9_14  and  O3_3 
REMARK    3  A    between atoms: C15_20  and  O5_5 
REMARK    4  A    between atoms: C3_8  and  C4_9 
ROOT
HETATM    1  O1  UNK     1       0.343  -1.254   0.055  1.00  0.00    -0.306 OA
HETATM    2  O4  UNK     1       1.095  -2.637   3.814  1.00  0.00    -0.284 OA
HETATM    3  C1  UNK     1       0.883  -3.117   1.515  1.00  0.00     0.053 A 
HETATM    4  C2  UNK     1       0.615  -2.582   0.256  1.00  0.00     0.090 A 
HETATM    5  C3  UNK     1       0.345  -0.406   1.151  1.00  0.00     0.123 A 
HETATM    6  C5  UNK     1       0.579  -0.795   2.418  1.00  0.00     0.152 A 
HETATM    7  C6  UNK     1       0.874  -2.224   2.683  1.00  0.00     0.220 A 
HETATM    8  C7  UNK     1       1.153  -4.480   1.659  1.00  0.00     0.055 A 
HETATM    9  C8  UNK     1       0.616  -3.409  -0.868  1.00  0.00     0.041 A 
HETATM   10  C9  UNK     1       1.154  -5.305   0.533  1.00  0.00     0.069 A 
HETATM   11  C10 UNK     1       0.886  -4.771  -0.727  1.00  0.00     0.039 A 
ENDROOT
BRANCH   5  12
HETATM   12  C4  UNK     1       0.038   0.992   0.797  1.00  0.00     0.001 A 
HETATM   13  C11 UNK     1       1.070   1.875   0.480  1.00  0.00     0.017 A 
HETATM   14  C13 UNK     1       0.778   3.198   0.146  1.00  0.00     0.037 A 
HETATM   15  C15 UNK     1      -0.546   3.637   0.128  1.00  0.00     0.068 A 
HETATM   16  C14 UNK     1      -1.578   2.754   0.445  1.00  0.00     0.037 A 
HETATM   17  C12 UNK     1      -1.286   1.431   0.779  1.00  0.00     0.017 A 
BRANCH  15  18
HETATM   18  O5  UNK     1      -0.830   4.927  -0.198  1.00  0.00    -0.356 OA
HETATM   19  C17 UNK     1      -2.204   5.310  -0.197  1.00  0.00     0.210 C 
ENDBRANCH  15  18
ENDBRANCH   5  12
BRANCH   6  20
HETATM   20  O2  UNK     1       0.542   0.069   3.490  1.00  0.00    -0.355 OA
HETATM   21  H8  UNK     1       0.337   0.967   3.183  1.00  0.00     0.218 HD
ENDBRANCH   6  20
BRANCH  10  22
HETATM   22  O3  UNK     1       1.416  -6.634   0.665  1.00  0.00    -0.356 OA
HETATM   23  C16 UNK     1       1.401  -7.420  -0.526  1.00  0.00     0.210 C 
ENDBRANCH  10  22
TORSDOF 4
