REMARK  5 active torsions:
REMARK  status: ('A' for Active; 'I' for Inactive)
REMARK    1  A    between atoms: C1_11  and  N1_7 
REMARK    2  A    between atoms: C4_14  and  N2_8 
REMARK       I    between atoms: C9_19  and  N2_8 
REMARK    3  A    between atoms: C13_23  and  N4_10 
REMARK    4  A    between atoms: C1_11  and  C3_13 
REMARK    5  A    between atoms: C6_16  and  C9_19 
ROOT
HETATM    1  O2  UNK     1       1.760  -0.448   1.067  1.00  0.00    -0.267 OA
HETATM    2  N2  UNK     1      -0.376   0.335   0.459  1.00  0.00    -0.320 N 
HETATM    3  C9  UNK     1       0.992   0.145   0.312  1.00  0.00     0.262 C 
HETATM    4  H5  UNK     1      -0.881   0.869  -0.244  1.00  0.00     0.169 HD
ENDROOT
BRANCH   3   5
HETATM    5  C6  UNK     1       1.506   0.753  -0.920  1.00  0.00     0.108 A 
HETATM    6  C14 UNK     1       0.674   0.888  -2.137  1.00  0.00     0.304 A 
HETATM    7  O1  UNK     1       1.275   1.483  -3.243  1.00  0.00    -0.274 OA
HETATM    8  O3  UNK     1      -0.488   0.498  -2.174  1.00  0.00    -0.259 OA
HETATM    9  C7  UNK     1       2.609   1.934  -3.211  1.00  0.00     0.089 A 
HETATM   10  C12 UNK     1       3.123   2.516  -4.368  1.00  0.00     0.041 A 
HETATM   11  C2  UNK     1       3.374   1.797  -2.057  1.00  0.00     0.001 A 
HETATM   12  C17 UNK     1       4.439   2.972  -4.366  1.00  0.00     0.039 A 
HETATM   13  C13 UNK     1       5.223   2.843  -3.218  1.00  0.00     0.103 A 
HETATM   14  C10 UNK     1       4.693   2.257  -2.064  1.00  0.00     0.050 A 
HETATM   15  C8  UNK     1       2.774   1.180  -0.884  1.00  0.00     0.037 A 
BRANCH  13  16
HETATM   16  N4  UNK     1       6.564   3.310  -3.221  1.00  0.00    -0.116 N 
HETATM   17  O4  UNK     1       7.023   3.834  -4.265  1.00  0.00    -0.532 OA
HETATM   18  O5  UNK     1       7.254   3.186  -2.180  1.00  0.00    -0.532 OA
ENDBRANCH  13  16
ENDBRANCH   3   5
BRANCH   2  19
HETATM   19  C4  UNK     1      -1.201  -0.112   1.519  1.00  0.00     0.071 A 
HETATM   20  C11 UNK     1      -0.822  -0.834   2.632  1.00  0.00     0.169 A 
HETATM   21  N3  UNK     1      -1.866  -1.085   3.427  1.00  0.00    -0.183 NA
HETATM   22  N1  UNK     1      -2.889  -0.503   2.779  1.00  0.00    -0.275 N 
HETATM   23  C5  UNK     1      -2.529   0.102   1.611  1.00  0.00     0.143 A 
BRANCH  22  24
HETATM   24  C1  UNK     1      -4.218  -0.560   3.339  1.00  0.00     0.189 C 
BRANCH  24  25
HETATM   25  C3  UNK     1      -4.963  -1.777   2.860  1.00  0.00    -0.038 A 
HETATM   26  C15 UNK     1      -4.879  -2.960   3.582  1.00  0.00     0.012 A 
HETATM   27  C18 UNK     1      -5.570  -4.087   3.138  1.00  0.00     0.043 A 
HETATM   28  C20 UNK     1      -6.339  -4.020   1.976  1.00  0.00     0.116 A 
HETATM   29  C19 UNK     1      -6.417  -2.827   1.258  1.00  0.00     0.043 A 
HETATM   30  F1  UNK     1      -7.003  -5.103   1.550  1.00  0.00    -0.206 F 
HETATM   31  C16 UNK     1      -5.726  -1.700   1.702  1.00  0.00     0.012 A 
ENDBRANCH  24  25
ENDBRANCH  22  24
ENDBRANCH   2  19
TORSDOF 5
