REMARK  7 active torsions:
REMARK  status: ('A' for Active; 'I' for Inactive)
REMARK    1  A    between atoms: C10_17  and  O1_2 
REMARK    2  A    between atoms: C2_9  and  O1_2 
REMARK    3  A    between atoms: C15_22  and  N1_7 
REMARK    4  A    between atoms: C1_8  and  C5_12 
REMARK    5  A    between atoms: C10_17  and  C3_10 
REMARK    6  A    between atoms: C11_18  and  C5_12 
REMARK    7  A    between atoms: C14_21  and  C7_14 
ROOT
HETATM    1  C1  UNK     1       2.577   1.807  -1.205  1.00  0.00     0.048 A 
HETATM    2  C2  UNK     1       2.294   2.073   0.121  1.00  0.00     0.093 A 
HETATM    3  C4  UNK     1       3.508   2.541  -1.915  1.00  0.00     0.018 A 
HETATM    4  C6  UNK     1       2.968   3.113   0.762  1.00  0.00     0.038 A 
HETATM    5  C8  UNK     1       4.182   3.581  -1.274  1.00  0.00     0.001 A 
HETATM    6  C9  UNK     1       3.912   3.867   0.064  1.00  0.00     0.003 A 
ENDROOT
BRANCH   2   7
HETATM    7  O1  UNK     1       1.375   1.349   0.820  1.00  0.00    -0.274 OA
BRANCH   7   8
HETATM    8  C10 UNK     1       0.076   1.857   0.755  1.00  0.00     0.298 C 
HETATM    9  O3  UNK     1      -0.268   2.863   0.154  1.00  0.00    -0.259 OA
BRANCH   8  10
HETATM   10  C3  UNK     1      -0.865   1.016   1.538  1.00  0.00     0.040 A 
HETATM   11  C12 UNK     1      -1.960   1.614   2.128  1.00  0.00     0.020 A 
HETATM   12  C16 UNK     1      -2.844   0.826   2.865  1.00  0.00     0.037 A 
HETATM   13  C15 UNK     1      -2.613  -0.544   2.997  1.00  0.00     0.102 A 
HETATM   14  C17 UNK     1      -1.498  -1.124   2.391  1.00  0.00     0.037 A 
HETATM   15  C13 UNK     1      -0.615  -0.336   1.654  1.00  0.00     0.020 A 
BRANCH  13  16
HETATM   16  N1  UNK     1      -3.511  -1.346   3.748  1.00  0.00    -0.116 N 
HETATM   17  O4  UNK     1      -4.507  -0.803   4.286  1.00  0.00    -0.532 OA
HETATM   18  O5  UNK     1      -3.285  -2.576   3.854  1.00  0.00    -0.532 OA
ENDBRANCH  13  16
ENDBRANCH   8  10
ENDBRANCH   7   8
ENDBRANCH   2   7
BRANCH   1  19
HETATM   19  C5  UNK     1       1.872   0.706  -1.905  1.00  0.00     0.184 C 
HETATM   20  O2  UNK     1       1.517  -0.285  -1.277  1.00  0.00    -0.287 OA
BRANCH  19  21
HETATM   21  C11 UNK     1       1.653   0.848  -3.372  1.00  0.00     0.056 C 
HETATM   22  C14 UNK     1       0.594   0.253  -3.965  1.00  0.00     0.015 C 
BRANCH  22  23
HETATM   23  C7  UNK     1      -0.405  -0.553  -3.282  1.00  0.00    -0.036 A 
HETATM   24  C18 UNK     1      -0.595  -1.886  -3.647  1.00  0.00     0.013 A 
HETATM   25  C20 UNK     1      -1.553  -2.659  -2.992  1.00  0.00     0.024 A 
HETATM   26  C22 UNK     1      -2.323  -2.100  -1.972  1.00  0.00     0.034 A 
HETATM   27  C21 UNK     1      -2.133  -0.767  -1.606  1.00  0.00     0.024 A 
HETATM   28 Cl1  UNK     1      -3.505  -3.054  -1.164  1.00  0.00    -0.084 Cl
HETATM   29  C19 UNK     1      -1.175   0.006  -2.261  1.00  0.00     0.013 A 
ENDBRANCH  22  23
ENDBRANCH  19  21
ENDBRANCH   1  19
TORSDOF 7
