REMARK  4 active torsions:
REMARK  status: ('A' for Active; 'I' for Inactive)
REMARK    1  A    between atoms: C3_9  and  O1_1 
REMARK    2  A    between atoms: C8_14  and  O1_1 
REMARK       I    between atoms: C10_16  and  N1_5 
REMARK    3  A    between atoms: C12_18  and  N1_5 
REMARK    4  A    between atoms: C10_16  and  C8_14 
ROOT
HETATM    1  O1  UNK     1       0.203   0.968   0.980  1.00  0.00    -0.342 OA
ENDROOT
BRANCH   1   2
HETATM    2  C3  UNK     1       1.334   1.180   0.252  1.00  0.00     0.072 A 
HETATM    3  C4  UNK     1       1.245   1.450  -1.112  1.00  0.00     0.075 A 
HETATM    4  C2  UNK     1       2.417   1.663  -1.835  1.00  0.00     0.092 A 
HETATM    5  C1  UNK     1       3.670   1.614  -1.231  1.00  0.00    -0.002 A 
HETATM    6  O2  UNK     1       2.295   1.934  -3.213  1.00  0.00    -0.275 OA
HETATM    7  C5  UNK     1       3.750   1.343   0.137  1.00  0.00     0.017 A 
HETATM    8  C7  UNK     1       4.851   1.846  -2.046  1.00  0.00     0.020 A 
HETATM    9  C6  UNK     1       2.583   1.127   0.875  1.00  0.00     0.038 A 
HETATM   10  C9  UNK     1       4.727   2.102  -3.350  1.00  0.00     0.083 A 
HETATM   11  C11 UNK     1       3.411   2.160  -4.013  1.00  0.00     0.288 A 
HETATM   12  O4  UNK     1       3.313   2.397  -5.212  1.00  0.00    -0.260 OA
ENDBRANCH   1   2
BRANCH   1  13
HETATM   13  C8  UNK     1      -0.910   0.393   0.297  1.00  0.00     0.278 C 
BRANCH  13  14
HETATM   14  C10 UNK     1      -1.728  -0.409   1.285  1.00  0.00     0.247 C 
HETATM   15  O3  UNK     1      -1.389  -0.479   2.463  1.00  0.00    -0.271 OA
HETATM   16  N1  UNK     1      -2.833  -0.993   0.679  1.00  0.00    -0.310 N 
HETATM   17  H8  UNK     1      -2.974  -0.836  -0.316  1.00  0.00     0.170 HD
BRANCH  16  18
HETATM   18  C12 UNK     1      -3.822  -1.802   1.287  1.00  0.00     0.129 A 
HETATM   19  N2  UNK     1      -4.817  -2.270   0.513  1.00  0.00    -0.243 NA
HETATM   20  C16 UNK     1      -5.737  -3.038   1.138  1.00  0.00     0.119 A 
HETATM   21  C15 UNK     1      -5.700  -3.350   2.488  1.00  0.00     0.019 A 
HETATM   22  C14 UNK     1      -4.650  -2.841   3.244  1.00  0.00     0.005 A 
HETATM   23  C13 UNK     1      -3.683  -2.047   2.637  1.00  0.00     0.050 A 
ENDBRANCH  16  18
ENDBRANCH  13  14
ENDBRANCH   1  13
TORSDOF 4
