REMARK  5 active torsions:
REMARK  status: ('A' for Active; 'I' for Inactive)
REMARK    1  A    between atoms: C9_15  and  O2_2 
REMARK    2  A    between atoms: C10_16  and  O3_3 
REMARK    3  A    between atoms: C13_19  and  O5_5 
REMARK    4  A    between atoms: C14_20  and  O6_6 
REMARK    5  A    between atoms: C2_8  and  C4_10 
ROOT
HETATM    1  O1  UNK     1       1.266   1.987   0.968  1.00  0.00    -0.321 OA
HETATM    2  O4  UNK     1      -0.911  -0.199  -1.703  1.00  0.00    -0.286 OA
HETATM    3  C1  UNK     1       0.993   1.122  -1.283  1.00  0.00     0.052 A 
HETATM    4  C2  UNK     1      -0.666   0.581   0.533  1.00  0.00     0.048 A 
HETATM    5  C3  UNK     1       1.689   1.864  -0.330  1.00  0.00     0.092 A 
HETATM    6  C5  UNK     1      -0.254   0.439  -0.890  1.00  0.00     0.198 A 
HETATM    7  C6  UNK     1       1.471   1.033  -2.593  1.00  0.00     0.058 A 
HETATM    8  C7  UNK     1       2.869   2.522  -0.681  1.00  0.00     0.077 A 
HETATM    9  C8  UNK     1       0.115   1.328   1.328  1.00  0.00     0.159 A 
HETATM   10  C9  UNK     1       2.652   1.691  -2.942  1.00  0.00     0.102 A 
HETATM   11  C10 UNK     1       3.349   2.434  -1.988  1.00  0.00     0.104 A 
ENDROOT
BRANCH   4  12
HETATM   12  C4  UNK     1      -1.868  -0.082   1.066  1.00  0.00    -0.017 A 
HETATM   13  C11 UNK     1      -1.782  -1.373   1.590  1.00  0.00     0.052 A 
HETATM   14  C13 UNK     1      -2.921  -2.001   2.095  1.00  0.00     0.102 A 
HETATM   15  C14 UNK     1      -4.148  -1.339   2.076  1.00  0.00     0.101 A 
HETATM   16  C15 UNK     1      -4.237  -0.049   1.553  1.00  0.00     0.040 A 
HETATM   17  C12 UNK     1      -3.098   0.579   1.049  1.00  0.00     0.015 A 
BRANCH  14  18
HETATM   18  O5  UNK     1      -2.821  -3.261   2.603  1.00  0.00    -0.353 OA
HETATM   19  C18 UNK     1      -2.531  -3.378   3.995  1.00  0.00     0.210 C 
ENDBRANCH  14  18
BRANCH  15  20
HETATM   20  O6  UNK     1      -5.267  -1.941   2.567  1.00  0.00    -0.353 OA
HETATM   21  C19 UNK     1      -6.043  -2.711   1.650  1.00  0.00     0.210 C 
ENDBRANCH  15  20
ENDBRANCH   4  12
BRANCH  10  22
HETATM   22  O2  UNK     1       3.114   1.601  -4.220  1.00  0.00    -0.353 OA
HETATM   23  C16 UNK     1       4.003   0.526  -4.513  1.00  0.00     0.210 C 
ENDBRANCH  10  22
BRANCH  11  24
HETATM   24  O3  UNK     1       4.502   3.078  -2.322  1.00  0.00    -0.353 OA
HETATM   25  C17 UNK     1       4.382   4.418  -2.797  1.00  0.00     0.210 C 
ENDBRANCH  11  24
TORSDOF 5
