REMARK  2 active torsions:
REMARK  status: ('A' for Active; 'I' for Inactive)
REMARK    1  A    between atoms: N1_6  and  N3_8 
REMARK       I    between atoms: C12_20  and  N3_8 
REMARK    2  A    between atoms: C12_20  and  C13_21 
ROOT
HETATM    1  S1  UNK     1       3.672   1.630  -3.888  1.00  0.00    -0.073 SA
HETATM    2  O1  UNK     1       1.298   1.550   0.430  1.00  0.00    -0.265 OA
HETATM    3  N1  UNK     1       0.242   0.603  -1.428  1.00  0.00    -0.203 N 
HETATM    4  N2  UNK     1       1.239   0.556  -3.587  1.00  0.00    -0.226 NA
HETATM    5  C1  UNK     1       3.648   2.195  -1.375  1.00  0.00    -0.026 A 
HETATM    6  C2  UNK     1       4.115   2.735  -0.055  1.00  0.00     0.041 C 
HETATM    7  C3  UNK     1       5.620   3.041  -0.054  1.00  0.00     0.005 C 
HETATM    8  C4  UNK     1       6.053   3.769  -1.334  1.00  0.00     0.005 C 
HETATM    9  C5  UNK     1       5.782   2.919  -2.584  1.00  0.00     0.047 C 
HETATM   10  C6  UNK     1       4.418   2.307  -2.518  1.00  0.00    -0.008 A 
HETATM   11  C7  UNK     1       2.401   1.552  -1.658  1.00  0.00     0.077 A 
HETATM   12  C8  UNK     1       2.288   1.187  -2.991  1.00  0.00     0.116 A 
HETATM   13  C9  UNK     1       1.290   1.253  -0.761  1.00  0.00     0.281 A 
HETATM   14  C10 UNK     1       0.249   0.283  -2.787  1.00  0.00     0.126 A 
HETATM   15  C11 UNK     1      -0.966  -0.417  -3.345  1.00  0.00     0.093 C 
ENDROOT
BRANCH   3  16
HETATM   16  N3  UNK     1      -0.857   0.275  -0.665  1.00  0.00    -0.255 N 
HETATM   17  C12 UNK     1      -0.880  -0.949  -0.047  1.00  0.00     0.276 C 
HETATM   18  O3  UNK     1      -0.016  -1.818  -0.089  1.00  0.00    -0.266 OA
HETATM   19  H9  UNK     1      -1.579   0.984  -0.589  1.00  0.00     0.191 HD
BRANCH  17  20
HETATM   20  C13 UNK     1      -2.116  -1.154   0.728  1.00  0.00     0.110 A 
HETATM   21  C14 UNK     1      -2.015  -1.939   1.807  1.00  0.00     0.037 A 
HETATM   22  C15 UNK     1      -3.181  -2.201   2.636  1.00  0.00    -0.001 A 
HETATM   23  C16 UNK     1      -4.398  -1.624   2.287  1.00  0.00     0.089 A 
HETATM   24  C18 UNK     1      -3.121  -3.014   3.770  1.00  0.00     0.014 A 
HETATM   25  O2  UNK     1      -4.498  -0.798   1.151  1.00  0.00    -0.274 OA
HETATM   26  C19 UNK     1      -5.552  -1.836   3.038  1.00  0.00     0.038 A 
HETATM   27  C17 UNK     1      -3.400  -0.528   0.339  1.00  0.00     0.304 A 
HETATM   28  O4  UNK     1      -3.498   0.191  -0.649  1.00  0.00    -0.259 OA
HETATM   29  C21 UNK     1      -5.484  -2.648   4.168  1.00  0.00     0.003 A 
HETATM   30  C20 UNK     1      -4.271  -3.236   4.534  1.00  0.00     0.001 A 
ENDBRANCH  17  20
ENDBRANCH   3  16
TORSDOF 2
