REMARK  6 active torsions:
REMARK  status: ('A' for Active; 'I' for Inactive)
REMARK    1  A    between atoms: C13_19  and  O2_3 
REMARK    2  A    between atoms: C18_24  and  O2_3 
REMARK    3  A    between atoms: C12_18  and  N1_5 
REMARK    4  A    between atoms: C4_10  and  N1_5 
REMARK    5  A    between atoms: C11_17  and  N2_6 
REMARK    6  A    between atoms: C12_18  and  N2_6 
ROOT
HETATM    1  S1  UNK     1      -2.839  -1.725  -2.727  1.00  0.00    -0.041 SA
HETATM    2  C12 UNK     1      -1.556  -0.744  -2.244  1.00  0.00     0.176 C 
ENDROOT
BRANCH   2   3
HETATM    3  N1  UNK     1      -1.127  -0.542  -0.929  1.00  0.00    -0.333 N 
HETATM    4  H8  UNK     1      -0.127  -0.387  -0.857  1.00  0.00     0.168 HD
BRANCH   3   5
HETATM    5  C4  UNK     1      -1.652  -0.959   0.294  1.00  0.00     0.036 A 
HETATM    6  C5  UNK     1      -3.029  -1.005   0.484  1.00  0.00     0.067 A 
HETATM    7  C2  UNK     1      -3.533  -1.426   1.715  1.00  0.00     0.092 A 
HETATM    8  C1  UNK     1      -2.702  -1.805   2.771  1.00  0.00     0.004 A 
HETATM    9  O1  UNK     1      -4.936  -1.453   1.847  1.00  0.00    -0.275 OA
HETATM   10  C3  UNK     1      -3.320  -2.235   4.033  1.00  0.00    -0.043 A 
HETATM   11  C6  UNK     1      -1.318  -1.751   2.560  1.00  0.00     0.017 A 
HETATM   12  C8  UNK     1      -4.657  -2.250   4.130  1.00  0.00     0.090 A 
HETATM   13  C9  UNK     1      -2.454  -2.648   5.187  1.00  0.00     0.049 C 
HETATM   14  C10 UNK     1      -5.546  -1.854   3.025  1.00  0.00     0.288 A 
HETATM   15  O3  UNK     1      -6.766  -1.880   3.150  1.00  0.00    -0.260 OA
HETATM   16  C7  UNK     1      -0.798  -1.331   1.331  1.00  0.00     0.030 A 
ENDBRANCH   3   5
ENDBRANCH   2   3
BRANCH   2  17
HETATM   17  N2  UNK     1      -0.789  -0.182  -3.253  1.00  0.00    -0.333 N 
HETATM   18  H9  UNK     1      -1.033  -0.508  -4.186  1.00  0.00     0.168 HD
BRANCH  17  19
HETATM   19  C11 UNK     1       0.398   0.592  -3.203  1.00  0.00     0.034 A 
HETATM   20  C14 UNK     1       1.273   0.555  -4.274  1.00  0.00     0.032 A 
HETATM   21  C16 UNK     1       2.442   1.315  -4.225  1.00  0.00     0.039 A 
HETATM   22  C13 UNK     1       2.716   2.100  -3.105  1.00  0.00     0.076 A 
HETATM   23  C17 UNK     1       1.822   2.125  -2.034  1.00  0.00     0.039 A 
HETATM   24  C15 UNK     1       0.653   1.364  -2.084  1.00  0.00     0.032 A 
BRANCH  22  25
HETATM   25  O2  UNK     1       3.855   2.844  -3.057  1.00  0.00    -0.311 OA
BRANCH  25  26
HETATM   26  C18 UNK     1       4.591   2.820  -1.884  1.00  0.00     0.076 A 
HETATM   27  C19 UNK     1       4.827   1.608  -1.262  1.00  0.00     0.037 A 
HETATM   28  C21 UNK     1       5.567   1.584  -0.080  1.00  0.00     0.003 A 
HETATM   29  C23 UNK     1       6.060   2.772   0.459  1.00  0.00     0.000 A 
HETATM   30  C22 UNK     1       5.811   3.985  -0.184  1.00  0.00     0.003 A 
HETATM   31  C20 UNK     1       5.070   4.009  -1.366  1.00  0.00     0.037 A 
ENDBRANCH  25  26
ENDBRANCH  22  25
ENDBRANCH  17  19
ENDBRANCH   2  17
TORSDOF 6
