REMARK  2 active torsions:
REMARK  status: ('A' for Active; 'I' for Inactive)
REMARK    1  A    between atoms: C12_15  and  O3_3 
REMARK    2  A    between atoms: C2_5  and  C4_7 
ROOT
HETATM    1  O1  UNK     1       0.550   0.207   1.393  1.00  0.00    -0.274 OA
HETATM    2  O2  UNK     1      -0.883  -0.765   2.861  1.00  0.00    -0.259 OA
HETATM    3  C1  UNK     1      -1.206  -0.514  -0.708  1.00  0.00    -0.037 A 
HETATM    4  C2  UNK     1      -1.502  -0.862   0.562  1.00  0.00     0.024 A 
HETATM    5  C3  UNK     1       0.053   0.207  -0.989  1.00  0.00     0.005 A 
HETATM    6  C5  UNK     1       0.887   0.544   0.073  1.00  0.00     0.092 A 
HETATM    7  C6  UNK     1      -0.610  -0.486   1.697  1.00  0.00     0.295 A 
HETATM    8  C7  UNK     1      -2.102  -0.805  -1.886  1.00  0.00     0.050 C 
HETATM    9  C8  UNK     1       0.478   0.572  -2.276  1.00  0.00     0.017 A 
HETATM   10  C9  UNK     1       2.094   1.225  -0.104  1.00  0.00     0.074 A 
HETATM   11  C11 UNK     1       1.685   1.255  -2.473  1.00  0.00     0.037 A 
HETATM   12  C12 UNK     1       2.492   1.582  -1.387  1.00  0.00     0.068 A 
ENDROOT
BRANCH   4  13
HETATM   13  C4  UNK     1      -2.716  -1.652   0.979  1.00  0.00     0.041 C 
HETATM   14  C10 UNK     1      -3.885  -0.743   1.291  1.00  0.00     0.010 C 
ENDBRANCH   4  13
BRANCH  12  15
HETATM   15  O3  UNK     1       3.663   2.245  -1.581  1.00  0.00    -0.361 OA
HETATM   16  H12 UNK     1       3.778   2.410  -2.533  1.00  0.00     0.217 HD
ENDBRANCH  12  15
TORSDOF 2
