REMARK  6 active torsions:
REMARK  status: ('A' for Active; 'I' for Inactive)
REMARK    1  A    between atoms: C6_11  and  O1_2 
REMARK    2  A    between atoms: C9_14  and  O2_3 
REMARK    3  A    between atoms: C2_7  and  N1_5 
REMARK       I    between atoms: C4_9  and  N1_5 
REMARK    4  A    between atoms: C1_6  and  C3_8 
REMARK    5  A    between atoms: C1_6  and  C4_9 
REMARK    6  A    between atoms: C5_10  and  C8_13 
ROOT
HETATM    1  O3  UNK     1       1.190   0.703   1.573  1.00  0.00    -0.267 OA
HETATM    2  N1  UNK     1       0.693   0.532  -0.707  1.00  0.00    -0.320 N 
HETATM    3  C4  UNK     1       0.460   0.353   0.651  1.00  0.00     0.257 C 
HETATM    4  H1  UNK     1       0.013   0.185  -1.377  1.00  0.00     0.169 HD
ENDROOT
BRANCH   3   5
HETATM    5  C1  UNK     1      -0.843  -0.360   0.937  1.00  0.00     0.043 C 
HETATM    6  C5  UNK     1      -1.155  -0.544   2.246  1.00  0.00     0.029 C 
BRANCH   5   7
HETATM    7  C3  UNK     1      -1.739  -0.801  -0.152  1.00  0.00    -0.021 A 
HETATM    8  C10 UNK     1      -2.700   0.072  -0.630  1.00  0.00     0.012 A 
HETATM    9  C16 UNK     1      -3.546  -0.344  -1.658  1.00  0.00     0.001 A 
HETATM   10  C18 UNK     1      -3.417  -1.626  -2.192  1.00  0.00     0.000 A 
HETATM   11  C17 UNK     1      -2.442  -2.493  -1.697  1.00  0.00     0.001 A 
HETATM   12  C11 UNK     1      -1.596  -2.077  -0.669  1.00  0.00     0.012 A 
ENDBRANCH   5   7
BRANCH   6  13
HETATM   13  C8  UNK     1      -2.364  -1.159   2.771  1.00  0.00    -0.035 A 
HETATM   14  C14 UNK     1      -3.478  -0.370   3.063  1.00  0.00     0.011 A 
HETATM   15  C19 UNK     1      -4.637  -0.960   3.566  1.00  0.00     0.001 A 
HETATM   16  C21 UNK     1      -4.684  -2.337   3.777  1.00  0.00     0.000 A 
HETATM   17  C20 UNK     1      -3.571  -3.126   3.486  1.00  0.00     0.001 A 
HETATM   18  C15 UNK     1      -2.411  -2.536   2.983  1.00  0.00     0.011 A 
ENDBRANCH   6  13
ENDBRANCH   3   5
BRANCH   2  19
HETATM   19  C2  UNK     1       1.810   1.157  -1.315  1.00  0.00     0.071 A 
HETATM   20  C6  UNK     1       1.885   1.251  -2.694  1.00  0.00     0.096 A 
HETATM   21  C12 UNK     1       2.990   1.870  -3.277  1.00  0.00     0.065 A 
HETATM   22  C13 UNK     1       4.006   2.386  -2.472  1.00  0.00     0.070 A 
HETATM   23 Cl1  UNK     1       5.362   3.147  -3.220  1.00  0.00    -0.081 Cl
HETATM   24  C9  UNK     1       3.916   2.284  -1.084  1.00  0.00     0.092 A 
HETATM   25  C7  UNK     1       2.810   1.665  -0.501  1.00  0.00     0.071 A 
BRANCH  20  26
HETATM   26  O1  UNK     1       0.903   0.753  -3.499  1.00  0.00    -0.354 OA
HETATM   27  C22 UNK     1      -0.166   1.634  -3.837  1.00  0.00     0.210 C 
ENDBRANCH  20  26
BRANCH  24  28
HETATM   28  O2  UNK     1       4.893   2.779  -0.274  1.00  0.00    -0.354 OA
HETATM   29  C23 UNK     1       5.960   1.896   0.068  1.00  0.00     0.210 C 
ENDBRANCH  24  28
ENDBRANCH   2  19
TORSDOF 6
