REMARK  8 active torsions:
REMARK  status: ('A' for Active; 'I' for Inactive)
REMARK    1  A    between atoms: C11_18  and  O2_2 
REMARK    2  A    between atoms: C15_22  and  O3_3 
REMARK    3  A    between atoms: C20_27  and  O4_4 
REMARK    4  A    between atoms: C5_12  and  N1_6 
REMARK    5  A    between atoms: C6_13  and  N2_7 
REMARK    6  A    between atoms: C5_12  and  C7_14 
REMARK    7  A    between atoms: C6_13  and  C8_15 
REMARK    8  A    between atoms: C16_23  and  C22_29 
ROOT
HETATM    1  N1  UNK     1      -0.627  -0.795   1.045  1.00  0.00     0.096 N 
HETATM    2  N2  UNK     1       1.314   1.189   0.237  1.00  0.00     0.096 N 
HETATM    3  C1  UNK     1       0.013   0.089   2.026  1.00  0.00     0.303 C 
HETATM    4  C2  UNK     1       0.267  -1.024  -0.097  1.00  0.00     0.303 C 
HETATM    5  C3  UNK     1       0.422   1.417   1.380  1.00  0.00     0.303 C 
HETATM    6  C4  UNK     1       0.675   0.304  -0.745  1.00  0.00     0.303 C 
ENDROOT
BRANCH   1   7
HETATM    7  C5  UNK     1      -1.015  -2.062   1.662  1.00  0.00     0.312 C 
BRANCH   7   8
HETATM    8  C7  UNK     1      -2.288  -1.948   2.426  1.00  0.00    -0.011 A 
HETATM    9  C10 UNK     1      -2.290  -1.616   3.724  1.00  0.00     0.092 A 
HETATM   10  C17 UNK     1      -3.522  -1.491   4.520  1.00  0.00     0.288 A 
HETATM   11  O1  UNK     1      -4.717  -1.735   3.861  1.00  0.00    -0.275 OA
HETATM   12  O5  UNK     1      -3.484  -1.183   5.706  1.00  0.00    -0.260 OA
HETATM   13  C13 UNK     1      -4.747  -2.087   2.497  1.00  0.00     0.090 A 
HETATM   14  C9  UNK     1      -3.571  -2.202   1.755  1.00  0.00     0.007 A 
HETATM   15  C19 UNK     1      -6.007  -2.310   1.937  1.00  0.00     0.039 A 
HETATM   16  C14 UNK     1      -3.686  -2.556   0.404  1.00  0.00     0.022 A 
HETATM   17  C16 UNK     1      -4.942  -2.783  -0.171  1.00  0.00    -0.058 A 
HETATM   18  C21 UNK     1      -6.100  -2.660   0.594  1.00  0.00     0.010 A 
BRANCH  17  19
HETATM   19  C22 UNK     1      -5.041  -3.159  -1.612  1.00  0.00     0.034 C 
HETATM   20  C23 UNK     1      -5.166  -1.940  -2.522  1.00  0.00     0.010 C 
ENDBRANCH  17  19
ENDBRANCH   7   8
ENDBRANCH   1   7
BRANCH   2  21
HETATM   21  C6  UNK     1       1.701   2.456  -0.381  1.00  0.00     0.314 C 
BRANCH  21  22
HETATM   22  C8  UNK     1       2.949   2.318  -1.211  1.00  0.00     0.006 A 
HETATM   23  C11 UNK     1       3.029   2.889  -2.481  1.00  0.00     0.112 A 
HETATM   24  C15 UNK     1       4.194   2.752  -3.236  1.00  0.00     0.135 A 
HETATM   25  C20 UNK     1       5.280   2.044  -2.720  1.00  0.00     0.104 A 
HETATM   26  C18 UNK     1       5.200   1.473  -1.450  1.00  0.00     0.040 A 
HETATM   27  C12 UNK     1       4.035   1.610  -0.695  1.00  0.00     0.014 A 
BRANCH  23  28
HETATM   28  O2  UNK     1       1.968   3.579  -2.990  1.00  0.00    -0.352 OA
HETATM   29  C24 UNK     1       1.918   4.978  -2.720  1.00  0.00     0.210 C 
ENDBRANCH  23  28
BRANCH  24  30
HETATM   30  O3  UNK     1       4.272   3.308  -4.478  1.00  0.00    -0.351 OA
HETATM   31  C25 UNK     1       3.852   2.500  -5.576  1.00  0.00     0.210 C 
ENDBRANCH  24  30
BRANCH  25  32
HETATM   32  O4  UNK     1       6.423   1.902  -3.447  1.00  0.00    -0.353 OA
HETATM   33  C26 UNK     1       7.485   1.164  -2.847  1.00  0.00     0.210 C 
ENDBRANCH  25  32
ENDBRANCH  21  22
ENDBRANCH   2  21
TORSDOF 8
