REMARK  5 active torsions:
REMARK  status: ('A' for Active; 'I' for Inactive)
REMARK    1  A    between atoms: C20_27  and  O3_4 
REMARK       I    between atoms: C12_19  and  N2_7 
REMARK    2  A    between atoms: C6_13  and  N2_7 
REMARK    3  A    between atoms: C1_8  and  C2_9 
REMARK    4  A    between atoms: C2_9  and  C6_13 
REMARK    5  A    between atoms: C12_19  and  C13_20 
ROOT
HETATM    1  O2  UNK     1      -0.714  -2.005  -2.611  1.00  0.00    -0.267 OA
HETATM    2  N2  UNK     1      -2.219  -0.812  -1.290  1.00  0.00    -0.356 N 
HETATM    3  C12 UNK     1      -1.043  -0.993  -1.996  1.00  0.00     0.257 C 
HETATM    4  H11 UNK     1      -2.386   0.056  -0.790  1.00  0.00     0.162 HD
ENDROOT
BRANCH   2   5
HETATM    5  C6  UNK     1      -3.241  -1.829  -1.187  1.00  0.00     0.127 C 
BRANCH   5   6
HETATM    6  C2  UNK     1      -2.988  -2.716   0.031  1.00  0.00     0.061 C 
BRANCH   6   7
HETATM    7  C1  UNK     1      -3.011  -1.965   1.331  1.00  0.00    -0.022 A 
HETATM    8  C3  UNK     1      -1.896  -1.362   1.945  1.00  0.00     0.000 A 
HETATM    9  C5  UNK     1      -2.365  -0.780   3.125  1.00  0.00     0.043 A 
HETATM   10  C7  UNK     1      -0.527  -1.244   1.630  1.00  0.00     0.033 A 
HETATM   11  N1  UNK     1      -3.716  -1.038   3.193  1.00  0.00    -0.359 N 
HETATM   12  C9  UNK     1      -1.532  -0.084   4.007  1.00  0.00     0.031 A 
HETATM   13  C4  UNK     1      -4.115  -1.760   2.101  1.00  0.00     0.013 A 
HETATM   14  H3  UNK     1      -4.321  -0.735   3.944  1.00  0.00     0.166 HD
HETATM   15  C8  UNK     1      -5.523  -2.169   1.933  1.00  0.00     0.068 C 
HETATM   16  C11 UNK     1      -0.179   0.020   3.673  1.00  0.00     0.021 A 
HETATM   17  C10 UNK     1       0.318  -0.551   2.503  1.00  0.00     0.011 A 
HETATM   18 Br1  UNK     1       2.157  -0.387   2.088  1.00  0.00    -0.051 Br
ENDBRANCH   6   7
ENDBRANCH   5   6
ENDBRANCH   2   5
BRANCH   3  19
HETATM   19  C13 UNK     1      -0.167   0.184  -1.956  1.00  0.00     0.108 A 
HETATM   20  C15 UNK     1       1.148  -0.055  -2.032  1.00  0.00     0.037 A 
HETATM   21  C14 UNK     1       2.096   1.048  -2.001  1.00  0.00     0.002 A 
HETATM   22  C16 UNK     1       1.614   2.348  -1.891  1.00  0.00     0.089 A 
HETATM   23  C18 UNK     1       3.476   0.845  -2.079  1.00  0.00     0.051 A 
HETATM   24  O1  UNK     1       0.229   2.593  -1.810  1.00  0.00    -0.274 OA
HETATM   25  C19 UNK     1       2.469   3.448  -1.855  1.00  0.00     0.041 A 
HETATM   26  C17 UNK     1      -0.703   1.559  -1.837  1.00  0.00     0.304 A 
HETATM   27  O4  UNK     1      -1.907   1.781  -1.766  1.00  0.00    -0.259 OA
HETATM   28  C21 UNK     1       3.843   3.237  -1.933  1.00  0.00     0.039 A 
HETATM   29  C20 UNK     1       4.347   1.939  -2.044  1.00  0.00     0.069 A 
BRANCH  29  30
HETATM   30  O3  UNK     1       5.691   1.737  -2.120  1.00  0.00    -0.356 OA
HETATM   31  C22 UNK     1       6.524   2.895  -2.080  1.00  0.00     0.210 C 
ENDBRANCH  29  30
ENDBRANCH   3  19
TORSDOF 5
