REMARK  6 active torsions:
REMARK  status: ('A' for Active; 'I' for Inactive)
REMARK    1  A    between atoms: C17_25  and  O1_1 
REMARK    2  A    between atoms: C8_16  and  O1_1 
REMARK    3  A    between atoms: C18_26  and  O3_3 
REMARK    4  A    between atoms: C18_26  and  C2_10 
REMARK    5  A    between atoms: C16_24  and  C5_13 
REMARK    6  A    between atoms: C17_25  and  C9_17 
ROOT
HETATM    1  O2  UNK     1       2.733  -0.222  -0.695  1.00  0.00    -0.292 OA
HETATM    2  N1  UNK     1      -0.894   1.316  -3.324  1.00  0.00    -0.362 N 
HETATM    3  C1  UNK     1       2.611   2.662  -2.891  1.00  0.00     0.008 C 
HETATM    4  C2  UNK     1       3.269   1.355  -2.429  1.00  0.00     0.164 C 
HETATM    5  C3  UNK     1       0.860   0.553  -1.926  1.00  0.00     0.025 C 
HETATM    6  C4  UNK     1       1.320   2.327  -3.653  1.00  0.00     0.063 C 
HETATM    7  C5  UNK     1      -0.104  -0.361  -1.173  1.00  0.00     0.104 C 
HETATM    8  C6  UNK     1       0.427   1.358  -2.920  1.00  0.00     0.020 C 
HETATM    9  C7  UNK     1       2.319   0.518  -1.587  1.00  0.00     0.172 C 
HETATM   10  C9  UNK     1      -1.474  -0.445  -1.853  1.00  0.00     0.052 C 
HETATM   11  C14 UNK     1      -1.819   0.398  -2.854  1.00  0.00     0.018 C 
HETATM   12  C15 UNK     1       2.335   3.646  -1.742  1.00  0.00     0.011 C 
HETATM   13  C19 UNK     1      -3.157   0.434  -3.541  1.00  0.00     0.069 C 
HETATM   14  H15 UNK     1      -1.179   1.930  -4.078  1.00  0.00     0.165 HD
ENDROOT
BRANCH   7  15
HETATM   15  C16 UNK     1      -0.259   0.094   0.256  1.00  0.00     0.029 A 
HETATM   16  C20 UNK     1       0.158  -0.827   1.343  1.00  0.00     0.194 A 
HETATM   17  C22 UNK     1      -0.017  -0.334   2.722  1.00  0.00     0.048 A 
HETATM   18  O7  UNK     1       0.622  -1.937   1.114  1.00  0.00    -0.287 OA
HETATM   19  C23 UNK     1      -0.550   0.940   2.924  1.00  0.00     0.089 A 
HETATM   20  C24 UNK     1       0.346  -1.126   3.814  1.00  0.00     0.018 A 
HETATM   21  O4  UNK     1      -0.923   1.760   1.889  1.00  0.00    -0.321 OA
HETATM   22  C26 UNK     1      -0.724   1.427   4.219  1.00  0.00     0.038 A 
HETATM   23  C21 UNK     1      -0.755   1.287   0.611  1.00  0.00     0.154 A 
HETATM   24  C28 UNK     1      -0.363   0.638   5.311  1.00  0.00     0.003 A 
HETATM   25  C27 UNK     1       0.171  -0.636   5.109  1.00  0.00     0.001 A 
ENDBRANCH   7  15
BRANCH  10  26
HETATM   26  C17 UNK     1      -2.372  -1.521  -1.402  1.00  0.00     0.292 C 
HETATM   27  O5  UNK     1      -2.360  -2.643  -1.875  1.00  0.00    -0.259 OA
BRANCH  26  28
HETATM   28  O1  UNK     1      -3.162  -1.034  -0.415  1.00  0.00    -0.312 OA
BRANCH  28  29
HETATM   29  C8  UNK     1      -4.085  -1.958   0.124  1.00  0.00     0.132 C 
HETATM   30  C10 UNK     1      -3.385  -3.127   0.800  1.00  0.00     0.032 C 
HETATM   31  C12 UNK     1      -4.434  -3.688   1.753  1.00  0.00     0.002 C 
HETATM   32  C13 UNK     1      -5.404  -2.539   2.040  1.00  0.00     0.002 C 
HETATM   33  C11 UNK     1      -4.874  -1.339   1.266  1.00  0.00     0.032 C 
ENDBRANCH  28  29
ENDBRANCH  26  28
ENDBRANCH  10  26
BRANCH   4  34
HETATM   34  C18 UNK     1       4.584   1.628  -1.764  1.00  0.00     0.270 C 
HETATM   35  O6  UNK     1       4.858   1.289  -0.621  1.00  0.00    -0.264 OA
BRANCH  34  36
HETATM   36  O3  UNK     1       5.400   2.300  -2.626  1.00  0.00    -0.326 OA
HETATM   37  C25 UNK     1       6.696   2.628  -2.117  1.00  0.00     0.213 C 
ENDBRANCH  34  36
ENDBRANCH   4  34
TORSDOF 6
