REMARK  3 active torsions:
REMARK  status: ('A' for Active; 'I' for Inactive)
REMARK    1  A    between atoms: C2_6  and  O2_2 
REMARK    2  A    between atoms: C16_20  and  O4_4 
REMARK    3  A    between atoms: C1_5  and  C3_7 
ROOT
HETATM    1  O1  UNK     1      -0.492   0.907   0.887  1.00  0.00    -0.337 OA
HETATM    2  O3  UNK     1      -2.037  -2.555  -0.690  1.00  0.00    -0.289 OA
HETATM    3  C1  UNK     1       0.291   0.100  -0.008  1.00  0.00     0.198 C 
HETATM    4  C2  UNK     1      -0.596  -0.660  -0.998  1.00  0.00     0.229 C 
HETATM    5  C4  UNK     1      -1.571  -1.519  -0.230  1.00  0.00     0.193 C 
HETATM    6  C5  UNK     1      -1.991  -1.006   1.091  1.00  0.00     0.046 A 
HETATM    7  C6  UNK     1      -1.443   0.190   1.565  1.00  0.00     0.083 A 
HETATM    8  C9  UNK     1      -2.957  -1.684   1.838  1.00  0.00     0.018 A 
HETATM    9  C10 UNK     1      -1.887   0.725   2.774  1.00  0.00     0.038 A 
HETATM   10  C11 UNK     1      -3.383  -1.153   3.057  1.00  0.00     0.001 A 
HETATM   11  C14 UNK     1      -2.853   0.051   3.521  1.00  0.00     0.003 A 
ENDROOT
BRANCH   3  12
HETATM   12  C3  UNK     1       1.311   0.968  -0.718  1.00  0.00    -0.026 A 
HETATM   13  C7  UNK     1       2.561   0.446  -1.047  1.00  0.00     0.012 A 
HETATM   14  C12 UNK     1       3.500   1.244  -1.700  1.00  0.00     0.037 A 
HETATM   15  C16 UNK     1       3.187   2.565  -2.024  1.00  0.00     0.065 A 
HETATM   16  C13 UNK     1       1.936   3.086  -1.695  1.00  0.00     0.037 A 
HETATM   17  C8  UNK     1       0.998   2.287  -1.041  1.00  0.00     0.012 A 
BRANCH  15  18
HETATM   18  O4  UNK     1       4.102   3.344  -2.663  1.00  0.00    -0.361 OA
HETATM   19  H14 UNK     1       4.910   2.822  -2.813  1.00  0.00     0.217 HD
ENDBRANCH  15  18
ENDBRANCH   3  12
BRANCH   4  20
HETATM   20  O2  UNK     1      -1.373   0.230  -1.783  1.00  0.00    -0.380 OA
HETATM   21  C15 UNK     1      -2.219  -0.471  -2.687  1.00  0.00     0.202 C 
ENDBRANCH   4  20
TORSDOF 3
