REMARK  5 active torsions:
REMARK  status: ('A' for Active; 'I' for Inactive)
REMARK    1  A    between atoms: C11_17  and  O3_3 
REMARK    2  A    between atoms: C12_18  and  O4_4 
REMARK    3  A    between atoms: C13_19  and  O5_5 
REMARK    4  A    between atoms: C14_20  and  O6_6 
REMARK    5  A    between atoms: C1_7  and  C3_9 
ROOT
HETATM    1  O1  UNK     1       0.376   0.674  -1.118  1.00  0.00    -0.340 OA
HETATM    2  O2  UNK     1       2.498   3.198   1.322  1.00  0.00    -0.292 OA
HETATM    3  C1  UNK     1       0.398   0.473   0.303  1.00  0.00     0.169 C 
HETATM    4  C2  UNK     1       0.569   1.799   1.042  1.00  0.00     0.121 C 
HETATM    5  C4  UNK     1       1.855   2.447   0.598  1.00  0.00     0.165 C 
HETATM    6  C5  UNK     1       2.265   2.181  -0.796  1.00  0.00     0.043 A 
HETATM    7  C6  UNK     1       1.489   1.326  -1.583  1.00  0.00     0.086 A 
HETATM    8  C9  UNK     1       3.390   2.810  -1.336  1.00  0.00     0.021 A 
HETATM    9  C10 UNK     1       1.819   1.126  -2.924  1.00  0.00     0.074 A 
HETATM   10  C14 UNK     1       2.941   1.754  -3.466  1.00  0.00     0.070 A 
HETATM   11  C15 UNK     1       3.727   2.590  -2.672  1.00  0.00     0.038 A 
ENDROOT
BRANCH   3  12
HETATM   12  C3  UNK     1      -0.887  -0.216   0.710  1.00  0.00    -0.023 A 
HETATM   13  C7  UNK     1      -0.846  -1.492   1.273  1.00  0.00     0.049 A 
HETATM   14  C12 UNK     1      -2.030  -2.127   1.647  1.00  0.00     0.104 A 
HETATM   15  C13 UNK     1      -3.255  -1.486   1.459  1.00  0.00     0.135 A 
HETATM   16  C11 UNK     1      -3.295  -0.210   0.897  1.00  0.00     0.104 A 
HETATM   17  C8  UNK     1      -2.111   0.425   0.522  1.00  0.00     0.049 A 
BRANCH  14  18
HETATM   18  O4  UNK     1      -1.977  -3.372   2.196  1.00  0.00    -0.353 OA
HETATM   19  C17 UNK     1      -1.860  -3.450   3.616  1.00  0.00     0.210 C 
ENDBRANCH  14  18
BRANCH  15  20
HETATM   20  O5  UNK     1      -4.412  -2.107   1.827  1.00  0.00    -0.351 OA
HETATM   21  C18 UNK     1      -5.053  -2.916   0.844  1.00  0.00     0.210 C 
ENDBRANCH  15  20
BRANCH  16  22
HETATM   22  O3  UNK     1      -4.485   0.426   0.707  1.00  0.00    -0.353 OA
HETATM   23  C16 UNK     1      -4.961   1.243   1.775  1.00  0.00     0.210 C 
ENDBRANCH  16  22
ENDBRANCH   3  12
BRANCH  10  24
HETATM   24  O6  UNK     1       3.270   1.550  -4.771  1.00  0.00    -0.356 OA
HETATM   25  C19 UNK     1       4.430   2.222  -5.260  1.00  0.00     0.210 C 
ENDBRANCH  10  24
TORSDOF 5
