REMARK  5 active torsions:
REMARK  status: ('A' for Active; 'I' for Inactive)
REMARK    1  A    between atoms: C7_11  and  O2_2 
REMARK    2  A    between atoms: C1_5  and  N1_4 
REMARK    3  A    between atoms: C4_8  and  N1_4 
REMARK    4  A    between atoms: C5_9  and  N1_4 
REMARK    5  A    between atoms: C1_5  and  C2_6 
ROOT
HETATM    1  O1  UNK     1       0.376   0.702   0.868  1.00  0.00    -0.274 OA
HETATM    2  O3  UNK     1       1.702   1.192   2.665  1.00  0.00    -0.260 OA
HETATM    3  C2  UNK     1      -1.011   0.189  -1.005  1.00  0.00     0.038 A 
HETATM    4  C3  UNK     1       0.237   0.597  -0.531  1.00  0.00     0.101 A 
HETATM    5  C6  UNK     1       1.301   0.889  -1.385  1.00  0.00     0.005 A 
HETATM    6  C7  UNK     1      -1.208   0.067  -2.377  1.00  0.00     0.076 A 
HETATM    7  C8  UNK     1       2.580   1.312  -0.798  1.00  0.00    -0.043 A 
HETATM    8  C9  UNK     1       1.082   0.760  -2.763  1.00  0.00     0.017 A 
HETATM    9  C10 UNK     1      -0.164   0.352  -3.254  1.00  0.00     0.038 A 
HETATM   10  C13 UNK     1       2.683   1.402   0.535  1.00  0.00     0.090 A 
HETATM   11  C14 UNK     1       3.743   1.633  -1.691  1.00  0.00     0.049 C 
HETATM   12  C15 UNK     1       1.570   1.097   1.450  1.00  0.00     0.288 A 
ENDROOT
BRANCH   3  13
HETATM   13  C1  UNK     1      -2.125  -0.115  -0.057  1.00  0.00     0.316 C 
BRANCH  13  14
HETATM   14  N1  UNK     1      -1.684  -0.932   1.074  1.00  0.00     0.092 N 
BRANCH  14  15
HETATM   15  C4  UNK     1      -1.146  -2.207   0.603  1.00  0.00     0.268 C 
HETATM   16  C11 UNK     1      -0.682  -3.070   1.765  1.00  0.00     0.037 C 
ENDBRANCH  14  15
BRANCH  14  17
HETATM   17  C5  UNK     1      -2.790  -1.155   2.004  1.00  0.00     0.268 C 
HETATM   18  C12 UNK     1      -3.322   0.159   2.550  1.00  0.00     0.037 C 
ENDBRANCH  14  17
ENDBRANCH  13  14
ENDBRANCH   3  13
BRANCH   6  19
HETATM   19  O2  UNK     1      -2.411  -0.329  -2.878  1.00  0.00    -0.360 OA
HETATM   20  H19 UNK     1      -2.357  -0.356  -3.849  1.00  0.00     0.217 HD
ENDBRANCH   6  19
TORSDOF 5
