REMARK  3 active torsions:
REMARK  status: ('A' for Active; 'I' for Inactive)
REMARK    1  A    between atoms: C5_12  and  N1_6 
REMARK       I    between atoms: C8_15  and  N1_6 
REMARK    2  A    between atoms: C10_17  and  N2_7 
REMARK    3  A    between atoms: C3_10  and  C8_15 
ROOT
HETATM    1  O1  UNK     1       0.197   0.078  -2.577  1.00  0.00    -0.274 OA
HETATM    2  O3  UNK     1      -1.558  -1.124  -1.745  1.00  0.00    -0.259 OA
HETATM    3  C1  UNK     1       1.833   1.029  -1.051  1.00  0.00     0.001 A 
HETATM    4  C2  UNK     1       1.369   0.824  -2.346  1.00  0.00     0.089 A 
HETATM    5  C3  UNK     1      -0.026  -0.246  -0.164  1.00  0.00     0.108 A 
HETATM    6  C4  UNK     1       1.088   0.461   0.061  1.00  0.00     0.037 A 
HETATM    7  C6  UNK     1       3.000   1.774  -0.862  1.00  0.00     0.050 A 
HETATM    8  C9  UNK     1       2.036   1.341  -3.455  1.00  0.00     0.041 A 
HETATM    9  C10 UNK     1       3.680   2.299  -1.965  1.00  0.00     0.103 A 
HETATM   10  C11 UNK     1      -0.538  -0.477  -1.533  1.00  0.00     0.304 A 
HETATM   11  C12 UNK     1       3.199   2.083  -3.258  1.00  0.00     0.039 A 
ENDROOT
BRANCH   5  12
HETATM   12  C8  UNK     1      -0.708  -0.779   1.022  1.00  0.00     0.262 C 
HETATM   13  O2  UNK     1      -0.054  -1.069   2.023  1.00  0.00    -0.267 OA
HETATM   14  N1  UNK     1      -2.079  -0.887   0.834  1.00  0.00    -0.322 N 
HETATM   15  H4  UNK     1      -2.456  -0.578  -0.057  1.00  0.00     0.169 HD
BRANCH  14  16
HETATM   16  C5  UNK     1      -3.043  -1.360   1.757  1.00  0.00     0.041 A 
HETATM   17  C13 UNK     1      -2.612  -1.772   3.008  1.00  0.00     0.030 A 
HETATM   18  C16 UNK     1      -3.546  -2.242   3.931  1.00  0.00     0.002 A 
HETATM   19  C17 UNK     1      -4.898  -2.293   3.591  1.00  0.00     0.001 A 
HETATM   20  C14 UNK     1      -5.316  -1.874   2.328  1.00  0.00     0.009 A 
HETATM   21  C7  UNK     1      -4.381  -1.405   1.405  1.00  0.00    -0.035 A 
HETATM   22  C15 UNK     1      -4.857  -0.962   0.059  1.00  0.00     0.050 C 
ENDBRANCH  14  16
ENDBRANCH   5  12
BRANCH   9  23
HETATM   23  N2  UNK     1       4.866   3.056  -1.769  1.00  0.00    -0.116 N 
HETATM   24  O4  UNK     1       5.462   3.521  -2.770  1.00  0.00    -0.532 OA
HETATM   25  O5  UNK     1       5.283   3.240  -0.601  1.00  0.00    -0.532 OA
ENDBRANCH   9  23
TORSDOF 3
