REMARK  2 active torsions:
REMARK  status: ('A' for Active; 'I' for Inactive)
REMARK    1  A    between atoms: C1_8  and  N1_7 
REMARK    2  A    between atoms: C5_12  and  C9_16 
ROOT
HETATM    1  O3  UNK     1       0.935   0.173  -2.813  1.00  0.00    -0.303 OA
HETATM    2  O4  UNK     1      -1.398  -1.422  -2.018  1.00  0.00    -0.265 OA
HETATM    3  O5  UNK     1       1.955   2.712   0.252  1.00  0.00    -0.287 OA
HETATM    4  N1  UNK     1      -1.235  -0.251   0.031  1.00  0.00    -0.328 N 
HETATM    5  C5  UNK     1      -0.359   0.773   0.598  1.00  0.00     0.161 A 
HETATM    6  C6  UNK     1       0.558   0.991  -0.559  1.00  0.00     0.060 A 
HETATM    7  C7  UNK     1      -0.879  -0.613  -1.269  1.00  0.00     0.279 A 
HETATM    8  C8  UNK     1       0.291   0.213  -1.611  1.00  0.00     0.156 A 
HETATM    9  C10 UNK     1       1.665   1.948  -0.657  1.00  0.00     0.196 A 
HETATM   10  C11 UNK     1       2.403   1.921  -1.942  1.00  0.00     0.049 A 
HETATM   11  C14 UNK     1       2.001   1.036  -2.953  1.00  0.00     0.090 A 
HETATM   12  C17 UNK     1       3.491   2.773  -2.147  1.00  0.00     0.018 A 
HETATM   13  C18 UNK     1       2.687   1.003  -4.167  1.00  0.00     0.038 A 
HETATM   14  C20 UNK     1       4.174   2.735  -3.363  1.00  0.00     0.001 A 
HETATM   15  C21 UNK     1       3.774   1.854  -4.370  1.00  0.00     0.003 A 
ENDROOT
BRANCH   4  16
HETATM   16  C1  UNK     1      -2.388  -0.754   0.736  1.00  0.00     0.103 C 
HETATM   17  C2  UNK     1      -3.674  -0.443  -0.026  1.00  0.00     0.165 C 
HETATM   18  S1  UNK     1      -4.866  -1.639   0.562  1.00  0.00     0.146 S 
HETATM   19  C4  UNK     1      -3.693  -2.713   1.375  1.00  0.00     0.142 C 
HETATM   20  O1  UNK     1      -5.698  -1.014   1.570  1.00  0.00    -0.228 OA
HETATM   21  O2  UNK     1      -5.424  -2.335  -0.579  1.00  0.00    -0.228 OA
HETATM   22  C3  UNK     1      -2.327  -2.278   0.858  1.00  0.00     0.041 C 
ENDBRANCH   4  16
BRANCH   5  23
HETATM   23  C9  UNK     1       0.355   0.294   1.815  1.00  0.00    -0.031 A 
HETATM   24  C12 UNK     1       0.707   1.198   2.819  1.00  0.00     0.009 A 
HETATM   25  C15 UNK     1       1.374   0.750   3.959  1.00  0.00     0.001 A 
HETATM   26  C19 UNK     1       1.691  -0.601   4.096  1.00  0.00     0.000 A 
HETATM   27  C16 UNK     1       1.340  -1.505   3.093  1.00  0.00     0.001 A 
HETATM   28  C13 UNK     1       0.672  -1.057   1.953  1.00  0.00     0.009 A 
ENDBRANCH   5  23
TORSDOF 2
