REMARK  4 active torsions:
REMARK  status: ('A' for Active; 'I' for Inactive)
REMARK    1  A    between atoms: C5_10  and  O2_2 
REMARK    2  A    between atoms: C11_16  and  O3_3 
REMARK    3  A    between atoms: C12_17  and  O4_4 
REMARK    4  A    between atoms: C1_6  and  C2_7 
ROOT
HETATM    1  O1  UNK     1       0.011  -0.180   0.577  1.00  0.00    -0.309 OA
HETATM    2  O5  UNK     1      -3.273  -0.680  -1.782  1.00  0.00    -0.287 OA
HETATM    3  C1  UNK     1       0.057   0.041  -0.791  1.00  0.00     0.093 A 
HETATM    4  C3  UNK     1      -2.336  -0.776   0.385  1.00  0.00     0.051 A 
HETATM    5  C4  UNK     1      -1.176  -0.584   1.134  1.00  0.00     0.090 A 
HETATM    6  C6  UNK     1      -0.992  -0.102  -1.616  1.00  0.00     0.094 A 
HETATM    7  C7  UNK     1      -2.293  -0.535  -1.065  1.00  0.00     0.187 A 
HETATM    8  C8  UNK     1      -3.518  -1.189   1.006  1.00  0.00     0.055 A 
HETATM    9  C10 UNK     1      -1.191  -0.805   2.511  1.00  0.00     0.041 A 
HETATM   10  C12 UNK     1      -3.529  -1.408   2.383  1.00  0.00     0.069 A 
HETATM   11  C13 UNK     1      -2.369  -1.217   3.135  1.00  0.00     0.039 A 
ENDROOT
BRANCH   3  12
HETATM   12  C2  UNK     1       1.378   0.480  -1.283  1.00  0.00     0.034 A 
HETATM   13  C5  UNK     1       1.723   1.834  -1.334  1.00  0.00     0.114 A 
HETATM   14  C11 UNK     1       2.978   2.223  -1.803  1.00  0.00     0.102 A 
HETATM   15  C15 UNK     1       3.894   1.259  -2.224  1.00  0.00     0.040 A 
HETATM   16  C14 UNK     1       3.555  -0.094  -2.176  1.00  0.00     0.004 A 
HETATM   17  C9  UNK     1       2.300  -0.482  -1.706  1.00  0.00     0.017 A 
BRANCH  13  18
HETATM   18  O2  UNK     1       0.837   2.788  -0.925  1.00  0.00    -0.352 OA
HETATM   19  C16 UNK     1       1.243   3.628   0.152  1.00  0.00     0.210 C 
ENDBRANCH  13  18
BRANCH  14  20
HETATM   20  O3  UNK     1       3.323   3.540  -1.856  1.00  0.00    -0.353 OA
HETATM   21  C17 UNK     1       3.022   4.240  -3.061  1.00  0.00     0.210 C 
ENDBRANCH  14  20
ENDBRANCH   3  12
BRANCH  10  22
HETATM   22  O4  UNK     1      -4.677  -1.810   2.998  1.00  0.00    -0.356 OA
HETATM   23  C18 UNK     1      -4.620  -2.015   4.408  1.00  0.00     0.210 C 
ENDBRANCH  10  22
TORSDOF 4
