REMARK  2 active torsions:
REMARK  status: ('A' for Active; 'I' for Inactive)
REMARK    1  A    between atoms: C1_6  and  N1_4 
REMARK       I    between atoms: C15_20  and  N2_5 
REMARK    2  A    between atoms: C15_20  and  C16_21 
ROOT
HETATM    1  O1  UNK     1       0.262   0.139  -3.744  1.00  0.00    -0.267 OA
HETATM    2  N1  UNK     1      -2.323  -0.128   0.511  1.00  0.00     0.101 N 
HETATM    3  N2  UNK     1      -0.439   0.518  -1.558  1.00  0.00    -0.344 N 
HETATM    4  C11 UNK     1      -0.895   0.003   0.826  1.00  0.00     0.293 C 
HETATM    5  C12 UNK     1      -2.496  -0.663  -0.846  1.00  0.00     0.293 C 
HETATM    6  C13 UNK     1      -0.188   0.926  -0.170  1.00  0.00     0.156 C 
HETATM    7  C14 UNK     1      -1.845   0.261  -1.872  1.00  0.00     0.156 C 
HETATM    8  C15 UNK     1       0.501   0.486  -2.586  1.00  0.00     0.260 C 
ENDROOT
BRANCH   8   9
HETATM    9  C16 UNK     1       1.881   0.904  -2.269  1.00  0.00     0.108 A 
HETATM   10  C17 UNK     1       2.157   2.203  -2.431  1.00  0.00     0.037 A 
HETATM   11  C19 UNK     1       3.490   2.711  -2.144  1.00  0.00    -0.001 A 
HETATM   12  C20 UNK     1       4.467   1.825  -1.702  1.00  0.00     0.089 A 
HETATM   13  C21 UNK     1       3.822   4.059  -2.299  1.00  0.00     0.014 A 
HETATM   14  O2  UNK     1       4.170   0.459  -1.533  1.00  0.00    -0.274 OA
HETATM   15  C22 UNK     1       5.763   2.247  -1.410  1.00  0.00     0.038 A 
HETATM   16  C18 UNK     1       2.905  -0.056  -1.799  1.00  0.00     0.304 A 
HETATM   17  O3  UNK     1       2.656  -1.248  -1.650  1.00  0.00    -0.259 OA
HETATM   18  C24 UNK     1       6.086   3.593  -1.568  1.00  0.00     0.003 A 
HETATM   19  C23 UNK     1       5.118   4.498  -2.010  1.00  0.00     0.001 A 
ENDBRANCH   8   9
BRANCH   2  20
HETATM   20  C1  UNK     1      -2.989  -0.985   1.491  1.00  0.00     0.161 C 
HETATM   21  C5  UNK     1      -4.489  -1.109   1.142  1.00  0.00     0.046 C 
HETATM   22  C2  UNK     1      -5.201  -2.002   2.174  1.00  0.00    -0.011 C 
HETATM   23  C8  UNK     1      -4.554  -3.398   2.167  1.00  0.00     0.009 C 
HETATM   24  C9  UNK     1      -5.048  -1.380   3.573  1.00  0.00     0.009 C 
HETATM   25  C3  UNK     1      -3.062  -3.291   2.525  1.00  0.00    -0.011 C 
HETATM   26  C10 UNK     1      -2.920  -2.662   3.922  1.00  0.00     0.009 C 
HETATM   27  C6  UNK     1      -2.356  -2.394   1.492  1.00  0.00     0.046 C 
HETATM   28  C4  UNK     1      -3.558  -1.262   3.939  1.00  0.00    -0.011 C 
HETATM   29  C7  UNK     1      -2.851  -0.371   2.902  1.00  0.00     0.046 C 
ENDBRANCH   2  20
TORSDOF 2
