REMARK  1 active torsions:
REMARK  status: ('A' for Active; 'I' for Inactive)
REMARK    1  A    between atoms: C4_7  and  C9_12 
ROOT
HETATM    1  O1  UNK     1       1.678   0.686   2.122  1.00  0.00    -0.321 OA
HETATM    2  O2  UNK     1      -2.687  -1.369   2.251  1.00  0.00    -0.275 OA
HETATM    3  O3  UNK     1      -4.759  -2.336   2.242  1.00  0.00    -0.260 OA
HETATM    4  C1  UNK     1       0.526   0.368   0.206  1.00  0.00     0.012 A 
HETATM    5  C2  UNK     1      -1.684  -0.657   0.138  1.00  0.00     0.005 A 
HETATM    6  C3  UNK     1       0.520   0.207   1.586  1.00  0.00     0.088 A 
HETATM    7  C4  UNK     1       1.767   0.983  -0.106  1.00  0.00     0.009 A 
HETATM    8  C5  UNK     1      -0.593  -0.070  -0.532  1.00  0.00     0.030 A 
HETATM    9  C6  UNK     1      -1.620  -0.787   1.529  1.00  0.00     0.093 A 
HETATM   10  C7  UNK     1      -0.528  -0.365   2.298  1.00  0.00     0.076 A 
HETATM   11  C8  UNK     1      -2.888  -1.138  -0.558  1.00  0.00    -0.043 A 
HETATM   12  C10 UNK     1       2.426   1.154   1.090  1.00  0.00     0.155 A 
HETATM   13  C11 UNK     1      -3.881  -1.685   0.157  1.00  0.00     0.090 A 
HETATM   14  C12 UNK     1      -2.990  -1.013  -2.050  1.00  0.00     0.049 C 
HETATM   15  C15 UNK     1      -3.831  -1.831   1.621  1.00  0.00     0.288 A 
ENDROOT
BRANCH   7  16
HETATM   16  C9  UNK     1       2.319   1.385  -1.365  1.00  0.00    -0.023 A 
HETATM   17  C13 UNK     1       3.097   0.493  -2.106  1.00  0.00     0.012 A 
HETATM   18  C16 UNK     1       3.635   0.885  -3.332  1.00  0.00     0.001 A 
HETATM   19  C18 UNK     1       3.395   2.169  -3.821  1.00  0.00     0.000 A 
HETATM   20  C17 UNK     1       2.617   3.062  -3.083  1.00  0.00     0.001 A 
HETATM   21  C14 UNK     1       2.080   2.671  -1.857  1.00  0.00     0.012 A 
ENDBRANCH   7  16
TORSDOF 1
