REMARK  10 active torsions:
REMARK  status: ('A' for Active; 'I' for Inactive)
REMARK    1  A    between atoms: C11_18  and  O3_3 
REMARK    2  A    between atoms: C18_25  and  O3_3 
REMARK    3  A    between atoms: C5_12  and  N1_6 
REMARK       I    between atoms: C7_14  and  N1_6 
REMARK       I    between atoms: C11_18  and  N2_7 
REMARK    4  A    between atoms: C6_13  and  N2_7 
REMARK    5  A    between atoms: C1_8  and  C2_9 
REMARK    6  A    between atoms: C1_8  and  C3_10 
REMARK    7  A    between atoms: C2_9  and  C4_11 
REMARK    8  A    between atoms: C3_10  and  C5_12 
REMARK    9  A    between atoms: C4_11  and  C6_13 
REMARK   10  A    between atoms: C7_14  and  C8_15 
ROOT
HETATM    1  O2  UNK     1       1.938  -1.631   1.569  1.00  0.00    -0.267 OA
HETATM    2  N1  UNK     1       0.369  -0.154   2.460  1.00  0.00    -0.357 N 
HETATM    3  C7  UNK     1       1.359  -0.550   1.577  1.00  0.00     0.257 C 
HETATM    4  H13 UNK     1      -0.067   0.758   2.360  1.00  0.00     0.162 HD
ENDROOT
BRANCH   2   5
HETATM    5  C5  UNK     1      -0.120  -0.994   3.519  1.00  0.00     0.123 C 
BRANCH   5   6
HETATM    6  C3  UNK     1      -1.301  -1.856   3.084  1.00  0.00     0.020 C 
BRANCH   6   7
HETATM    7  C1  UNK     1      -2.488  -1.021   2.590  1.00  0.00     0.002 C 
BRANCH   7   8
HETATM    8  C2  UNK     1      -3.658  -1.917   2.174  1.00  0.00     0.002 C 
BRANCH   8   9
HETATM    9  C4  UNK     1      -4.878  -1.133   1.677  1.00  0.00     0.020 C 
BRANCH   9  10
HETATM   10  C6  UNK     1      -4.609  -0.207   0.494  1.00  0.00     0.125 C 
BRANCH  10  11
HETATM   11  N2  UNK     1      -4.091  -0.907  -0.649  1.00  0.00    -0.337 N 
HETATM   12  C11 UNK     1      -2.863  -0.641  -1.228  1.00  0.00     0.360 C 
HETATM   13  O4  UNK     1      -2.068   0.213  -0.849  1.00  0.00    -0.239 OA
HETATM   14  H14 UNK     1      -4.671  -1.623  -1.076  1.00  0.00     0.164 HD
BRANCH  12  15
HETATM   15  O3  UNK     1      -2.659  -1.472  -2.293  1.00  0.00    -0.304 OA
BRANCH  15  16
HETATM   16  C18 UNK     1      -1.419  -1.303  -2.988  1.00  0.00     0.176 C 
HETATM   17  C19 UNK     1      -0.376  -2.203  -2.362  1.00  0.00     0.034 C 
ENDBRANCH  15  16
ENDBRANCH  12  15
ENDBRANCH  10  11
ENDBRANCH   9  10
ENDBRANCH   8   9
ENDBRANCH   7   8
ENDBRANCH   6   7
ENDBRANCH   5   6
ENDBRANCH   2   5
BRANCH   3  18
HETATM   18  C8  UNK     1       1.687   0.485   0.580  1.00  0.00     0.108 A 
HETATM   19  C10 UNK     1       2.110   0.046  -0.612  1.00  0.00     0.037 A 
HETATM   20  C9  UNK     1       2.458   0.991  -1.661  1.00  0.00    -0.001 A 
HETATM   21  C12 UNK     1       2.344   2.354  -1.403  1.00  0.00     0.089 A 
HETATM   22  C14 UNK     1       2.903   0.578  -2.919  1.00  0.00     0.014 A 
HETATM   23  O1  UNK     1       1.899   2.810  -0.147  1.00  0.00    -0.274 OA
HETATM   24  C15 UNK     1       2.662   3.311  -2.364  1.00  0.00     0.038 A 
HETATM   25  C13 UNK     1       1.558   1.929   0.876  1.00  0.00     0.304 A 
HETATM   26  O5  UNK     1       1.172   2.336   1.966  1.00  0.00    -0.259 OA
HETATM   27  C17 UNK     1       3.106   2.890  -3.616  1.00  0.00     0.003 A 
HETATM   28  C16 UNK     1       3.226   1.527  -3.893  1.00  0.00     0.001 A 
ENDBRANCH   3  18
TORSDOF 10
