REMARK  5 active torsions:
REMARK  status: ('A' for Active; 'I' for Inactive)
REMARK    1  A    between atoms: C5_10  and  O1_1 
REMARK    2  A    between atoms: C7_12  and  O1_1 
REMARK    3  A    between atoms: C16_21  and  O2_2 
REMARK    4  A    between atoms: C8_13  and  O2_2 
REMARK    5  A    between atoms: C1_6  and  C5_10 
ROOT
HETATM    1  O3  UNK     1      -0.897   1.465  -0.334  1.00  0.00    -0.319 OA
HETATM    2  O5  UNK     1      -1.017  -2.365  -1.743  1.00  0.00    -0.284 OA
HETATM    3  C7  UNK     1       2.180   1.478  -2.289  1.00  0.00     0.082 A 
HETATM    4  C9  UNK     1       0.122  -0.295  -1.667  1.00  0.00     0.051 A 
HETATM    5  C11 UNK     1       0.104   1.003  -1.152  1.00  0.00     0.092 A 
HETATM    6  C13 UNK     1       1.134   1.891  -1.463  1.00  0.00     0.075 A 
HETATM    7  C16 UNK     1      -2.029  -0.669  -0.439  1.00  0.00     0.149 A 
HETATM    8  C17 UNK     1      -0.977  -1.217  -1.324  1.00  0.00     0.220 A 
HETATM    9  C18 UNK     1       2.196   0.181  -2.804  1.00  0.00     0.038 A 
HETATM   10  C19 UNK     1       1.168  -0.711  -2.494  1.00  0.00     0.021 A 
HETATM   11  C22 UNK     1      -1.914   0.595  -0.022  1.00  0.00     0.184 A 
ENDROOT
BRANCH   7  12
HETATM   12  O2  UNK     1      -3.088  -1.465  -0.072  1.00  0.00    -0.304 OA
BRANCH  12  13
HETATM   13  C8  UNK     1      -3.260  -1.694   1.266  1.00  0.00     0.083 A 
HETATM   14  C14 UNK     1      -2.239  -2.316   1.980  1.00  0.00     0.044 A 
HETATM   15  C12 UNK     1      -2.395  -2.558   3.345  1.00  0.00    -0.059 A 
HETATM   16  C23 UNK     1      -1.304  -3.224   4.113  1.00  0.00     0.048 C 
HETATM   17  C15 UNK     1      -3.571  -2.178   3.990  1.00  0.00     0.014 A 
HETATM   18  C10 UNK     1      -4.592  -1.555   3.271  1.00  0.00    -0.053 A 
HETATM   19  C21 UNK     1      -5.842  -1.157   3.986  1.00  0.00     0.049 C 
HETATM   20  C6  UNK     1      -4.435  -1.313   1.906  1.00  0.00    -0.022 A 
HETATM   21  C20 UNK     1      -5.526  -0.646   1.130  1.00  0.00     0.052 C 
ENDBRANCH  12  13
ENDBRANCH   7  12
BRANCH   3  22
HETATM   22  O1  UNK     1       3.186   2.343  -2.595  1.00  0.00    -0.278 OA
BRANCH  22  23
HETATM   23  C5  UNK     1       4.273   2.315  -1.700  1.00  0.00     0.271 C 
HETATM   24  O4  UNK     1       4.342   1.585  -0.718  1.00  0.00    -0.264 OA
BRANCH  23  25
HETATM   25  C1  UNK     1       5.356   3.316  -2.120  1.00  0.00     0.037 C 
HETATM   26  C2  UNK     1       4.766   4.733  -2.133  1.00  0.00     0.025 C 
HETATM   27  C3  UNK     1       6.536   3.235  -1.142  1.00  0.00     0.025 C 
HETATM   28  C4  UNK     1       5.853   2.968  -3.532  1.00  0.00     0.025 C 
ENDBRANCH  23  25
ENDBRANCH  22  23
ENDBRANCH   3  22
TORSDOF 5
