REMARK  6 active torsions:
REMARK  status: ('A' for Active; 'I' for Inactive)
REMARK    1  A    between atoms: C1_6  and  O1_3 
REMARK    2  A    between atoms: C4_9  and  O1_3 
REMARK    3  A    between atoms: C3_8  and  O2_4 
REMARK    4  A    between atoms: C2_7  and  C9_14 
REMARK    5  A    between atoms: C4_9  and  C6_11 
REMARK    6  A    between atoms: C10_15  and  C11_16 
ROOT
HETATM    1  N1  UNK     1      -3.450   1.280   0.969  1.00  0.00    -0.191 NA
HETATM    2  C9  UNK     1      -1.980  -1.829   1.215  1.00  0.00     0.036 C 
HETATM    3  C10 UNK     1      -3.166  -1.243   1.529  1.00  0.00     0.055 C 
HETATM    4  C23 UNK     1      -3.314   0.154   1.216  1.00  0.00     0.100 C 
ENDROOT
BRANCH   3   5
HETATM    5  C11 UNK     1      -4.278  -1.946   2.150  1.00  0.00    -0.015 A 
HETATM    6  C16 UNK     1      -5.238  -2.575   1.357  1.00  0.00     0.013 A 
HETATM    7  C19 UNK     1      -6.302  -3.251   1.953  1.00  0.00     0.001 A 
HETATM    8  C21 UNK     1      -6.406  -3.298   3.343  1.00  0.00     0.000 A 
HETATM    9  C20 UNK     1      -5.447  -2.670   4.137  1.00  0.00     0.001 A 
HETATM   10  C17 UNK     1      -4.382  -1.994   3.540  1.00  0.00     0.013 A 
ENDBRANCH   3   5
BRANCH   2  11
HETATM   11  C2  UNK     1      -0.835  -1.160   0.582  1.00  0.00    -0.015 A 
HETATM   12  C5  UNK     1      -0.778  -1.178  -0.806  1.00  0.00     0.052 A 
HETATM   13  C3  UNK     1       0.287  -0.557  -1.460  1.00  0.00     0.102 A 
HETATM   14  C1  UNK     1       1.286   0.075  -0.720  1.00  0.00     0.103 A 
HETATM   15  C7  UNK     1       1.220   0.088   0.673  1.00  0.00     0.059 A 
HETATM   16  C8  UNK     1       0.155  -0.532   1.327  1.00  0.00     0.024 A 
HETATM   17 Br1  UNK     1       0.127  -0.478   3.226  1.00  0.00    -0.050 Br
BRANCH  13  18
HETATM   18  O2  UNK     1       0.340  -0.577  -2.821  1.00  0.00    -0.353 OA
HETATM   19  C22 UNK     1      -0.292   0.501  -3.509  1.00  0.00     0.210 C 
ENDBRANCH  13  18
BRANCH  14  20
HETATM   20  O1  UNK     1       2.331   0.684  -1.347  1.00  0.00    -0.344 OA
BRANCH  20  21
HETATM   21  C4  UNK     1       2.499   2.082  -1.118  1.00  0.00     0.214 C 
BRANCH  21  22
HETATM   22  C6  UNK     1       3.673   2.571  -1.913  1.00  0.00    -0.034 A 
HETATM   23  C12 UNK     1       4.943   2.554  -1.347  1.00  0.00     0.011 A 
HETATM   24  C14 UNK     1       6.035   3.008  -2.087  1.00  0.00     0.024 A 
HETATM   25  C18 UNK     1       5.850   3.476  -3.388  1.00  0.00     0.034 A 
HETATM   26  C15 UNK     1       4.573   3.491  -3.949  1.00  0.00     0.024 A 
HETATM   27 Cl1  UNK     1       7.197   4.036  -4.300  1.00  0.00    -0.084 Cl
HETATM   28  C13 UNK     1       3.481   3.037  -3.209  1.00  0.00     0.011 A 
ENDBRANCH  21  22
ENDBRANCH  20  21
ENDBRANCH  14  20
ENDBRANCH   2  11
TORSDOF 6
