REMARK  3 active torsions:
REMARK  status: ('A' for Active; 'I' for Inactive)
REMARK    1  A    between atoms: C10_15  and  O3_3 
REMARK    2  A    between atoms: C5_10  and  N1_5 
REMARK    3  A    between atoms: C5_10  and  C6_11 
ROOT
HETATM    1  O2  UNK     1      -0.376   0.718   0.990  1.00  0.00    -0.274 OA
HETATM    2  O4  UNK     1       0.628   1.297   2.961  1.00  0.00    -0.260 OA
HETATM    3  C6  UNK     1      -1.427   0.111  -1.065  1.00  0.00     0.038 A 
HETATM    4  C9  UNK     1      -1.304  -0.094   0.306  1.00  0.00     0.101 A 
HETATM    5  C10 UNK     1      -2.323  -0.655  -1.797  1.00  0.00     0.076 A 
HETATM    6  C11 UNK     1      -2.057  -1.055   0.982  1.00  0.00     0.005 A 
HETATM    7  C12 UNK     1      -3.089  -1.622  -1.149  1.00  0.00     0.038 A 
HETATM    8  C13 UNK     1      -2.958  -1.821   0.230  1.00  0.00     0.017 A 
HETATM    9  C14 UNK     1      -1.867  -1.208   2.431  1.00  0.00    -0.043 A 
HETATM   10  C15 UNK     1      -0.978  -0.422   3.055  1.00  0.00     0.090 A 
HETATM   11  C16 UNK     1      -0.176   0.596   2.356  1.00  0.00     0.288 A 
HETATM   12  C17 UNK     1      -2.662  -2.232   3.186  1.00  0.00     0.049 C 
ENDROOT
BRANCH   3  13
HETATM   13  C5  UNK     1      -0.597   1.155  -1.755  1.00  0.00     0.317 C 
BRANCH  13  14
HETATM   14  N1  UNK     1       0.800   1.112  -1.330  1.00  0.00     0.097 N 
HETATM   15  C1  UNK     1       1.396  -0.197  -1.630  1.00  0.00     0.304 C 
HETATM   16  C3  UNK     1       2.861  -0.246  -1.181  1.00  0.00     0.146 C 
HETATM   17  O1  UNK     1       3.601   0.831  -1.767  1.00  0.00    -0.378 OA
HETATM   18  C7  UNK     1       3.031  -0.281   0.337  1.00  0.00     0.041 C 
HETATM   19  C4  UNK     1       3.034   2.120  -1.513  1.00  0.00     0.146 C 
HETATM   20  C2  UNK     1       1.578   2.169  -1.991  1.00  0.00     0.304 C 
HETATM   21  C8  UNK     1       3.883   3.148  -2.251  1.00  0.00     0.041 C 
ENDBRANCH  13  14
ENDBRANCH   3  13
BRANCH   5  22
HETATM   22  O3  UNK     1      -2.468  -0.479  -3.140  1.00  0.00    -0.360 OA
HETATM   23  H21 UNK     1      -3.136  -1.103  -3.472  1.00  0.00     0.217 HD
ENDBRANCH   5  22
TORSDOF 3
