REMARK  2 active torsions:
REMARK  status: ('A' for Active; 'I' for Inactive)
REMARK    1  A    between atoms: C7_13  and  N2_5 
REMARK    2  A    between atoms: C1_7  and  C5_11 
ROOT
HETATM    1  O1  UNK     1      -1.444   0.529   2.437  1.00  0.00    -0.274 OA
HETATM    2  O2  UNK     1      -0.212   2.265   1.631  1.00  0.00    -0.259 OA
HETATM    3  N1  UNK     1      -1.513  -1.115  -1.429  1.00  0.00    -0.340 N 
HETATM    4  N3  UNK     1       0.685   1.860  -4.500  1.00  0.00    -0.191 NA
HETATM    5  C1  UNK     1      -0.004   1.238  -1.043  1.00  0.00     0.107 C 
HETATM    6  C2  UNK     1      -0.781   0.551   0.084  1.00  0.00     0.059 A 
HETATM    7  C3  UNK     1      -1.465  -0.586  -0.155  1.00  0.00     0.060 A 
HETATM    8  C4  UNK     1      -0.266   0.623  -2.429  1.00  0.00     0.079 C 
HETATM    9  C6  UNK     1      -2.175  -1.258   0.945  1.00  0.00     0.025 A 
HETATM   10  C7  UNK     1      -0.982  -0.525  -2.570  1.00  0.00     0.117 C 
HETATM   11  C8  UNK     1      -0.775   1.196   1.422  1.00  0.00     0.298 A 
HETATM   12  C9  UNK     1      -2.134  -0.676   2.212  1.00  0.00     0.092 A 
HETATM   13  C12 UNK     1      -2.890  -2.458   0.814  1.00  0.00     0.016 A 
HETATM   14  C13 UNK     1      -2.769  -1.242   3.320  1.00  0.00     0.038 A 
HETATM   15  C14 UNK     1       0.259   1.307  -3.574  1.00  0.00     0.100 C 
HETATM   16  C15 UNK     1      -3.533  -3.038   1.915  1.00  0.00     0.001 A 
HETATM   17  C18 UNK     1      -3.472  -2.431   3.166  1.00  0.00     0.003 A 
HETATM   18  H2  UNK     1      -2.035  -1.967  -1.588  1.00  0.00     0.167 HD
ENDROOT
BRANCH   5  19
HETATM   19  C5  UNK     1       1.469   1.210  -0.748  1.00  0.00    -0.044 A 
HETATM   20  C10 UNK     1       2.020   0.106  -0.108  1.00  0.00     0.009 A 
HETATM   21  C16 UNK     1       3.387   0.079   0.165  1.00  0.00     0.019 A 
HETATM   22  C19 UNK     1       4.193   1.156  -0.205  1.00  0.00     0.011 A 
HETATM   23 Br1  UNK     1       6.047   1.119   0.164  1.00  0.00    -0.051 Br
HETATM   24  C17 UNK     1       3.632   2.260  -0.847  1.00  0.00     0.019 A 
HETATM   25  C11 UNK     1       2.264   2.286  -1.119  1.00  0.00     0.009 A 
ENDBRANCH   5  19
BRANCH  10  26
HETATM   26  N2  UNK     1      -1.209  -1.111  -3.793  1.00  0.00    -0.384 N 
HETATM   27  H7  UNK     1      -0.839  -0.708  -4.644  1.00  0.00     0.157 HD
HETATM   28  H8  UNK     1      -1.755  -1.963  -3.830  1.00  0.00     0.157 HD
ENDBRANCH  10  26
TORSDOF 2
