REMARK  6 active torsions:
REMARK  status: ('A' for Active; 'I' for Inactive)
REMARK    1  A    between atoms: C10_19  and  O2_6 
REMARK    2  A    between atoms: C17_26  and  O2_6 
REMARK    3  A    between atoms: C9_18  and  O3_7 
REMARK    4  A    between atoms: C1_10  and  C6_15 
REMARK    5  A    between atoms: C11_20  and  C4_13 
REMARK    6  A    between atoms: C17_26  and  C18_27 
ROOT
HETATM    1  O1  UNK     1      -0.771   0.933   1.010  1.00  0.00    -0.304 OA
HETATM    2  O4  UNK     1      -2.840  -1.877  -1.080  1.00  0.00    -0.286 OA
HETATM    3  C1  UNK     1      -2.542  -0.714   0.974  1.00  0.00     0.067 A 
HETATM    4  C2  UNK     1      -1.119  -0.277  -1.059  1.00  0.00     0.049 A 
HETATM    5  C3  UNK     1      -0.450   0.672  -0.294  1.00  0.00     0.093 A 
HETATM    6  C4  UNK     1      -1.812   0.231   1.604  1.00  0.00     0.174 A 
HETATM    7  C5  UNK     1      -2.220  -1.032  -0.447  1.00  0.00     0.198 A 
HETATM    8  C7  UNK     1      -0.746  -0.502  -2.387  1.00  0.00     0.021 A 
HETATM    9  C8  UNK     1       0.600   1.403  -0.851  1.00  0.00     0.075 A 
HETATM   10  C10 UNK     1       0.976   1.182  -2.176  1.00  0.00     0.082 A 
HETATM   11  C13 UNK     1       0.304   0.230  -2.943  1.00  0.00     0.038 A 
ENDROOT
BRANCH  10  12
HETATM   12  O2  UNK     1       1.999   1.895  -2.721  1.00  0.00    -0.275 OA
BRANCH  12  13
HETATM   13  C17 UNK     1       3.224   1.734  -2.069  1.00  0.00     0.301 C 
HETATM   14  O5  UNK     1       3.424   1.023  -1.095  1.00  0.00    -0.259 OA
BRANCH  13  15
HETATM   15  C18 UNK     1       4.289   2.539  -2.719  1.00  0.00     0.078 A 
HETATM   16  C20 UNK     1       3.948   3.722  -3.343  1.00  0.00     0.132 A 
HETATM   17  F4  UNK     1       2.681   4.159  -3.377  1.00  0.00    -0.205 F 
HETATM   18  C22 UNK     1       4.952   4.476  -3.951  1.00  0.00     0.043 A 
HETATM   19  C24 UNK     1       6.273   4.031  -3.923  1.00  0.00     0.003 A 
HETATM   20  C23 UNK     1       6.592   2.832  -3.286  1.00  0.00     0.001 A 
HETATM   21  C21 UNK     1       5.589   2.078  -2.677  1.00  0.00     0.021 A 
ENDBRANCH  13  15
ENDBRANCH  12  13
ENDBRANCH  10  12
BRANCH   6  22
HETATM   22  C11 UNK     1      -2.016   0.659   3.031  1.00  0.00     0.440 C 
HETATM   23  F1  UNK     1      -3.026  -0.029   3.595  1.00  0.00    -0.164 F 
HETATM   24  F2  UNK     1      -0.904   0.441   3.759  1.00  0.00    -0.164 F 
HETATM   25  F3  UNK     1      -2.311   1.970   3.102  1.00  0.00    -0.164 F 
ENDBRANCH   6  22
BRANCH   3  26
HETATM   26  C6  UNK     1      -3.625  -1.428   1.636  1.00  0.00     0.014 A 
HETATM   27  C12 UNK     1      -4.916  -0.903   1.574  1.00  0.00     0.015 A 
HETATM   28  C15 UNK     1      -5.970  -1.569   2.201  1.00  0.00     0.001 A 
HETATM   29  C16 UNK     1      -5.733  -2.758   2.890  1.00  0.00     0.003 A 
HETATM   30  C14 UNK     1      -4.441  -3.281   2.953  1.00  0.00     0.037 A 
HETATM   31  C9  UNK     1      -3.388  -2.616   2.326  1.00  0.00     0.079 A 
BRANCH  31  32
HETATM   32  O3  UNK     1      -2.135  -3.150   2.402  1.00  0.00    -0.355 OA
HETATM   33  C19 UNK     1      -1.995  -4.368   3.129  1.00  0.00     0.210 C 
ENDBRANCH  31  32
ENDBRANCH   3  26
TORSDOF 6
