REMARK  4 active torsions:
REMARK  status: ('A' for Active; 'I' for Inactive)
REMARK    1  A    between atoms: C1_8  and  N1_6 
REMARK       I    between atoms: C9_16  and  N1_6 
REMARK    2  A    between atoms: C19_26  and  N2_7 
REMARK    3  A    between atoms: C1_8  and  C2_9 
REMARK    4  A    between atoms: C10_17  and  C9_16 
ROOT
HETATM    1  O1  UNK     1      -0.763  -0.022   2.163  1.00  0.00    -0.274 OA
HETATM    2  O3  UNK     1       0.787   1.062   0.881  1.00  0.00    -0.259 OA
HETATM    3  C10 UNK     1      -1.013   0.035  -0.269  1.00  0.00     0.108 A 
HETATM    4  C11 UNK     1      -2.654  -1.114   1.094  1.00  0.00     0.001 A 
HETATM    5  C13 UNK     1      -2.142  -0.679  -0.197  1.00  0.00     0.037 A 
HETATM    6  C14 UNK     1      -1.951  -0.775   2.245  1.00  0.00     0.089 A 
HETATM    7  C16 UNK     1      -0.249   0.408   0.943  1.00  0.00     0.304 A 
HETATM    8  C17 UNK     1      -3.828  -1.862   1.216  1.00  0.00     0.050 A 
HETATM    9  C18 UNK     1      -2.388  -1.160   3.511  1.00  0.00     0.041 A 
HETATM   10  C19 UNK     1      -4.278  -2.255   2.479  1.00  0.00     0.103 A 
HETATM   11  C20 UNK     1      -3.559  -1.905   3.624  1.00  0.00     0.039 A 
ENDROOT
BRANCH   3  12
HETATM   12  C9  UNK     1      -0.578   0.426  -1.615  1.00  0.00     0.258 C 
HETATM   13  O2  UNK     1      -1.395   0.614  -2.513  1.00  0.00    -0.267 OA
HETATM   14  N1  UNK     1       0.796   0.544  -1.723  1.00  0.00    -0.348 N 
HETATM   15  H3  UNK     1       1.381   0.303  -0.928  1.00  0.00     0.163 HD
BRANCH  14  16
HETATM   16  C1  UNK     1       1.462   0.915  -2.951  1.00  0.00     0.114 C 
HETATM   17  C5  UNK     1       1.704  -0.323  -3.812  1.00  0.00     0.037 C 
BRANCH  16  18
HETATM   18  C2  UNK     1       2.732   1.692  -2.680  1.00  0.00    -0.035 A 
HETATM   19  C3  UNK     1       3.773   1.071  -2.012  1.00  0.00     0.016 A 
HETATM   20  C4  UNK     1       4.944   1.787  -1.762  1.00  0.00    -0.056 A 
HETATM   21  C12 UNK     1       6.066   1.115  -1.041  1.00  0.00     0.049 C 
HETATM   22  C7  UNK     1       5.054   3.112  -2.184  1.00  0.00    -0.056 A 
HETATM   23  C15 UNK     1       6.298   3.899  -1.928  1.00  0.00     0.049 C 
HETATM   24  C8  UNK     1       3.994   3.721  -2.855  1.00  0.00     0.008 A 
HETATM   25  C6  UNK     1       2.824   3.005  -3.105  1.00  0.00     0.010 A 
ENDBRANCH  16  18
ENDBRANCH  14  16
ENDBRANCH   3  12
BRANCH  10  26
HETATM   26  N2  UNK     1      -5.472  -3.015   2.600  1.00  0.00    -0.116 N 
HETATM   27  O4  UNK     1      -5.860  -3.360   3.742  1.00  0.00    -0.532 OA
HETATM   28  O5  UNK     1      -6.105  -3.321   1.561  1.00  0.00    -0.532 OA
ENDBRANCH  10  26
TORSDOF 4
