REMARK  3 active torsions:
REMARK  status: ('A' for Active; 'I' for Inactive)
REMARK    1  A    between atoms: C7_10  and  O1_2 
REMARK    2  A    between atoms: C1_4  and  C3_6 
REMARK    3  A    between atoms: C2_5  and  C4_7 
ROOT
HETATM    1  N1  UNK     1       1.329  -2.101  -0.112  1.00  0.00    -0.191 NA
HETATM    2  C3  UNK     1      -0.338   0.884  -0.150  1.00  0.00     0.034 C 
HETATM    3  C4  UNK     1      -0.569  -0.372   0.236  1.00  0.00     0.055 C 
HETATM    4  C15 UNK     1       0.480  -1.326   0.043  1.00  0.00     0.100 C 
ENDROOT
BRANCH   3   5
HETATM    5  C2  UNK     1      -1.832  -0.852   0.833  1.00  0.00    -0.015 A 
HETATM    6  C10 UNK     1      -1.982  -0.825   2.208  1.00  0.00     0.014 A 
HETATM    7  C12 UNK     1      -3.174  -1.278   2.772  1.00  0.00     0.020 A 
HETATM    8  C14 UNK     1      -4.198  -1.752   1.952  1.00  0.00     0.011 A 
HETATM    9 Br1  UNK     1      -5.814  -2.366   2.716  1.00  0.00    -0.051 Br
HETATM   10  C13 UNK     1      -4.029  -1.772   0.567  1.00  0.00     0.020 A 
HETATM   11  C11 UNK     1      -2.836  -1.319   0.003  1.00  0.00     0.014 A 
ENDBRANCH   3   5
BRANCH   2  12
HETATM   12  C1  UNK     1       0.911   1.325  -0.750  1.00  0.00    -0.035 A 
HETATM   13  C5  UNK     1       1.958   1.764   0.061  1.00  0.00     0.014 A 
HETATM   14  C8  UNK     1       3.156   2.187  -0.514  1.00  0.00     0.037 A 
HETATM   15  C7  UNK     1       3.307   2.172  -1.900  1.00  0.00     0.068 A 
HETATM   16  C9  UNK     1       2.261   1.734  -2.712  1.00  0.00     0.037 A 
HETATM   17  C6  UNK     1       1.063   1.310  -2.136  1.00  0.00     0.014 A 
BRANCH  15  18
HETATM   18  O1  UNK     1       4.476   2.586  -2.461  1.00  0.00    -0.356 OA
HETATM   19  C16 UNK     1       4.564   2.544  -3.885  1.00  0.00     0.210 C 
ENDBRANCH  15  18
ENDBRANCH   2  12
TORSDOF 3
