REMARK  8 active torsions:
REMARK  status: ('A' for Active; 'I' for Inactive)
REMARK    1  A    between atoms: C6_10  and  O1_1 
REMARK    2  A    between atoms: C3_7  and  N1_4 
REMARK       I    between atoms: C7_11  and  N1_4 
REMARK    3  A    between atoms: C1_5  and  C2_6 
REMARK    4  A    between atoms: C2_6  and  C3_7 
REMARK    5  A    between atoms: C3_7  and  C6_10 
REMARK    6  A    between atoms: C7_11  and  C8_12 
REMARK    7  A    between atoms: C8_12  and  C9_13 
REMARK    8  A    between atoms: C10_14  and  C11_15 
ROOT
HETATM    1  C8  UNK     1       0.623  -0.031  -0.803  1.00  0.00     0.043 C 
HETATM    2  C10 UNK     1       1.114  -0.063  -2.060  1.00  0.00     0.029 C 
ENDROOT
BRANCH   1   3
HETATM    3  C7  UNK     1      -0.452  -1.040  -0.486  1.00  0.00     0.253 C 
HETATM    4  O3  UNK     1      -0.510  -2.125  -1.062  1.00  0.00    -0.268 OA
HETATM    5  N1  UNK     1      -1.352  -0.633   0.489  1.00  0.00    -0.343 N 
HETATM    6  H11 UNK     1      -1.245   0.269   0.941  1.00  0.00     0.163 HD
BRANCH   5   7
HETATM    7  C3  UNK     1      -2.451  -1.458   0.919  1.00  0.00     0.185 C 
BRANCH   7   8
HETATM    8  C2  UNK     1      -3.805  -0.761   0.762  1.00  0.00     0.039 C 
BRANCH   8   9
HETATM    9  C1  UNK     1      -4.204  -0.445  -0.693  1.00  0.00    -0.020 C 
HETATM   10  C4  UNK     1      -4.215  -1.736  -1.518  1.00  0.00     0.009 C 
HETATM   11  C5  UNK     1      -5.569   0.238  -0.788  1.00  0.00     0.009 C 
ENDBRANCH   8   9
ENDBRANCH   7   8
BRANCH   7  12
HETATM   12  C6  UNK     1      -2.198  -1.781   2.379  1.00  0.00     0.281 C 
HETATM   13  O2  UNK     1      -1.288  -1.317   3.053  1.00  0.00    -0.263 OA
BRANCH  12  14
HETATM   14  O1  UNK     1      -3.114  -2.703   2.801  1.00  0.00    -0.325 OA
HETATM   15  C14 UNK     1      -2.966  -3.144   4.155  1.00  0.00     0.213 C 
ENDBRANCH  12  14
ENDBRANCH   7  12
ENDBRANCH   5   7
ENDBRANCH   1   3
BRANCH   1  16
HETATM   16  C9  UNK     1       1.123   0.919   0.210  1.00  0.00    -0.021 A 
HETATM   17  C12 UNK     1       0.519   2.159   0.329  1.00  0.00     0.012 A 
HETATM   18  C15 UNK     1       0.991   3.057   1.286  1.00  0.00     0.001 A 
HETATM   19  C19 UNK     1       2.059   2.702   2.109  1.00  0.00     0.000 A 
HETATM   20  C16 UNK     1       2.655   1.448   1.976  1.00  0.00     0.001 A 
HETATM   21  C13 UNK     1       2.183   0.549   1.019  1.00  0.00     0.012 A 
ENDBRANCH   1  16
BRANCH   2  22
HETATM   22  C11 UNK     1       2.183   0.799  -2.587  1.00  0.00    -0.035 A 
HETATM   23  C17 UNK     1       1.855   2.020  -3.157  1.00  0.00     0.011 A 
HETATM   24  C20 UNK     1       2.869   2.837  -3.657  1.00  0.00     0.001 A 
HETATM   25  C22 UNK     1       4.198   2.423  -3.582  1.00  0.00     0.000 A 
HETATM   26  C21 UNK     1       4.515   1.193  -3.005  1.00  0.00     0.001 A 
HETATM   27  C18 UNK     1       3.501   0.376  -2.505  1.00  0.00     0.011 A 
ENDBRANCH   2  22
TORSDOF 8
