REMARK  5 active torsions:
REMARK  status: ('A' for Active; 'I' for Inactive)
REMARK    1  A    between atoms: C5_12  and  N1_5 
REMARK    2  A    between atoms: C6_13  and  N2_6 
REMARK    3  A    between atoms: C17_24  and  N3_7 
REMARK       I    between atoms: C9_16  and  N3_7 
REMARK    4  A    between atoms: C5_12  and  C7_14 
REMARK    5  A    between atoms: C6_13  and  C9_16 
ROOT
HETATM    1  N1  UNK     1       1.122  -0.199  -1.805  1.00  0.00     0.096 N 
HETATM    2  N2  UNK     1      -1.465  -1.241  -1.042  1.00  0.00     0.100 N 
HETATM    3  C1  UNK     1       0.856  -0.650  -0.434  1.00  0.00     0.303 C 
HETATM    4  C2  UNK     1       0.286  -0.939  -2.759  1.00  0.00     0.303 C 
HETATM    5  C3  UNK     1      -0.630  -0.500  -0.089  1.00  0.00     0.303 C 
HETATM    6  C4  UNK     1      -1.200  -0.790  -2.413  1.00  0.00     0.303 C 
ENDROOT
BRANCH   1   7
HETATM    7  C5  UNK     1       2.538  -0.346  -2.134  1.00  0.00     0.312 C 
BRANCH   7   8
HETATM    8  C7  UNK     1       3.371   0.728  -1.524  1.00  0.00    -0.011 A 
HETATM    9  C10 UNK     1       3.909   0.580  -0.306  1.00  0.00     0.092 A 
HETATM   10  C13 UNK     1       4.738   1.613   0.337  1.00  0.00     0.288 A 
HETATM   11  O1  UNK     1       4.950   2.779  -0.382  1.00  0.00    -0.275 OA
HETATM   12  O3  UNK     1       5.214   1.442   1.454  1.00  0.00    -0.260 OA
HETATM   13  C11 UNK     1       4.398   2.963  -1.666  1.00  0.00     0.090 A 
HETATM   14  C8  UNK     1       3.613   1.975  -2.262  1.00  0.00     0.006 A 
HETATM   15  C14 UNK     1       4.677   4.177  -2.297  1.00  0.00     0.045 A 
HETATM   16  C12 UNK     1       3.101   2.236  -3.540  1.00  0.00     0.015 A 
HETATM   17  C16 UNK     1       3.372   3.447  -4.186  1.00  0.00     0.007 A 
HETATM   18  C15 UNK     1       4.159   4.416  -3.566  1.00  0.00    -0.059 A 
HETATM   19  C18 UNK     1       4.444   5.704  -4.260  1.00  0.00     0.048 C 
ENDBRANCH   7   8
ENDBRANCH   1   7
BRANCH   2  20
HETATM   20  C6  UNK     1      -2.881  -1.097  -0.712  1.00  0.00     0.375 C 
BRANCH  20  21
HETATM   21  C9  UNK     1      -3.220  -1.993   0.466  1.00  0.00     0.250 C 
HETATM   22  O2  UNK     1      -2.630  -3.045   0.688  1.00  0.00    -0.271 OA
HETATM   23  N3  UNK     1      -4.257  -1.437   1.212  1.00  0.00    -0.326 N 
HETATM   24  H15 UNK     1      -4.647  -0.552   0.894  1.00  0.00     0.169 HD
BRANCH  23  25
HETATM   25  C17 UNK     1      -4.859  -1.962   2.381  1.00  0.00     0.036 A 
HETATM   26  C19 UNK     1      -5.894  -1.267   3.006  1.00  0.00     0.053 A 
HETATM   27  C21 UNK     1      -6.486  -1.785   4.158  1.00  0.00     0.036 A 
HETATM   28 Cl1  UNK     1      -7.763  -0.928   4.930  1.00  0.00    -0.084 Cl
HETATM   29  C23 UNK     1      -6.042  -2.999   4.684  1.00  0.00     0.024 A 
HETATM   30  C22 UNK     1      -5.007  -3.693   4.059  1.00  0.00     0.004 A 
HETATM   31  C20 UNK     1      -4.415  -3.175   2.907  1.00  0.00     0.029 A 
ENDBRANCH  23  25
ENDBRANCH  20  21
ENDBRANCH   2  20
TORSDOF 5
