REMARK  9 active torsions:
REMARK  status: ('A' for Active; 'I' for Inactive)
REMARK    1  A    between atoms: C10_15  and  O1_2 
REMARK    2  A    between atoms: C3_8  and  O1_2 
REMARK    3  A    between atoms: C13_18  and  O2_3 
REMARK    4  A    between atoms: C23_28  and  O4_5 
REMARK    5  A    between atoms: C1_6  and  C2_7 
REMARK    6  A    between atoms: C10_15  and  C11_16 
REMARK    7  A    between atoms: C15_20  and  C18_23 
REMARK    8  A    between atoms: C19_24  and  C20_25 
REMARK    9  A    between atoms: C20_25  and  C22_27 
ROOT
HETATM    1  C11 UNK     1       0.779   2.500  -1.201  1.00  0.00     0.000 A 
HETATM    2  C13 UNK     1       2.097   2.548  -1.656  1.00  0.00     0.076 A 
HETATM    3  C14 UNK     1       0.510   2.569   0.166  1.00  0.00     0.023 A 
HETATM    4  C15 UNK     1       1.559   2.687   1.078  1.00  0.00    -0.035 A 
HETATM    5  C16 UNK     1       3.146   2.666  -0.743  1.00  0.00     0.038 A 
HETATM    6  C17 UNK     1       2.877   2.735   0.624  1.00  0.00     0.014 A 
ENDROOT
BRANCH   1   7
HETATM    7  C10 UNK     1      -0.355   2.374  -2.163  1.00  0.00     0.217 C 
BRANCH   7   8
HETATM    8  O1  UNK     1      -0.210   1.172  -2.908  1.00  0.00    -0.346 OA
BRANCH   8   9
HETATM    9  C3  UNK     1      -0.827   0.056  -2.405  1.00  0.00     0.076 A 
HETATM   10  C2  UNK     1      -0.086  -1.076  -2.065  1.00  0.00    -0.020 A 
HETATM   11  C6  UNK     1      -0.730  -2.203  -1.554  1.00  0.00     0.034 A 
HETATM   12  C9  UNK     1      -2.115  -2.197  -1.382  1.00  0.00     0.040 A 
HETATM   13  C8  UNK     1      -2.855  -1.065  -1.722  1.00  0.00    -0.038 A 
HETATM   14 Cl1  UNK     1      -2.877  -3.609  -0.745  1.00  0.00    -0.084 Cl
HETATM   15  C12 UNK     1      -4.339  -1.019  -1.552  1.00  0.00     0.050 C 
HETATM   16  C7  UNK     1      -2.211   0.061  -2.234  1.00  0.00     0.045 A 
BRANCH  10  17
HETATM   17  C1  UNK     1       1.396  -1.099  -2.242  1.00  0.00     0.013 C 
HETATM   18  C4  UNK     1       1.851  -2.174  -3.246  1.00  0.00     0.015 C 
HETATM   19  C5  UNK     1       2.143  -1.278  -0.907  1.00  0.00     0.015 C 
ENDBRANCH  10  17
ENDBRANCH   8   9
ENDBRANCH   7   8
ENDBRANCH   1   7
BRANCH   2  20
HETATM   20  O2  UNK     1       2.378   2.481  -2.987  1.00  0.00    -0.355 OA
HETATM   21  C21 UNK     1       3.753   2.538  -3.363  1.00  0.00     0.210 C 
ENDBRANCH   2  20
BRANCH   4  22
HETATM   22  C18 UNK     1       1.278   2.759   2.504  1.00  0.00     0.015 C 
HETATM   23  C19 UNK     1       0.642   1.806   3.222  1.00  0.00     0.056 C 
BRANCH  23  24
HETATM   24  C20 UNK     1       0.165   0.559   2.561  1.00  0.00     0.184 C 
HETATM   25  O3  UNK     1       0.922  -0.217   1.989  1.00  0.00    -0.287 OA
BRANCH  24  26
HETATM   26  C22 UNK     1      -1.283   0.250   2.640  1.00  0.00     0.047 A 
HETATM   27  C23 UNK     1      -1.735  -1.069   2.637  1.00  0.00     0.079 A 
HETATM   28  C25 UNK     1      -3.102  -1.339   2.711  1.00  0.00     0.037 A 
HETATM   29  C27 UNK     1      -4.017  -0.289   2.788  1.00  0.00     0.003 A 
HETATM   30  C26 UNK     1      -3.565   1.031   2.791  1.00  0.00     0.001 A 
HETATM   31  C24 UNK     1      -2.198   1.301   2.717  1.00  0.00     0.018 A 
BRANCH  27  32
HETATM   32  O4  UNK     1      -0.857  -2.109   2.564  1.00  0.00    -0.360 OA
HETATM   33  H27 UNK     1      -1.354  -2.945   2.566  1.00  0.00     0.217 HD
ENDBRANCH  27  32
ENDBRANCH  24  26
ENDBRANCH  23  24
ENDBRANCH   4  22
TORSDOF 9
