REMARK  3 active torsions:
REMARK  status: ('A' for Active; 'I' for Inactive)
REMARK    1  A    between atoms: C9_17  and  N1_5 
REMARK       I    between atoms: C12_20  and  N2_6 
REMARK    2  A    between atoms: C3_11  and  N2_6 
REMARK    3  A    between atoms: C12_20  and  C8_16 
ROOT
HETATM    1  N1  UNK     1      -3.342  -1.541   1.936  1.00  0.00    -0.150 N 
HETATM    2  N3  UNK     1      -2.803  -1.378   0.725  1.00  0.00    -0.147 NA
HETATM    3  N4  UNK     1      -2.704  -1.063   3.007  1.00  0.00    -0.147 NA
HETATM    4  C1  UNK     1      -1.670  -0.713   1.006  1.00  0.00     0.111 A 
HETATM    5  C2  UNK     1      -1.607  -0.512   2.461  1.00  0.00     0.109 A 
HETATM    6  C3  UNK     1       0.385   0.410   0.795  1.00  0.00     0.037 A 
HETATM    7  C4  UNK     1      -0.662  -0.249   0.140  1.00  0.00     0.065 A 
HETATM    8  C5  UNK     1      -0.535   0.157   3.080  1.00  0.00     0.038 A 
HETATM    9  C7  UNK     1       0.458   0.610   2.191  1.00  0.00     0.032 A 
ENDROOT
BRANCH   6  10
HETATM   10  N2  UNK     1       1.444   0.911   0.001  1.00  0.00    -0.323 N 
HETATM   11  C12 UNK     1       1.583   0.832  -1.375  1.00  0.00     0.262 C 
HETATM   12  O2  UNK     1       0.838   0.321  -2.209  1.00  0.00    -0.267 OA
HETATM   13  H4  UNK     1       2.166   1.396   0.528  1.00  0.00     0.169 HD
BRANCH  11  14
HETATM   14  C8  UNK     1       2.814   1.461  -1.868  1.00  0.00     0.108 A 
HETATM   15  C10 UNK     1       2.760   1.982  -3.099  1.00  0.00     0.037 A 
HETATM   16  C6  UNK     1       3.931   2.626  -3.675  1.00  0.00    -0.001 A 
HETATM   17  C11 UNK     1       5.100   2.691  -2.925  1.00  0.00     0.089 A 
HETATM   18  C14 UNK     1       3.920   3.183  -4.956  1.00  0.00     0.014 A 
HETATM   19  O1  UNK     1       5.151   2.141  -1.629  1.00  0.00    -0.274 OA
HETATM   20  C15 UNK     1       6.256   3.294  -3.418  1.00  0.00     0.038 A 
HETATM   21  C13 UNK     1       4.048   1.519  -1.052  1.00  0.00     0.304 A 
HETATM   22  O3  UNK     1       4.101   1.042   0.077  1.00  0.00    -0.259 OA
HETATM   23  C19 UNK     1       6.236   3.847  -4.696  1.00  0.00     0.003 A 
HETATM   24  C18 UNK     1       5.071   3.791  -5.464  1.00  0.00     0.001 A 
ENDBRANCH  11  14
ENDBRANCH   6  10
BRANCH   1  25
HETATM   25  C9  UNK     1      -4.559  -2.204   2.080  1.00  0.00     0.079 A 
HETATM   26  C16 UNK     1      -5.211  -2.696   0.956  1.00  0.00     0.036 A 
HETATM   27  C20 UNK     1      -6.430  -3.359   1.100  1.00  0.00     0.044 A 
HETATM   28  C22 UNK     1      -6.987  -3.526   2.368  1.00  0.00     0.116 A 
HETATM   29  C21 UNK     1      -6.326  -3.029   3.491  1.00  0.00     0.044 A 
HETATM   30  F1  UNK     1      -8.157  -4.164   2.507  1.00  0.00    -0.206 F 
HETATM   31  C17 UNK     1      -5.107  -2.366   3.347  1.00  0.00     0.036 A 
ENDBRANCH   1  25
TORSDOF 3
