REMARK  6 active torsions:
REMARK  status: ('A' for Active; 'I' for Inactive)
REMARK    1  A    between atoms: C2_6  and  O1_2 
REMARK    2  A    between atoms: C5_9  and  O1_2 
REMARK    3  A    between atoms: C3_7  and  O2_3 
REMARK    4  A    between atoms: C1_5  and  C9_13 
REMARK    5  A    between atoms: C5_9  and  C8_12 
REMARK    6  A    between atoms: C10_14  and  C11_15 
ROOT
HETATM    1  N1  UNK     1      -0.779  -3.185   0.484  1.00  0.00    -0.191 NA
HETATM    2  C9  UNK     1      -2.324  -0.194   1.231  1.00  0.00     0.036 C 
HETATM    3  C10 UNK     1      -2.612  -1.522   1.281  1.00  0.00     0.055 C 
HETATM    4  C23 UNK     1      -1.591  -2.435   0.838  1.00  0.00     0.100 C 
ENDROOT
BRANCH   3   5
HETATM    5  C11 UNK     1      -3.876  -2.059   1.760  1.00  0.00    -0.015 A 
HETATM    6  C14 UNK     1      -4.038  -2.364   3.111  1.00  0.00     0.013 A 
HETATM    7  C19 UNK     1      -5.250  -2.879   3.570  1.00  0.00     0.001 A 
HETATM    8  C21 UNK     1      -6.301  -3.088   2.677  1.00  0.00     0.000 A 
HETATM    9  C20 UNK     1      -6.140  -2.783   1.326  1.00  0.00     0.001 A 
HETATM   10  C15 UNK     1      -4.928  -2.268   0.867  1.00  0.00     0.013 A 
ENDBRANCH   3   5
BRANCH   2  11
HETATM   11  C1  UNK     1      -1.059   0.391   0.763  1.00  0.00    -0.015 A 
HETATM   12  C4  UNK     1      -0.962   0.688  -0.591  1.00  0.00     0.052 A 
HETATM   13  C3  UNK     1       0.216   1.245  -1.091  1.00  0.00     0.102 A 
HETATM   14  C2  UNK     1       1.285   1.500  -0.233  1.00  0.00     0.103 A 
HETATM   15  C7  UNK     1       1.178   1.199   1.125  1.00  0.00     0.059 A 
HETATM   16  C6  UNK     1       0.000   0.642   1.625  1.00  0.00     0.024 A 
HETATM   17 Br1  UNK     1      -0.080   0.256   3.483  1.00  0.00    -0.050 Br
BRANCH  13  18
HETATM   18  O2  UNK     1       0.309   1.535  -2.419  1.00  0.00    -0.353 OA
HETATM   19  C22 UNK     1      -0.829   1.243  -3.227  1.00  0.00     0.210 C 
ENDBRANCH  13  18
BRANCH  14  20
HETATM   20  O1  UNK     1       2.440   2.044  -0.709  1.00  0.00    -0.344 OA
BRANCH  20  21
HETATM   21  C5  UNK     1       3.446   1.139  -1.158  1.00  0.00     0.214 C 
BRANCH  21  22
HETATM   22  C8  UNK     1       4.262   1.804  -2.227  1.00  0.00    -0.034 A 
HETATM   23  C12 UNK     1       3.879   1.685  -3.559  1.00  0.00     0.009 A 
HETATM   24  C16 UNK     1       4.637   2.303  -4.553  1.00  0.00     0.001 A 
HETATM   25  C18 UNK     1       5.772   3.037  -4.210  1.00  0.00     0.000 A 
HETATM   26  C17 UNK     1       6.150   3.152  -2.872  1.00  0.00     0.001 A 
HETATM   27  C13 UNK     1       5.393   2.533  -1.878  1.00  0.00     0.009 A 
ENDBRANCH  21  22
ENDBRANCH  20  21
ENDBRANCH  14  20
ENDBRANCH   2  11
TORSDOF 6
