REMARK  7 active torsions:
REMARK  status: ('A' for Active; 'I' for Inactive)
REMARK    1  A    between atoms: C18_27  and  O5_5 
REMARK    2  A    between atoms: C21_30  and  O6_6 
REMARK    3  A    between atoms: C34_43  and  O7_7 
REMARK       I    between atoms: C12_21  and  N2_9 
REMARK    4  A    between atoms: C24_33  and  N2_9 
REMARK    5  A    between atoms: C1_10  and  C9_18 
REMARK    6  A    between atoms: C11_20  and  C4_13 
REMARK    7  A    between atoms: C12_21  and  C8_17 
ROOT
HETATM    1  O1  UNK     1      -2.445   2.091   0.275  1.00  0.00    -0.293 OA
HETATM    2  N1  UNK     1       0.718  -1.134   1.703  1.00  0.00    -0.362 N 
HETATM    3  C1  UNK     1      -3.023  -1.303   1.384  1.00  0.00     0.031 C 
HETATM    4  C2  UNK     1      -1.670  -1.581   2.055  1.00  0.00     0.067 C 
HETATM    5  C3  UNK     1      -0.814   0.476   0.883  1.00  0.00     0.024 C 
HETATM    6  C4  UNK     1       0.329   1.308   0.312  1.00  0.00     0.104 C 
HETATM    7  C5  UNK     1      -0.578  -0.692   1.516  1.00  0.00     0.021 C 
HETATM    8  C6  UNK     1      -3.331   0.195   1.423  1.00  0.00     0.093 C 
HETATM    9  C7  UNK     1      -2.214   0.999   0.792  1.00  0.00     0.159 C 
HETATM   10  C8  UNK     1       1.706   0.778   0.717  1.00  0.00     0.045 C 
HETATM   11  C10 UNK     1       1.846  -0.405   1.359  1.00  0.00     0.018 C 
HETATM   12  C15 UNK     1       3.155  -1.034   1.753  1.00  0.00     0.069 C 
HETATM   13  H7  UNK     1       0.854  -2.015   2.186  1.00  0.00     0.165 HD
ENDROOT
BRANCH  10  14
HETATM   14  C12 UNK     1       2.858   1.644   0.420  1.00  0.00     0.255 C 
HETATM   15  O3  UNK     1       3.203   2.494   1.236  1.00  0.00    -0.268 OA
HETATM   16  N2  UNK     1       3.419   1.356  -0.815  1.00  0.00    -0.323 N 
HETATM   17  H15 UNK     1       3.004   0.603  -1.360  1.00  0.00     0.169 HD
BRANCH  16  18
HETATM   18  C24 UNK     1       4.533   1.985  -1.421  1.00  0.00     0.035 A 
HETATM   19  C28 UNK     1       5.178   3.011  -0.752  1.00  0.00     0.032 A 
HETATM   20  C32 UNK     1       6.276   3.630  -1.349  1.00  0.00     0.039 A 
HETATM   21  C34 UNK     1       6.713   3.213  -2.606  1.00  0.00     0.068 A 
HETATM   22  C33 UNK     1       6.052   2.178  -3.266  1.00  0.00     0.039 A 
HETATM   23  C29 UNK     1       4.954   1.559  -2.670  1.00  0.00     0.032 A 
BRANCH  21  24
HETATM   24  O7  UNK     1       7.784   3.818  -3.189  1.00  0.00    -0.356 OA
HETATM   25  C35 UNK     1       8.413   4.870  -2.458  1.00  0.00     0.210 C 
ENDBRANCH  21  24
ENDBRANCH  16  18
ENDBRANCH  10  14
BRANCH   6  26
HETATM   26  C11 UNK     1       0.222   1.381  -1.188  1.00  0.00     0.029 A 
HETATM   27  C16 UNK     1       0.320   0.121  -1.967  1.00  0.00     0.194 A 
HETATM   28  O4  UNK     1       0.482  -0.966  -1.430  1.00  0.00    -0.287 OA
HETATM   29  C19 UNK     1       0.211   0.249  -3.433  1.00  0.00     0.048 A 
HETATM   30  C22 UNK     1       0.026   1.515  -3.991  1.00  0.00     0.089 A 
HETATM   31  C23 UNK     1       0.290  -0.878  -4.254  1.00  0.00     0.018 A 
HETATM   32  O2  UNK     1      -0.060   2.655  -3.232  1.00  0.00    -0.321 OA
HETATM   33  C25 UNK     1      -0.080   1.659  -5.375  1.00  0.00     0.038 A 
HETATM   34  C17 UNK     1       0.045   2.520  -1.870  1.00  0.00     0.154 A 
HETATM   35  C27 UNK     1      -0.001   0.535  -6.197  1.00  0.00     0.003 A 
HETATM   36  C26 UNK     1       0.183  -0.730  -5.638  1.00  0.00     0.001 A 
ENDBRANCH   6  26
BRANCH   3  37
HETATM   37  C9  UNK     1      -4.138  -2.134   1.989  1.00  0.00    -0.050 A 
HETATM   38  C13 UNK     1      -4.477  -1.971   3.330  1.00  0.00     0.047 A 
HETATM   39  C18 UNK     1      -5.503  -2.736   3.886  1.00  0.00     0.102 A 
HETATM   40  C21 UNK     1      -6.188  -3.661   3.099  1.00  0.00     0.101 A 
HETATM   41  C20 UNK     1      -5.847  -3.823   1.756  1.00  0.00     0.040 A 
HETATM   42  C14 UNK     1      -4.821  -3.058   1.200  1.00  0.00     0.010 A 
BRANCH  39  43
HETATM   43  O5  UNK     1      -5.827  -2.569   5.199  1.00  0.00    -0.353 OA
HETATM   44  C30 UNK     1      -6.822  -1.594   5.502  1.00  0.00     0.210 C 
ENDBRANCH  39  43
BRANCH  40  45
HETATM   45  O6  UNK     1      -7.191  -4.414   3.631  1.00  0.00    -0.353 OA
HETATM   46  C31 UNK     1      -6.827  -5.668   4.205  1.00  0.00     0.210 C 
ENDBRANCH  40  45
ENDBRANCH   3  37
TORSDOF 7
