REMARK  3 active torsions:
REMARK  status: ('A' for Active; 'I' for Inactive)
REMARK    1  A    between atoms: C15_21  and  O2_2 
REMARK    2  A    between atoms: C9_15  and  N1_6 
REMARK    3  A    between atoms: C2_8  and  C5_11 
ROOT
HETATM    1  O1  UNK     1       1.727   0.871   1.444  1.00  0.00    -0.274 OA
HETATM    2  O3  UNK     1       0.216   0.005   2.916  1.00  0.00    -0.259 OA
HETATM    3  C1  UNK     1       1.258   0.833  -0.938  1.00  0.00     0.001 A 
HETATM    4  C2  UNK     1      -0.356  -0.128   0.610  1.00  0.00     0.051 A 
HETATM    5  C3  UNK     1       2.094   1.173   0.119  1.00  0.00     0.089 A 
HETATM    6  C4  UNK     1       0.003   0.158  -0.651  1.00  0.00     0.032 A 
HETATM    7  C6  UNK     1       1.654   1.149  -2.240  1.00  0.00     0.050 A 
HETATM    8  C7  UNK     1       0.526   0.238   1.752  1.00  0.00     0.299 A 
HETATM    9  C8  UNK     1       3.312   1.818  -0.086  1.00  0.00     0.041 A 
HETATM   10  C9  UNK     1       2.873   1.797  -2.462  1.00  0.00     0.103 A 
HETATM   11  C12 UNK     1       3.700   2.131  -1.387  1.00  0.00     0.039 A 
ENDROOT
BRANCH   4  12
HETATM   12  C5  UNK     1      -1.632  -0.828   0.849  1.00  0.00    -0.020 A 
HETATM   13  C10 UNK     1      -1.666  -2.222   0.884  1.00  0.00     0.015 A 
HETATM   14  C13 UNK     1      -2.873  -2.884   1.109  1.00  0.00     0.037 A 
HETATM   15  C15 UNK     1      -4.045  -2.152   1.300  1.00  0.00     0.068 A 
HETATM   16  C14 UNK     1      -4.010  -0.758   1.266  1.00  0.00     0.037 A 
HETATM   17  C11 UNK     1      -2.803  -0.096   1.040  1.00  0.00     0.015 A 
BRANCH  15  18
HETATM   18  O2  UNK     1      -5.222  -2.798   1.522  1.00  0.00    -0.356 OA
HETATM   19  C16 UNK     1      -6.382  -1.989   1.709  1.00  0.00     0.210 C 
ENDBRANCH  15  18
ENDBRANCH   4  12
BRANCH  10  20
HETATM   20  N1  UNK     1       3.272   2.118  -3.787  1.00  0.00    -0.116 N 
HETATM   21  O4  UNK     1       4.369   2.699  -3.967  1.00  0.00    -0.532 OA
HETATM   22  O5  UNK     1       2.517   1.810  -4.741  1.00  0.00    -0.532 OA
ENDBRANCH  10  20
TORSDOF 3
