REMARK  6 active torsions:
REMARK  status: ('A' for Active; 'I' for Inactive)
REMARK    1  A    between atoms: C1_6  and  O1_3 
REMARK    2  A    between atoms: C4_9  and  O1_3 
REMARK    3  A    between atoms: C3_8  and  O2_4 
REMARK    4  A    between atoms: C2_7  and  C9_14 
REMARK    5  A    between atoms: C4_9  and  C6_11 
REMARK    6  A    between atoms: C10_15  and  C11_16 
ROOT
HETATM    1  N1  UNK     1      -1.158  -3.552   1.040  1.00  0.00    -0.191 NA
HETATM    2  C9  UNK     1      -2.642  -0.443   1.188  1.00  0.00     0.036 C 
HETATM    3  C10 UNK     1      -2.929  -1.720   1.558  1.00  0.00     0.055 C 
HETATM    4  C23 UNK     1      -1.942  -2.728   1.267  1.00  0.00     0.100 C 
ENDROOT
BRANCH   3   5
HETATM    5  C11 UNK     1      -4.158  -2.112   2.229  1.00  0.00    -0.015 A 
HETATM    6  C16 UNK     1      -4.228  -2.100   3.622  1.00  0.00     0.013 A 
HETATM    7  C19 UNK     1      -5.408  -2.475   4.264  1.00  0.00     0.001 A 
HETATM    8  C21 UNK     1      -6.519  -2.861   3.514  1.00  0.00     0.000 A 
HETATM    9  C20 UNK     1      -6.449  -2.873   2.121  1.00  0.00     0.001 A 
HETATM   10  C17 UNK     1      -5.268  -2.498   1.478  1.00  0.00     0.013 A 
ENDBRANCH   3   5
BRANCH   2  11
HETATM   11  C2  UNK     1      -1.412  -0.002   0.515  1.00  0.00    -0.015 A 
HETATM   12  C5  UNK     1      -1.407  -0.022  -0.874  1.00  0.00     0.052 A 
HETATM   13  C3  UNK     1      -0.266   0.386  -1.565  1.00  0.00     0.102 A 
HETATM   14  C1  UNK     1       0.860   0.811  -0.861  1.00  0.00     0.103 A 
HETATM   15  C7  UNK     1       0.846   0.827   0.534  1.00  0.00     0.059 A 
HETATM   16  C8  UNK     1      -0.295   0.419   1.224  1.00  0.00     0.024 A 
HETATM   17 Br1  UNK     1      -0.248   0.467   3.124  1.00  0.00    -0.050 Br
BRANCH  13  18
HETATM   18  O2  UNK     1      -0.264   0.365  -2.927  1.00  0.00    -0.353 OA
HETATM   19  C22 UNK     1      -1.455  -0.083  -3.570  1.00  0.00     0.210 C 
ENDBRANCH  13  18
BRANCH  14  20
HETATM   20  O1  UNK     1       1.981   1.211  -1.524  1.00  0.00    -0.344 OA
BRANCH  20  21
HETATM   21  C4  UNK     1       2.793   2.196  -0.888  1.00  0.00     0.214 C 
BRANCH  21  22
HETATM   22  C6  UNK     1       3.952   2.527  -1.782  1.00  0.00    -0.034 A 
HETATM   23  C12 UNK     1       5.135   1.804  -1.671  1.00  0.00     0.011 A 
HETATM   24  C14 UNK     1       6.212   2.110  -2.503  1.00  0.00     0.019 A 
HETATM   25  C18 UNK     1       6.099   3.137  -3.440  1.00  0.00     0.011 A 
HETATM   26 Br2  UNK     1       7.558   3.551  -4.568  1.00  0.00    -0.051 Br
HETATM   27  C15 UNK     1       4.910   3.858  -3.546  1.00  0.00     0.019 A 
HETATM   28  C13 UNK     1       3.833   3.552  -2.714  1.00  0.00     0.011 A 
ENDBRANCH  21  22
ENDBRANCH  20  21
ENDBRANCH  14  20
ENDBRANCH   2  11
TORSDOF 6
