REMARK  4 active torsions:
REMARK  status: ('A' for Active; 'I' for Inactive)
REMARK    1  A    between atoms: C1_6  and  N1_5 
REMARK       I    between atoms: C4_9  and  N1_5 
REMARK    2  A    between atoms: C1_6  and  C2_7 
REMARK    3  A    between atoms: C1_6  and  C3_8 
REMARK    4  A    between atoms: C4_9  and  C5_10 
ROOT
HETATM    1  O2  UNK     1       1.272  -1.625   0.357  1.00  0.00    -0.267 OA
HETATM    2  N1  UNK     1      -0.780  -0.570   0.026  1.00  0.00    -0.344 N 
HETATM    3  C4  UNK     1       0.579  -0.751  -0.159  1.00  0.00     0.258 C 
HETATM    4  H2  UNK     1      -1.248   0.219  -0.411  1.00  0.00     0.163 HD
ENDROOT
BRANCH   2   5
HETATM    5  C1  UNK     1      -1.579  -1.419   0.881  1.00  0.00     0.151 C 
BRANCH   5   6
HETATM    6  C2  UNK     1      -2.990  -1.603   0.352  1.00  0.00    -0.031 A 
HETATM    7  C6  UNK     1      -3.975  -0.717   0.744  1.00  0.00     0.009 A 
HETATM    8  C13 UNK     1      -5.271  -0.887   0.258  1.00  0.00     0.001 A 
HETATM    9  C18 UNK     1      -5.558  -1.941  -0.610  1.00  0.00     0.000 A 
HETATM   10  C15 UNK     1      -4.549  -2.824  -0.992  1.00  0.00     0.001 A 
HETATM   11  C8  UNK     1      -3.252  -2.654  -0.506  1.00  0.00     0.009 A 
ENDBRANCH   5   6
BRANCH   5  12
HETATM   12  C3  UNK     1      -1.559  -0.962   2.328  1.00  0.00    -0.031 A 
HETATM   13  C7  UNK     1      -1.699  -1.903   3.331  1.00  0.00     0.009 A 
HETATM   14  C14 UNK     1      -1.681  -1.483   4.661  1.00  0.00     0.001 A 
HETATM   15  C19 UNK     1      -1.523  -0.130   4.964  1.00  0.00     0.000 A 
HETATM   16  C16 UNK     1      -1.383   0.802   3.936  1.00  0.00     0.001 A 
HETATM   17  C9  UNK     1      -1.401   0.383   2.606  1.00  0.00     0.009 A 
ENDBRANCH   5  12
ENDBRANCH   2   5
BRANCH   3  18
HETATM   18  C5  UNK     1       1.167   0.235  -1.074  1.00  0.00     0.108 A 
HETATM   19  C11 UNK     1       2.448   0.554  -0.856  1.00  0.00     0.037 A 
HETATM   20  C10 UNK     1       3.118   1.522  -1.710  1.00  0.00     0.000 A 
HETATM   21  C12 UNK     1       2.406   2.106  -2.753  1.00  0.00     0.089 A 
HETATM   22  C20 UNK     1       4.454   1.885  -1.519  1.00  0.00     0.033 A 
HETATM   23  O1  UNK     1       1.058   1.766  -2.977  1.00  0.00    -0.274 OA
HETATM   24  C21 UNK     1       2.989   3.040  -3.606  1.00  0.00     0.039 A 
HETATM   25  C17 UNK     1       0.390   0.844  -2.177  1.00  0.00     0.304 A 
HETATM   26  O3  UNK     1      -0.785   0.554  -2.380  1.00  0.00    -0.259 OA
HETATM   27  C23 UNK     1       4.321   3.397  -3.409  1.00  0.00     0.022 A 
HETATM   28  C22 UNK     1       5.052   2.821  -2.368  1.00  0.00     0.011 A 
HETATM   29 Br1  UNK     1       6.861   3.308  -2.106  1.00  0.00    -0.051 Br
ENDBRANCH   3  18
TORSDOF 4
