REMARK  5 active torsions:
REMARK  status: ('A' for Active; 'I' for Inactive)
REMARK    1  A    between atoms: C9_15  and  O2_2 
REMARK    2  A    between atoms: C4_10  and  O3_3 
REMARK    3  A    between atoms: C10_16  and  O4_4 
REMARK    4  A    between atoms: C15_21  and  O6_6 
REMARK    5  A    between atoms: C3_9  and  C6_12 
ROOT
HETATM    1  O1  UNK     1       0.035   0.758   0.308  1.00  0.00    -0.309 OA
HETATM    2  O5  UNK     1      -2.255  -1.803  -1.881  1.00  0.00    -0.287 OA
HETATM    3  C1  UNK     1      -1.868  -0.747   0.197  1.00  0.00     0.084 A 
HETATM    4  C2  UNK     1      -1.043   0.139   0.888  1.00  0.00     0.096 A 
HETATM    5  C3  UNK     1       0.309   0.496  -1.026  1.00  0.00     0.090 A 
HETATM    6  C4  UNK     1      -2.952  -1.349   0.840  1.00  0.00     0.119 A 
HETATM    7  C5  UNK     1      -1.575  -1.034  -1.215  1.00  0.00     0.190 A 
HETATM    8  C7  UNK     1      -0.407  -0.340  -1.794  1.00  0.00     0.094 A 
HETATM    9  C8  UNK     1      -1.297   0.428   2.229  1.00  0.00     0.077 A 
HETATM   10  C9  UNK     1      -3.205  -1.058   2.181  1.00  0.00     0.135 A 
HETATM   11  C10 UNK     1      -2.379  -0.172   2.874  1.00  0.00     0.104 A 
ENDROOT
BRANCH   5  12
HETATM   12  C6  UNK     1       1.491   1.210  -1.547  1.00  0.00    -0.002 A 
HETATM   13  C11 UNK     1       2.270   0.637  -2.556  1.00  0.00     0.017 A 
HETATM   14  C13 UNK     1       3.387   1.311  -3.047  1.00  0.00     0.037 A 
HETATM   15  C15 UNK     1       3.730   2.561  -2.532  1.00  0.00     0.068 A 
HETATM   16  C14 UNK     1       2.955   3.137  -1.525  1.00  0.00     0.037 A 
HETATM   17  C12 UNK     1       1.838   2.463  -1.034  1.00  0.00     0.017 A 
BRANCH  15  18
HETATM   18  O6  UNK     1       4.821   3.219  -3.012  1.00  0.00    -0.356 OA
HETATM   19  C17 UNK     1       5.114   4.493  -2.441  1.00  0.00     0.210 C 
ENDBRANCH  15  18
ENDBRANCH   5  12
BRANCH   6  20
HETATM   20  O3  UNK     1      -3.779  -2.222   0.196  1.00  0.00    -0.357 OA
HETATM   21  H7  UNK     1      -3.503  -2.342  -0.725  1.00  0.00     0.218 HD
ENDBRANCH   6  20
BRANCH  11  22
HETATM   22  O4  UNK     1      -2.619   0.117   4.184  1.00  0.00    -0.358 OA
HETATM   23  H8  UNK     1      -1.947   0.745   4.499  1.00  0.00     0.217 HD
ENDBRANCH  11  22
BRANCH  10  24
HETATM   24  O2  UNK     1      -4.260  -1.641   2.819  1.00  0.00    -0.351 OA
HETATM   25  C16 UNK     1      -3.963  -2.445   3.958  1.00  0.00     0.210 C 
ENDBRANCH  10  24
TORSDOF 5
