REMARK  4 active torsions:
REMARK  status: ('A' for Active; 'I' for Inactive)
REMARK    1  A    between atoms: C7_12  and  O2_2 
REMARK    2  A    between atoms: C9_14  and  O4_4 
REMARK    3  A    between atoms: C11_16  and  O5_5 
REMARK    4  A    between atoms: C3_8  and  C4_9 
ROOT
HETATM    1  O1  UNK     1       0.148  -1.076   0.303  1.00  0.00    -0.306 OA
HETATM    2  O3  UNK     1       1.081  -1.962   4.168  1.00  0.00    -0.287 OA
HETATM    3  C1  UNK     1       0.857  -2.722   1.942  1.00  0.00     0.051 A 
HETATM    4  C2  UNK     1       0.526  -2.351   0.640  1.00  0.00     0.126 A 
HETATM    5  C3  UNK     1       0.086  -0.119   1.304  1.00  0.00     0.093 A 
HETATM    6  C5  UNK     1       0.801  -1.707   3.005  1.00  0.00     0.187 A 
HETATM    7  C6  UNK     1       0.386  -0.351   2.592  1.00  0.00     0.094 A 
HETATM    8  C7  UNK     1       0.572  -3.294  -0.387  1.00  0.00     0.134 A 
HETATM    9  C8  UNK     1       1.235  -4.036   2.228  1.00  0.00     0.021 A 
HETATM   10  C9  UNK     1       0.949  -4.608  -0.105  1.00  0.00     0.101 A 
HETATM   11  C10 UNK     1       1.279  -4.978   1.199  1.00  0.00     0.040 A 
ENDROOT
BRANCH   5  12
HETATM   12  C4  UNK     1      -0.325   1.218   0.831  1.00  0.00     0.031 A 
HETATM   13  C11 UNK     1       0.615   2.151   0.382  1.00  0.00     0.078 A 
HETATM   14  C13 UNK     1       0.202   3.408  -0.060  1.00  0.00     0.037 A 
HETATM   15  C15 UNK     1      -1.153   3.738  -0.055  1.00  0.00     0.003 A 
HETATM   16  C14 UNK     1      -2.095   2.812   0.392  1.00  0.00     0.001 A 
HETATM   17  C12 UNK     1      -1.682   1.555   0.834  1.00  0.00     0.017 A 
BRANCH  13  18
HETATM   18  O5  UNK     1       1.946   1.854   0.366  1.00  0.00    -0.360 OA
HETATM   19  H10 UNK     1       2.440   2.619   0.025  1.00  0.00     0.217 HD
ENDBRANCH  13  18
ENDBRANCH   5  12
BRANCH   8  20
HETATM   20  O2  UNK     1       0.250  -2.939  -1.663  1.00  0.00    -0.356 OA
HETATM   21  H8  UNK     1       0.339  -3.723  -2.232  1.00  0.00     0.218 HD
ENDBRANCH   8  20
BRANCH  10  22
HETATM   22  O4  UNK     1       0.998  -5.541  -1.097  1.00  0.00    -0.358 OA
HETATM   23  H9  UNK     1       1.278  -6.391  -0.718  1.00  0.00     0.217 HD
ENDBRANCH  10  22
TORSDOF 4
