REMARK  5 active torsions:
REMARK  status: ('A' for Active; 'I' for Inactive)
REMARK    1  A    between atoms: C10_15  and  O1_1 
REMARK    2  A    between atoms: C8_13  and  O1_1 
REMARK    3  A    between atoms: C14_19  and  O3_3 
REMARK    4  A    between atoms: C6_11  and  O3_3 
REMARK    5  A    between atoms: C14_19  and  C2_7 
ROOT
HETATM    1  O2  UNK     1       0.592  -1.712   1.652  1.00  0.00    -0.319 OA
HETATM    2  O4  UNK     1       0.711   2.274   0.776  1.00  0.00    -0.284 OA
HETATM    3  C1  UNK     1      -0.591   0.396   1.381  1.00  0.00     0.051 A 
HETATM    4  C3  UNK     1      -0.564  -0.970   1.671  1.00  0.00     0.092 A 
HETATM    5  C6  UNK     1      -2.950  -0.937   2.034  1.00  0.00     0.082 A 
HETATM    6  C7  UNK     1       0.670   1.080   1.038  1.00  0.00     0.220 A 
HETATM    7  C8  UNK     1       1.885   0.235   1.033  1.00  0.00     0.149 A 
HETATM    8  C9  UNK     1      -1.744  -1.638   1.998  1.00  0.00     0.075 A 
HETATM    9  C11 UNK     1      -1.796   1.100   1.416  1.00  0.00     0.021 A 
HETATM   10  C13 UNK     1      -2.976   0.429   1.743  1.00  0.00     0.038 A 
HETATM   11  C19 UNK     1       1.759  -1.061   1.332  1.00  0.00     0.184 A 
ENDROOT
BRANCH   7  12
HETATM   12  O1  UNK     1       3.093   0.795   0.727  1.00  0.00    -0.305 OA
BRANCH  12  13
HETATM   13  C10 UNK     1       3.239   1.374  -0.496  1.00  0.00     0.077 A 
HETATM   14  C12 UNK     1       2.771   0.721  -1.637  1.00  0.00     0.049 A 
HETATM   15  C4  UNK     1       2.915   1.304  -2.907  1.00  0.00    -0.023 A 
HETATM   16  C20 UNK     1       2.449   0.661  -4.065  1.00  0.00     0.012 A 
HETATM   17  C5  UNK     1       3.542   2.567  -3.021  1.00  0.00    -0.026 A 
HETATM   18  C22 UNK     1       2.601   1.255  -5.318  1.00  0.00     0.001 A 
HETATM   19  C23 UNK     1       3.218   2.497  -5.431  1.00  0.00     0.001 A 
HETATM   20  C21 UNK     1       3.686   3.151  -4.290  1.00  0.00     0.012 A 
HETATM   21  C15 UNK     1       4.008   3.210  -1.862  1.00  0.00     0.015 A 
HETATM   22  C18 UNK     1       3.857   2.616  -0.609  1.00  0.00     0.038 A 
ENDBRANCH  12  13
ENDBRANCH   7  12
BRANCH   5  23
HETATM   23  O3  UNK     1      -4.104  -1.585   2.351  1.00  0.00    -0.279 OA
BRANCH  23  24
HETATM   24  C14 UNK     1      -4.786  -2.128   1.246  1.00  0.00     0.267 C 
HETATM   25  O5  UNK     1      -4.409  -2.057   0.083  1.00  0.00    -0.264 OA
BRANCH  24  26
HETATM   26  C2  UNK     1      -6.053  -2.825   1.711  1.00  0.00     0.078 C 
HETATM   27  C16 UNK     1      -7.146  -2.722   0.650  1.00  0.00     0.020 C 
HETATM   28  C17 UNK     1      -5.747  -4.282   2.039  1.00  0.00     0.020 C 
ENDBRANCH  24  26
ENDBRANCH  23  24
ENDBRANCH   5  23
TORSDOF 5
