REMARK  5 active torsions:
REMARK  status: ('A' for Active; 'I' for Inactive)
REMARK    1  A    between atoms: C7_12  and  O1_2 
REMARK    2  A    between atoms: C9_14  and  O1_2 
REMARK    3  A    between atoms: C1_6  and  C2_7 
REMARK    4  A    between atoms: C1_6  and  C3_8 
REMARK    5  A    between atoms: C2_7  and  C9_14 
ROOT
HETATM    1 Cl1  UNK     1      -0.925   0.460  -3.297  1.00  0.00    -0.081 Cl
HETATM    2  O2  UNK     1      -3.191  -1.964   0.540  1.00  0.00    -0.275 OA
HETATM    3  O4  UNK     1      -4.277  -3.110   2.195  1.00  0.00    -0.260 OA
HETATM    4  C4  UNK     1      -1.456  -0.353   1.143  1.00  0.00     0.007 A 
HETATM    5  C5  UNK     1      -2.218  -1.012   0.176  1.00  0.00     0.092 A 
HETATM    6  C6  UNK     1      -1.688  -0.672   2.558  1.00  0.00    -0.043 A 
HETATM    7  C7  UNK     1      -0.341   0.833  -0.667  1.00  0.00     0.101 A 
HETATM    8  C8  UNK     1      -0.509   0.579   0.699  1.00  0.00     0.054 A 
HETATM    9  C11 UNK     1      -2.062  -0.769  -1.189  1.00  0.00     0.065 A 
HETATM   10  C12 UNK     1      -1.116   0.160  -1.610  1.00  0.00     0.070 A 
HETATM   11  C13 UNK     1      -2.620  -1.581   2.875  1.00  0.00     0.090 A 
HETATM   12  C14 UNK     1      -0.886   0.020   3.622  1.00  0.00     0.049 C 
HETATM   13  C15 UNK     1      -3.431  -2.284   1.867  1.00  0.00     0.288 A 
ENDROOT
BRANCH   7  14
HETATM   14  O1  UNK     1       0.595   1.750  -1.049  1.00  0.00    -0.277 OA
BRANCH  14  15
HETATM   15  C9  UNK     1       1.873   1.207  -1.274  1.00  0.00     0.264 C 
HETATM   16  O3  UNK     1       2.173   0.027  -1.151  1.00  0.00    -0.265 OA
BRANCH  15  17
HETATM   17  C2  UNK     1       2.818   2.313  -1.689  1.00  0.00     0.111 C 
BRANCH  17  18
HETATM   18  C1  UNK     1       4.224   1.786  -1.972  1.00  0.00     0.009 C 
BRANCH  18  19
HETATM   19  C3  UNK     1       5.157   2.907  -2.428  1.00  0.00    -0.004 C 
HETATM   20  C10 UNK     1       6.547   2.380  -2.747  1.00  0.00     0.005 C 
ENDBRANCH  18  19
ENDBRANCH  17  18
ENDBRANCH  15  17
ENDBRANCH  14  15
ENDBRANCH   7  14
TORSDOF 5
