REMARK  4 active torsions:
REMARK  status: ('A' for Active; 'I' for Inactive)
REMARK    1  A    between atoms: C15_21  and  O2_3 
REMARK    2  A    between atoms: C1_7  and  N1_6 
REMARK       I    between atoms: C7_13  and  N1_6 
REMARK    3  A    between atoms: C1_7  and  C3_9 
REMARK    4  A    between atoms: C4_10  and  C7_13 
ROOT
HETATM    1  O3  UNK     1       0.853   0.007   1.837  1.00  0.00    -0.267 OA
HETATM    2  N1  UNK     1      -1.076   1.044   1.037  1.00  0.00    -0.352 N 
HETATM    3  C7  UNK     1       0.237   0.614   0.963  1.00  0.00     0.258 C 
HETATM    4  H4  UNK     1      -1.492   1.553   0.264  1.00  0.00     0.163 HD
ENDROOT
BRANCH   3   5
HETATM    5  C4  UNK     1       0.878   0.955  -0.313  1.00  0.00     0.108 A 
HETATM    6  C11 UNK     1       0.110   1.064  -1.573  1.00  0.00     0.304 A 
HETATM    7  O1  UNK     1       0.830   1.393  -2.718  1.00  0.00    -0.274 OA
HETATM    8  O4  UNK     1      -1.101   0.874  -1.613  1.00  0.00    -0.259 OA
HETATM    9  C5  UNK     1       2.221   1.613  -2.684  1.00  0.00     0.089 A 
HETATM   10  C12 UNK     1       2.855   1.938  -3.881  1.00  0.00     0.039 A 
HETATM   11  C2  UNK     1       2.924   1.505  -1.488  1.00  0.00     0.000 A 
HETATM   12  C17 UNK     1       4.230   2.161  -3.878  1.00  0.00     0.022 A 
HETATM   13  C16 UNK     1       4.953   2.058  -2.687  1.00  0.00     0.011 A 
HETATM   14 Br1  UNK     1       6.819   2.361  -2.691  1.00  0.00    -0.051 Br
HETATM   15  C10 UNK     1       4.303   1.731  -1.494  1.00  0.00     0.033 A 
HETATM   16  C6  UNK     1       2.199   1.162  -0.274  1.00  0.00     0.037 A 
ENDBRANCH   3   5
BRANCH   2  17
HETATM   17  C1  UNK     1      -1.914   0.822   2.194  1.00  0.00     0.161 C 
BRANCH  17  18
HETATM   18  C3  UNK     1      -2.666  -0.474   2.103  1.00  0.00    -0.040 A 
HETATM   19  C8  UNK     1      -2.098  -1.636   2.612  1.00  0.00     0.011 A 
HETATM   20  C13 UNK     1      -2.797  -2.840   2.527  1.00  0.00     0.037 A 
HETATM   21  C15 UNK     1      -4.058  -2.874   1.932  1.00  0.00     0.068 A 
HETATM   22  C14 UNK     1      -4.620  -1.703   1.423  1.00  0.00     0.037 A 
HETATM   23  C9  UNK     1      -3.922  -0.499   1.509  1.00  0.00     0.011 A 
BRANCH  21  24
HETATM   24  O2  UNK     1      -4.739  -4.049   1.850  1.00  0.00    -0.356 OA
HETATM   25  C18 UNK     1      -6.024  -4.013   1.230  1.00  0.00     0.210 C 
ENDBRANCH  21  24
ENDBRANCH  17  18
ENDBRANCH   2  17
TORSDOF 4
