REMARK  6 active torsions:
REMARK  status: ('A' for Active; 'I' for Inactive)
REMARK    1  A    between atoms: C13_21  and  O2_3 
REMARK    2  A    between atoms: C5_13  and  O2_3 
REMARK    3  A    between atoms: C17_25  and  O5_6 
REMARK       I    between atoms: C10_18  and  N1_8 
REMARK    4  A    between atoms: C11_19  and  N1_8 
REMARK    5  A    between atoms: C10_18  and  C3_11 
REMARK    6  A    between atoms: C12_20  and  C17_25 
ROOT
HETATM    1  O1  UNK     1       2.009   0.802  -0.378  1.00  0.00    -0.271 OA
HETATM    2  O3  UNK     1       0.704  -0.570   0.901  1.00  0.00    -0.259 OA
HETATM    3  C1  UNK     1       1.248   1.462  -2.590  1.00  0.00     0.002 A 
HETATM    4  C2  UNK     1       2.204   1.507  -1.581  1.00  0.00     0.123 A 
HETATM    5  C3  UNK     1      -0.138   0.006  -1.237  1.00  0.00     0.108 A 
HETATM    6  C4  UNK     1       0.043   0.674  -2.383  1.00  0.00     0.037 A 
HETATM    7  C5  UNK     1       3.380   2.243  -1.717  1.00  0.00     0.103 A 
HETATM    8  C6  UNK     1       1.477   2.176  -3.769  1.00  0.00     0.014 A 
HETATM    9  C7  UNK     1       3.601   2.951  -2.895  1.00  0.00     0.040 A 
HETATM   10  C8  UNK     1       0.866   0.040  -0.150  1.00  0.00     0.304 A 
HETATM   11  C9  UNK     1       2.652   2.918  -3.919  1.00  0.00     0.004 A 
ENDROOT
BRANCH   5  12
HETATM   12  C10 UNK     1      -1.385  -0.760  -1.122  1.00  0.00     0.262 C 
HETATM   13  O4  UNK     1      -1.904  -1.226  -2.135  1.00  0.00    -0.267 OA
HETATM   14  N1  UNK     1      -1.818  -0.849   0.193  1.00  0.00    -0.316 N 
HETATM   15  H5  UNK     1      -1.287  -0.389   0.928  1.00  0.00     0.169 HD
BRANCH  14  16
HETATM   16  C11 UNK     1      -2.967  -1.508   0.640  1.00  0.00     0.093 A 
HETATM   17  S1  UNK     1      -3.900  -2.261  -0.564  1.00  0.00    -0.083 SA
HETATM   18  C15 UNK     1      -5.024  -2.804   0.608  1.00  0.00     0.053 A 
HETATM   19  C14 UNK     1      -4.676  -2.408   1.880  1.00  0.00     0.028 A 
HETATM   20  C12 UNK     1      -3.470  -1.650   1.893  1.00  0.00     0.073 A 
BRANCH  20  21
HETATM   21  C17 UNK     1      -2.854  -1.099   3.073  1.00  0.00     0.295 C 
HETATM   22  O6  UNK     1      -1.803  -0.441   3.063  1.00  0.00    -0.259 OA
BRANCH  21  23
HETATM   23  O5  UNK     1      -3.538  -1.367   4.240  1.00  0.00    -0.322 OA
HETATM   24  C18 UNK     1      -2.980  -0.849   5.452  1.00  0.00     0.213 C 
ENDBRANCH  21  23
ENDBRANCH  20  21
ENDBRANCH  14  16
ENDBRANCH   5  12
BRANCH   7  25
HETATM   25  O2  UNK     1       4.307   2.278  -0.722  1.00  0.00    -0.349 OA
BRANCH  25  26
HETATM   26  C13 UNK     1       5.670   2.448  -1.109  1.00  0.00     0.171 C 
HETATM   27  C16 UNK     1       6.561   1.770  -0.091  1.00  0.00     0.034 C 
ENDBRANCH  25  26
ENDBRANCH   7  25
TORSDOF 6
