REMARK  6 active torsions:
REMARK  status: ('A' for Active; 'I' for Inactive)
REMARK    1  A    between atoms: C11_14  and  O1_1 
REMARK    2  A    between atoms: C3_6  and  O1_1 
REMARK    3  A    between atoms: C1_4  and  C2_5 
REMARK    4  A    between atoms: C2_5  and  C3_6 
REMARK    5  A    between atoms: C6_9  and  C8_11 
REMARK    6  A    between atoms: C16_19  and  C8_11 
ROOT
HETATM    1  O2  UNK     1      -0.737   0.233  -1.093  1.00  0.00    -0.274 OA
HETATM    2  O3  UNK     1      -2.974  -0.151  -1.115  1.00  0.00    -0.259 OA
HETATM    3  C4  UNK     1      -0.846   0.366   1.733  1.00  0.00    -0.036 A 
HETATM    4  C5  UNK     1       0.432   0.556   1.016  1.00  0.00     0.005 A 
HETATM    5  C6  UNK     1      -1.979   0.162   1.027  1.00  0.00     0.029 A 
HETATM    6  C7  UNK     1       0.442   0.481  -0.374  1.00  0.00     0.092 A 
HETATM    7  C11 UNK     1       2.807   0.904  -0.478  1.00  0.00     0.071 A 
HETATM    8  C12 UNK     1       1.606   0.648  -1.128  1.00  0.00     0.075 A 
HETATM    9  C13 UNK     1       1.655   0.822   1.650  1.00  0.00     0.017 A 
HETATM   10  C14 UNK     1      -1.959   0.069  -0.462  1.00  0.00     0.295 A 
HETATM   11  C15 UNK     1       2.832   0.992   0.911  1.00  0.00     0.038 A 
HETATM   12  C17 UNK     1      -0.794   0.399   3.240  1.00  0.00     0.050 C 
ENDROOT
BRANCH   5  13
HETATM   13  C8  UNK     1      -3.354   0.017   1.627  1.00  0.00     0.084 C 
BRANCH  13  14
HETATM   14  C16 UNK     1      -3.829  -1.406   1.617  1.00  0.00    -0.054 A 
HETATM   15  C18 UNK     1      -2.966  -2.422   2.013  1.00  0.00     0.007 A 
HETATM   16  C20 UNK     1      -3.407  -3.745   2.004  1.00  0.00     0.001 A 
HETATM   17  C22 UNK     1      -4.708  -4.044   1.598  1.00  0.00     0.000 A 
HETATM   18  C21 UNK     1      -5.567  -3.020   1.202  1.00  0.00     0.001 A 
HETATM   19  C19 UNK     1      -5.127  -1.697   1.211  1.00  0.00     0.007 A 
ENDBRANCH  13  14
ENDBRANCH   5  13
BRANCH   7  20
HETATM   20  O1  UNK     1       3.951   1.070  -1.194  1.00  0.00    -0.351 OA
BRANCH  20  21
HETATM   21  C3  UNK     1       3.824   1.615  -2.508  1.00  0.00     0.176 C 
BRANCH  21  22
HETATM   22  C2  UNK     1       5.097   2.381  -2.845  1.00  0.00     0.030 C 
BRANCH  22  23
HETATM   23  C1  UNK     1       5.075   3.036  -4.235  1.00  0.00    -0.021 C 
HETATM   24  C9  UNK     1       4.860   1.968  -5.310  1.00  0.00     0.009 C 
HETATM   25  C10 UNK     1       3.997   4.114  -4.354  1.00  0.00     0.009 C 
ENDBRANCH  22  23
ENDBRANCH  21  22
ENDBRANCH  20  21
ENDBRANCH   7  20
TORSDOF 6
