REMARK  3 active torsions:
REMARK  status: ('A' for Active; 'I' for Inactive)
REMARK       I    between atoms: C15_19  and  N1_4 
REMARK    1  A    between atoms: C6_10  and  N1_4 
REMARK    2  A    between atoms: C1_5  and  C2_6 
REMARK    3  A    between atoms: C15_19  and  C3_7 
ROOT
HETATM    1  C1  UNK     1       1.231   0.627  -1.055  1.00  0.00    -0.020 A 
HETATM    2  C6  UNK     1      -0.850  -0.622   0.320  1.00  0.00     0.035 A 
HETATM    3  C9  UNK     1       0.158   1.381  -0.580  1.00  0.00     0.014 A 
HETATM    4  C10 UNK     1       1.264  -0.751  -0.843  1.00  0.00     0.014 A 
HETATM    5  C12 UNK     1      -0.882   0.756   0.108  1.00  0.00     0.030 A 
HETATM    6  C13 UNK     1       0.223  -1.376  -0.156  1.00  0.00     0.030 A 
ENDROOT
BRANCH   2   7
HETATM    7  N1  UNK     1      -1.892  -1.247   1.006  1.00  0.00    -0.323 N 
HETATM    8  C15 UNK     1      -3.041  -0.660   1.550  1.00  0.00     0.256 C 
HETATM    9  O2  UNK     1      -3.344   0.528   1.521  1.00  0.00    -0.267 OA
HETATM   10  H7  UNK     1      -1.794  -2.254   1.123  1.00  0.00     0.169 HD
BRANCH   8  11
HETATM   11  C3  UNK     1      -3.961  -1.592   2.253  1.00  0.00     0.038 A 
HETATM   12  C16 UNK     1      -3.762  -1.796   3.604  1.00  0.00     0.018 A 
HETATM   13  C18 UNK     1      -4.611  -2.665   4.287  1.00  0.00     0.008 A 
HETATM   14  C11 UNK     1      -5.642  -3.313   3.606  1.00  0.00    -0.061 A 
HETATM   15  C14 UNK     1      -5.823  -3.091   2.241  1.00  0.00     0.014 A 
HETATM   16  C22 UNK     1      -6.550  -4.243   4.337  1.00  0.00     0.048 C 
HETATM   17  C4  UNK     1      -4.973  -2.221   1.557  1.00  0.00    -0.046 A 
HETATM   18  C20 UNK     1      -5.189  -2.000   0.095  1.00  0.00     0.049 C 
ENDBRANCH   8  11
ENDBRANCH   2   7
BRANCH   1  19
HETATM   19  C2  UNK     1       2.331   1.288  -1.781  1.00  0.00     0.051 A 
HETATM   20  C17 UNK     1       2.262   1.457  -3.259  1.00  0.00     0.299 A 
HETATM   21  O1  UNK     1       3.326   2.117  -3.869  1.00  0.00    -0.274 OA
HETATM   22  O3  UNK     1       1.320   1.033  -3.920  1.00  0.00    -0.259 OA
HETATM   23  C8  UNK     1       4.430   2.591  -3.136  1.00  0.00     0.089 A 
HETATM   24  C21 UNK     1       5.450   3.228  -3.839  1.00  0.00     0.038 A 
HETATM   25  C5  UNK     1       4.486   2.419  -1.758  1.00  0.00    -0.001 A 
HETATM   26  C24 UNK     1       6.556   3.706  -3.139  1.00  0.00     0.003 A 
HETATM   27  C23 UNK     1       6.630   3.544  -1.754  1.00  0.00     0.001 A 
HETATM   28  C19 UNK     1       5.598   2.902  -1.064  1.00  0.00     0.014 A 
HETATM   29  C7  UNK     1       3.384   1.748  -1.089  1.00  0.00     0.032 A 
ENDBRANCH   1  19
TORSDOF 3
