REMARK  5 active torsions:
REMARK  status: ('A' for Active; 'I' for Inactive)
REMARK    1  A    between atoms: C11_20  and  O2_4 
REMARK    2  A    between atoms: C12_21  and  O2_4 
REMARK       I    between atoms: C8_17  and  N1_8 
REMARK    3  A    between atoms: N1_8  and  N2_9 
REMARK       I    between atoms: C13_22  and  N2_9 
REMARK    4  A    between atoms: C3_12  and  C8_17 
REMARK    5  A    between atoms: C11_20  and  C13_22 
ROOT
HETATM    1  O4  UNK     1       1.940   0.204   1.036  1.00  0.00    -0.266 OA
HETATM    2  N1  UNK     1      -0.025   0.775  -0.075  1.00  0.00    -0.263 N 
HETATM    3  C8  UNK     1       1.342   0.654   0.061  1.00  0.00     0.276 C 
HETATM    4  H5  UNK     1      -0.487   1.185  -0.880  1.00  0.00     0.190 HD
ENDROOT
BRANCH   2   5
HETATM    5  N2  UNK     1      -0.837   0.366   0.954  1.00  0.00    -0.265 N 
HETATM    6  C13 UNK     1      -2.107  -0.096   0.664  1.00  0.00     0.260 C 
HETATM    7  O5  UNK     1      -2.598  -0.180  -0.459  1.00  0.00    -0.269 OA
HETATM    8  H8  UNK     1      -0.466   0.439   1.896  1.00  0.00     0.190 HD
BRANCH   6   9
HETATM    9  C11 UNK     1      -2.851  -0.502   1.917  1.00  0.00     0.280 C 
BRANCH   9  10
HETATM   10  O2  UNK     1      -4.149  -0.958   1.601  1.00  0.00    -0.342 OA
BRANCH  10  11
HETATM   11  C12 UNK     1      -4.702  -1.904   2.431  1.00  0.00     0.070 A 
HETATM   12  C14 UNK     1      -5.605  -2.823   1.916  1.00  0.00     0.060 A 
HETATM   13  C16 UNK     1      -6.166  -3.782   2.759  1.00  0.00     0.036 A 
HETATM   14 Cl1  UNK     1      -7.288  -4.928   2.134  1.00  0.00    -0.084 Cl
HETATM   15  C18 UNK     1      -5.818  -3.812   4.110  1.00  0.00     0.024 A 
HETATM   16  C17 UNK     1      -4.909  -2.884   4.617  1.00  0.00     0.004 A 
HETATM   17  C15 UNK     1      -4.348  -1.925   3.773  1.00  0.00     0.037 A 
ENDBRANCH  10  11
ENDBRANCH   9  10
ENDBRANCH   6   9
ENDBRANCH   2   5
BRANCH   3  18
HETATM   18  C3  UNK     1       2.072   1.130  -1.120  1.00  0.00     0.110 A 
HETATM   19  C4  UNK     1       3.292   1.633  -0.899  1.00  0.00     0.037 A 
HETATM   20  C1  UNK     1       4.092   2.131  -2.007  1.00  0.00     0.000 A 
HETATM   21  C2  UNK     1       3.568   2.073  -3.295  1.00  0.00     0.089 A 
HETATM   22  C5  UNK     1       5.370   2.665  -1.822  1.00  0.00     0.033 A 
HETATM   23  O1  UNK     1       2.284   1.542  -3.522  1.00  0.00    -0.274 OA
HETATM   24  C6  UNK     1       4.283   2.533  -4.399  1.00  0.00     0.039 A 
HETATM   25  C7  UNK     1       1.494   1.059  -2.481  1.00  0.00     0.304 A 
HETATM   26  O3  UNK     1       0.377   0.599  -2.688  1.00  0.00    -0.259 OA
HETATM   27  C10 UNK     1       5.557   3.064  -4.206  1.00  0.00     0.022 A 
HETATM   28  C9  UNK     1       6.099   3.129  -2.921  1.00  0.00     0.011 A 
HETATM   29 Br1  UNK     1       7.829   3.850  -2.666  1.00  0.00    -0.051 Br
ENDBRANCH   3  18
TORSDOF 5
