REMARK  3 active torsions:
REMARK  status: ('A' for Active; 'I' for Inactive)
REMARK    1  A    between atoms: C11_15  and  O3_3 
REMARK    2  A    between atoms: C15_19  and  O4_4 
REMARK    3  A    between atoms: C2_6  and  C5_9 
ROOT
HETATM    1  O1  UNK     1       1.205   1.980   0.654  1.00  0.00    -0.321 OA
HETATM    2  O2  UNK     1      -0.761  -0.685  -1.729  1.00  0.00    -0.286 OA
HETATM    3  C1  UNK     1       0.995   0.866  -1.492  1.00  0.00     0.049 A 
HETATM    4  C2  UNK     1      -0.570   0.341   0.411  1.00  0.00     0.048 A 
HETATM    5  C3  UNK     1       1.620   1.771  -0.636  1.00  0.00     0.091 A 
HETATM    6  C4  UNK     1      -0.165   0.098  -1.001  1.00  0.00     0.197 A 
HETATM    7  C6  UNK     1       0.137   1.244   1.106  1.00  0.00     0.159 A 
HETATM    8  C7  UNK     1       1.461   0.694  -2.798  1.00  0.00     0.021 A 
HETATM    9  C8  UNK     1       2.716   2.511  -1.081  1.00  0.00     0.074 A 
HETATM   10  C11 UNK     1       3.184   2.342  -2.384  1.00  0.00     0.068 A 
HETATM   11  C12 UNK     1       2.558   1.435  -3.240  1.00  0.00     0.037 A 
ENDROOT
BRANCH   4  12
HETATM   12  C5  UNK     1      -1.686  -0.387   1.037  1.00  0.00    -0.020 A 
HETATM   13  C10 UNK     1      -1.453  -1.602   1.685  1.00  0.00     0.015 A 
HETATM   14  C14 UNK     1      -2.511  -2.293   2.278  1.00  0.00     0.037 A 
HETATM   15  C15 UNK     1      -3.803  -1.770   2.224  1.00  0.00     0.065 A 
HETATM   16  C13 UNK     1      -4.038  -0.556   1.577  1.00  0.00     0.037 A 
HETATM   17  C9  UNK     1      -2.980   0.134   0.984  1.00  0.00     0.015 A 
BRANCH  15  18
HETATM   18  O4  UNK     1      -4.834  -2.444   2.802  1.00  0.00    -0.361 OA
HETATM   19  H10 UNK     1      -5.655  -1.938   2.669  1.00  0.00     0.217 HD
ENDBRANCH  15  18
ENDBRANCH   4  12
BRANCH  10  20
HETATM   20  O3  UNK     1       4.254   3.061  -2.821  1.00  0.00    -0.361 OA
HETATM   21  H9  UNK     1       4.441   2.818  -3.744  1.00  0.00     0.217 HD
ENDBRANCH  10  20
TORSDOF 3
