REMARK  3 active torsions:
REMARK  status: ('A' for Active; 'I' for Inactive)
REMARK    1  A    between atoms: C10_14  and  O2_2 
REMARK    2  A    between atoms: C13_17  and  O2_2 
REMARK    3  A    between atoms: C2_6  and  C5_9 
ROOT
HETATM    1  O1  UNK     1       0.031  -0.389   1.640  1.00  0.00    -0.274 OA
HETATM    2  O3  UNK     1      -1.371  -1.076   3.288  1.00  0.00    -0.259 OA
HETATM    3  C1  UNK     1      -2.030  -0.877  -0.238  1.00  0.00    -0.037 A 
HETATM    4  C2  UNK     1      -2.239  -1.137   1.070  1.00  0.00     0.024 A 
HETATM    5  C3  UNK     1      -0.711  -0.377  -0.677  1.00  0.00     0.005 A 
HETATM    6  C4  UNK     1       0.274  -0.149   0.279  1.00  0.00     0.093 A 
HETATM    7  C6  UNK     1      -1.183  -0.878   2.091  1.00  0.00     0.295 A 
HETATM    8  C7  UNK     1      -0.374  -0.121  -2.016  1.00  0.00     0.017 A 
HETATM    9  C8  UNK     1      -3.082  -1.053  -1.305  1.00  0.00     0.050 C 
HETATM   10  C9  UNK     1       1.547   0.324  -0.050  1.00  0.00     0.075 A 
HETATM   11  C10 UNK     1       1.857   0.576  -1.382  1.00  0.00     0.081 A 
HETATM   12  C12 UNK     1       0.896   0.352  -2.364  1.00  0.00     0.038 A 
ENDROOT
BRANCH  11  13
HETATM   13  O2  UNK     1       3.090   1.036  -1.723  1.00  0.00    -0.279 OA
BRANCH  13  14
HETATM   14  C13 UNK     1       3.198   2.437  -1.738  1.00  0.00     0.260 C 
HETATM   15  O4  UNK     1       2.299   3.225  -1.479  1.00  0.00    -0.265 OA
HETATM   16  C14 UNK     1       4.589   2.842  -2.125  1.00  0.00     0.126 C 
ENDBRANCH  13  14
ENDBRANCH  11  13
BRANCH   4  17
HETATM   17  C5  UNK     1      -3.511  -1.709   1.642  1.00  0.00     0.041 C 
HETATM   18  C11 UNK     1      -4.483  -0.615   2.030  1.00  0.00     0.010 C 
ENDBRANCH   4  17
TORSDOF 3
