REMARK  6 active torsions:
REMARK  status: ('A' for Active; 'I' for Inactive)
REMARK    1  A    between atoms: C13_20  and  O1_2 
REMARK    2  A    between atoms: C15_22  and  O1_2 
REMARK    3  A    between atoms: C12_19  and  N1_7 
REMARK       I    between atoms: C14_21  and  N1_7 
REMARK    4  A    between atoms: C1_8  and  C2_9 
REMARK    5  A    between atoms: C11_18  and  C13_20 
REMARK    6  A    between atoms: C14_21  and  C16_23 
ROOT
HETATM    1  S1  UNK     1      -1.993  -0.573  -0.794  1.00  0.00    -0.075 SA
HETATM    2  C1  UNK     1      -4.902  -2.007   1.732  1.00  0.00    -0.002 C 
HETATM    3  C3  UNK     1      -3.924  -2.498   2.822  1.00  0.00     0.010 C 
HETATM    4  C4  UNK     1      -4.189  -1.869   0.368  1.00  0.00     0.052 C 
HETATM    5  C5  UNK     1      -2.763  -1.511   3.029  1.00  0.00     0.041 C 
HETATM    6  C6  UNK     1      -2.860  -1.200   0.531  1.00  0.00    -0.008 A 
HETATM    7  C7  UNK     1      -2.187  -1.049   1.728  1.00  0.00    -0.026 A 
HETATM    8  C11 UNK     1      -0.933  -0.393   1.540  1.00  0.00     0.080 A 
HETATM    9  C12 UNK     1      -0.703  -0.080   0.218  1.00  0.00     0.094 A 
ENDROOT
BRANCH   9  10
HETATM   10  N1  UNK     1       0.353   0.540  -0.394  1.00  0.00    -0.316 N 
HETATM   11  C14 UNK     1       0.486   0.812  -1.762  1.00  0.00     0.262 C 
HETATM   12  O3  UNK     1      -0.296   0.556  -2.669  1.00  0.00    -0.267 OA
HETATM   13  H17 UNK     1       1.109   0.805   0.231  1.00  0.00     0.169 HD
BRANCH  11  14
HETATM   14  C16 UNK     1       1.757   1.496  -2.081  1.00  0.00     0.108 A 
HETATM   15  C17 UNK     1       2.269   1.257  -3.294  1.00  0.00     0.037 A 
HETATM   16  C20 UNK     1       3.518   1.884  -3.700  1.00  0.00    -0.001 A 
HETATM   17  C21 UNK     1       4.166   2.732  -2.808  1.00  0.00     0.089 A 
HETATM   18  C22 UNK     1       4.088   1.663  -4.956  1.00  0.00     0.014 A 
HETATM   19  O4  UNK     1       3.622   2.980  -1.532  1.00  0.00    -0.274 OA
HETATM   20  C23 UNK     1       5.364   3.363  -3.134  1.00  0.00     0.038 A 
HETATM   21  C19 UNK     1       2.429   2.394  -1.116  1.00  0.00     0.304 A 
HETATM   22  O5  UNK     1       1.964   2.615  -0.003  1.00  0.00    -0.259 OA
HETATM   23  C25 UNK     1       5.927   3.137  -4.388  1.00  0.00     0.003 A 
HETATM   24  C24 UNK     1       5.290   2.290  -5.298  1.00  0.00     0.001 A 
ENDBRANCH  11  14
ENDBRANCH   9  10
BRANCH   8  25
HETATM   25  C13 UNK     1       0.008  -0.074   2.584  1.00  0.00     0.296 C 
HETATM   26  O2  UNK     1      -0.316   0.174   3.755  1.00  0.00    -0.259 OA
BRANCH  25  27
HETATM   27  O1  UNK     1       1.322  -0.065   2.169  1.00  0.00    -0.318 OA
BRANCH  27  28
HETATM   28  C15 UNK     1       2.311   0.246   3.157  1.00  0.00     0.174 C 
HETATM   29  C18 UNK     1       3.681   0.206   2.514  1.00  0.00     0.034 C 
ENDBRANCH  27  28
ENDBRANCH  25  27
ENDBRANCH   8  25
BRANCH   2  30
HETATM   30  C2  UNK     1      -6.101  -2.946   1.617  1.00  0.00    -0.047 C 
HETATM   31  C10 UNK     1      -7.082  -2.409   0.561  1.00  0.00     0.015 C 
HETATM   32  C8  UNK     1      -6.819  -3.041   2.973  1.00  0.00     0.015 C 
HETATM   33  C9  UNK     1      -5.625  -4.347   1.197  1.00  0.00     0.015 C 
ENDBRANCH   2  30
TORSDOF 6
