REMARK  6 active torsions:
REMARK  status: ('A' for Active; 'I' for Inactive)
REMARK    1  A    between atoms: C12_16  and  O2_2 
REMARK    2  A    between atoms: C9_13  and  O2_2 
REMARK    3  A    between atoms: C3_7  and  C5_9 
REMARK    4  A    between atoms: C13_17  and  C5_9 
REMARK    5  A    between atoms: C12_16  and  C15_19 
REMARK    6  A    between atoms: C14_18  and  C15_19 
ROOT
HETATM    1  O1  UNK     1       2.069   1.280  -3.196  1.00  0.00    -0.274 OA
HETATM    2  O3  UNK     1       3.769   2.097  -4.458  1.00  0.00    -0.259 OA
HETATM    3  C1  UNK     1       2.314   1.090  -0.783  1.00  0.00     0.005 A 
HETATM    4  C2  UNK     1       3.676   1.652  -0.895  1.00  0.00    -0.036 A 
HETATM    5  C3  UNK     1       4.169   1.958  -2.114  1.00  0.00     0.028 A 
HETATM    6  C4  UNK     1       1.557   0.925  -1.939  1.00  0.00     0.092 A 
HETATM    7  C6  UNK     1       1.726   0.695   0.429  1.00  0.00     0.017 A 
HETATM    8  C7  UNK     1       0.262   0.401  -1.922  1.00  0.00     0.075 A 
HETATM    9  C8  UNK     1       3.347   1.791  -3.348  1.00  0.00     0.295 A 
HETATM   10  C9  UNK     1      -0.303   0.022  -0.710  1.00  0.00     0.072 A 
HETATM   11  C10 UNK     1       4.434   1.866   0.392  1.00  0.00     0.050 C 
HETATM   12  C11 UNK     1       0.429   0.167   0.465  1.00  0.00     0.038 A 
ENDROOT
BRANCH  10  13
HETATM   13  O2  UNK     1      -1.562  -0.491  -0.671  1.00  0.00    -0.344 OA
BRANCH  13  14
HETATM   14  C12 UNK     1      -2.075  -0.861   0.608  1.00  0.00     0.259 C 
BRANCH  14  15
HETATM   15  C15 UNK     1      -3.477  -1.421   0.464  1.00  0.00     0.183 C 
HETATM   16  O4  UNK     1      -4.038  -1.482  -0.627  1.00  0.00    -0.290 OA
BRANCH  15  17
HETATM   17  C14 UNK     1      -4.184  -1.907   1.684  1.00  0.00     0.012 A 
HETATM   18  C17 UNK     1      -3.538  -1.829   2.897  1.00  0.00     0.016 A 
HETATM   19  C19 UNK     1      -4.200  -2.281   4.038  1.00  0.00     0.007 A 
HETATM   20  C16 UNK     1      -5.491  -2.800   3.936  1.00  0.00    -0.062 A 
HETATM   21  C20 UNK     1      -6.119  -2.866   2.692  1.00  0.00     0.007 A 
HETATM   22  C21 UNK     1      -6.199  -3.285   5.156  1.00  0.00     0.048 C 
HETATM   23  C18 UNK     1      -5.457  -2.414   1.551  1.00  0.00     0.016 A 
ENDBRANCH  15  17
ENDBRANCH  14  15
ENDBRANCH  13  14
ENDBRANCH  10  13
BRANCH   5  24
HETATM   24  C5  UNK     1       5.560   2.477  -2.376  1.00  0.00     0.071 C 
BRANCH  24  25
HETATM   25  C13 UNK     1       5.607   3.968  -2.330  1.00  0.00    -0.032 C 
HETATM   26  C22 UNK     1       5.989   4.731  -3.361  1.00  0.00     0.007 C 
ENDBRANCH  24  25
ENDBRANCH   5  24
TORSDOF 6
