REMARK  1 active torsions:
REMARK  status: ('A' for Active; 'I' for Inactive)
REMARK    1  A    between atoms: C3_5  and  C7_9 
ROOT
HETATM    1  O1  UNK     1      -0.015   0.924   0.474  1.00  0.00    -0.309 OA
HETATM    2  O2  UNK     1      -1.853  -2.052  -1.615  1.00  0.00    -0.287 OA
HETATM    3  C1  UNK     1      -1.734  -0.790   0.379  1.00  0.00     0.048 A 
HETATM    4  C2  UNK     1      -1.062   0.239   1.037  1.00  0.00     0.090 A 
HETATM    5  C3  UNK     1       0.396   0.569  -0.802  1.00  0.00     0.090 A 
HETATM    6  C4  UNK     1      -2.794  -1.453   1.002  1.00  0.00     0.025 A 
HETATM    7  C5  UNK     1      -3.178  -1.078   2.290  1.00  0.00    -0.061 A 
HETATM    8  C6  UNK     1      -1.307  -1.162  -0.978  1.00  0.00     0.187 A 
HETATM    9  C8  UNK     1      -1.448   0.612   2.325  1.00  0.00     0.039 A 
HETATM   10  C9  UNK     1      -0.174  -0.398  -1.538  1.00  0.00     0.093 A 
HETATM   11  C10 UNK     1      -2.506  -0.048   2.950  1.00  0.00     0.009 A 
HETATM   12  C11 UNK     1      -4.308  -1.780   2.964  1.00  0.00     0.048 C 
ENDROOT
BRANCH   5  13
HETATM   13  C7  UNK     1       1.524   1.372  -1.313  1.00  0.00    -0.002 A 
HETATM   14  C12 UNK     1       1.645   1.623  -2.682  1.00  0.00     0.014 A 
HETATM   15  C14 UNK     1       2.711   2.382  -3.166  1.00  0.00     0.001 A 
HETATM   16  C16 UNK     1       3.660   2.893  -2.281  1.00  0.00     0.000 A 
HETATM   17  C15 UNK     1       3.543   2.646  -0.913  1.00  0.00     0.001 A 
HETATM   18  C13 UNK     1       2.477   1.887  -0.430  1.00  0.00     0.014 A 
ENDBRANCH   5  13
TORSDOF 1
