REMARK  7 active torsions:
REMARK  status: ('A' for Active; 'I' for Inactive)
REMARK    1  A    between atoms: C15_22  and  O3_3 
REMARK    2  A    between atoms: C23_30  and  O3_3 
REMARK    3  A    between atoms: C5_12  and  N1_5 
REMARK    4  A    between atoms: C6_13  and  N2_6 
REMARK    5  A    between atoms: C16_23  and  N3_7 
REMARK       I    between atoms: C9_16  and  N3_7 
REMARK    6  A    between atoms: C5_12  and  C7_14 
REMARK    7  A    between atoms: C6_13  and  C9_16 
ROOT
HETATM    1  N1  UNK     1       1.381  -0.353  -0.697  1.00  0.00     0.096 N 
HETATM    2  N2  UNK     1      -0.494  -1.342   1.269  1.00  0.00     0.100 N 
HETATM    3  C1  UNK     1       0.031  -0.784  -1.080  1.00  0.00     0.303 C 
HETATM    4  C2  UNK     1       1.836  -1.088   0.490  1.00  0.00     0.303 C 
HETATM    5  C3  UNK     1      -0.951  -0.606   0.084  1.00  0.00     0.303 C 
HETATM    6  C4  UNK     1       0.855  -0.909   1.653  1.00  0.00     0.303 C 
ENDROOT
BRANCH   1   7
HETATM    7  C5  UNK     1       2.316  -0.527  -1.806  1.00  0.00     0.312 C 
BRANCH   7   8
HETATM    8  C7  UNK     1       2.219   0.577  -2.801  1.00  0.00    -0.011 A 
HETATM    9  C10 UNK     1       1.379   0.499  -3.843  1.00  0.00     0.092 A 
HETATM   10  C13 UNK     1       1.250   1.564  -4.852  1.00  0.00     0.288 A 
HETATM   11  O1  UNK     1       2.049   2.684  -4.682  1.00  0.00    -0.275 OA
HETATM   12  O4  UNK     1       0.470   1.458  -5.792  1.00  0.00    -0.260 OA
HETATM   13  C11 UNK     1       2.942   2.794  -3.597  1.00  0.00     0.090 A 
HETATM   14  C8  UNK     1       3.055   1.776  -2.649  1.00  0.00     0.009 A 
HETATM   15  C14 UNK     1       3.699   3.965  -3.527  1.00  0.00     0.041 A 
HETATM   16  C12 UNK     1       3.967   1.962  -1.601  1.00  0.00     0.051 A 
HETATM   17  C15 UNK     1       4.732   3.131  -1.518  1.00  0.00     0.069 A 
HETATM   18  C17 UNK     1       4.598   4.131  -2.479  1.00  0.00     0.039 A 
BRANCH  17  19
HETATM   19  O3  UNK     1       5.613   3.291  -0.492  1.00  0.00    -0.351 OA
BRANCH  19  20
HETATM   20  C23 UNK     1       5.291   2.657   0.745  1.00  0.00     0.171 C 
HETATM   21  C25 UNK     1       5.884   3.462   1.881  1.00  0.00     0.034 C 
ENDBRANCH  19  20
ENDBRANCH  17  19
ENDBRANCH   7   8
ENDBRANCH   1   7
BRANCH   2  22
HETATM   22  C6  UNK     1      -1.430  -1.170   2.379  1.00  0.00     0.375 C 
BRANCH  22  23
HETATM   23  C9  UNK     1      -2.614  -2.102   2.190  1.00  0.00     0.250 C 
HETATM   24  O2  UNK     1      -2.520  -3.184   1.619  1.00  0.00    -0.271 OA
HETATM   25  N3  UNK     1      -3.760  -1.546   2.756  1.00  0.00    -0.325 N 
HETATM   26  H15 UNK     1      -3.658  -0.640   3.203  1.00  0.00     0.169 HD
BRANCH  25  27
HETATM   27  C16 UNK     1      -5.062  -2.100   2.790  1.00  0.00     0.040 A 
HETATM   28  C18 UNK     1      -6.115  -1.416   3.398  1.00  0.00    -0.035 A 
HETATM   29  C20 UNK     1      -7.391  -1.979   3.422  1.00  0.00     0.009 A 
HETATM   30  C21 UNK     1      -5.904  -0.079   4.032  1.00  0.00     0.050 C 
HETATM   31  C24 UNK     1      -7.614  -3.225   2.837  1.00  0.00     0.001 A 
HETATM   32  C22 UNK     1      -6.562  -3.909   2.229  1.00  0.00     0.002 A 
HETATM   33  C19 UNK     1      -5.286  -3.347   2.205  1.00  0.00     0.030 A 
ENDBRANCH  25  27
ENDBRANCH  22  23
ENDBRANCH   2  22
TORSDOF 7
