REMARK  6 active torsions:
REMARK  status: ('A' for Active; 'I' for Inactive)
REMARK    1  A    between atoms: C18_25  and  O1_2 
REMARK    2  A    between atoms: C7_14  and  O1_2 
REMARK    3  A    between atoms: C5_12  and  N1_5 
REMARK    4  A    between atoms: C6_13  and  N2_6 
REMARK    5  A    between atoms: C10_17  and  N3_7 
REMARK    6  A    between atoms: C6_13  and  N3_7 
ROOT
HETATM    1  S1  UNK     1       2.228  -0.274   4.026  1.00  0.00    -0.041 SA
HETATM    2  C6  UNK     1       1.714   0.302   2.536  1.00  0.00     0.174 C 
ENDROOT
BRANCH   2   3
HETATM    3  N2  UNK     1       0.629  -0.245   1.936  1.00  0.00    -0.355 N 
HETATM    4  C3  UNK     1      -0.269   0.539   1.104  1.00  0.00     0.145 C 
HETATM    5  C1  UNK     1      -1.722   0.344   1.536  1.00  0.00     0.143 C 
HETATM    6  N1  UNK     1      -2.034  -1.088   1.649  1.00  0.00    -0.376 N 
HETATM    7  C2  UNK     1      -1.115  -1.884   2.481  1.00  0.00     0.143 C 
HETATM    8  C4  UNK     1       0.329  -1.665   2.033  1.00  0.00     0.145 C 
BRANCH   6   9
HETATM    9  C5  UNK     1      -3.363  -1.515   1.561  1.00  0.00     0.064 A 
HETATM   10  C7  UNK     1      -4.153  -1.281   0.409  1.00  0.00     0.095 A 
HETATM   11  C9  UNK     1      -5.477  -1.713   0.334  1.00  0.00     0.039 A 
HETATM   12  C12 UNK     1      -6.051  -2.392   1.409  1.00  0.00     0.003 A 
HETATM   13  C11 UNK     1      -5.301  -2.639   2.559  1.00  0.00     0.002 A 
HETATM   14  C8  UNK     1      -3.976  -2.207   2.633  1.00  0.00     0.032 A 
BRANCH  10  15
HETATM   15  O1  UNK     1      -3.611  -0.619  -0.652  1.00  0.00    -0.349 OA
BRANCH  15  16
HETATM   16  C18 UNK     1      -3.567  -1.315  -1.895  1.00  0.00     0.171 C 
HETATM   17  C21 UNK     1      -2.381  -0.821  -2.696  1.00  0.00     0.034 C 
ENDBRANCH  15  16
ENDBRANCH  10  15
ENDBRANCH   6   9
ENDBRANCH   2   3
BRANCH   2  18
HETATM   18  N3  UNK     1       2.352   1.374   1.935  1.00  0.00    -0.333 N 
HETATM   19  H10 UNK     1       2.797   2.014   2.589  1.00  0.00     0.168 HD
BRANCH  18  20
HETATM   20  C10 UNK     1       2.514   1.728   0.595  1.00  0.00     0.036 A 
HETATM   21  C13 UNK     1       2.545   0.745  -0.388  1.00  0.00     0.067 A 
HETATM   22  C16 UNK     1       2.707   1.122  -1.723  1.00  0.00     0.092 A 
HETATM   23  C15 UNK     1       2.841   2.456  -2.110  1.00  0.00     0.004 A 
HETATM   24  O2  UNK     1       2.729   0.082  -2.674  1.00  0.00    -0.275 OA
HETATM   25  C19 UNK     1       3.007   2.762  -3.537  1.00  0.00    -0.043 A 
HETATM   26  C17 UNK     1       2.807   3.431  -1.104  1.00  0.00     0.017 A 
HETATM   27  C20 UNK     1       3.025   1.752  -4.419  1.00  0.00     0.090 A 
HETATM   28  C22 UNK     1       3.154   4.186  -3.985  1.00  0.00     0.049 C 
HETATM   29  C23 UNK     1       2.885   0.340  -4.026  1.00  0.00     0.288 A 
HETATM   30  O3  UNK     1       2.906  -0.557  -4.862  1.00  0.00    -0.260 OA
HETATM   31  C14 UNK     1       2.645   3.069   0.238  1.00  0.00     0.030 A 
ENDBRANCH  18  20
ENDBRANCH   2  18
TORSDOF 6
