REMARK  0 active torsions:
REMARK  status: ('A' for Active; 'I' for Inactive)
ROOT
HETATM    1  O1  UNK     1       1.311   0.820  -2.257  1.00  0.00    -0.333 OA
HETATM    2  O2  UNK     1      -1.079  -0.498   1.763  1.00  0.00    -0.274 OA
HETATM    3  O3  UNK     1       3.625   0.982   0.386  1.00  0.00    -0.294 OA
HETATM    4  O4  UNK     1      -2.259  -1.129   3.622  1.00  0.00    -0.260 OA
HETATM    5  C1  UNK     1       2.234   1.604  -1.503  1.00  0.00     0.121 C 
HETATM    6  C2  UNK     1       1.291   0.621   0.686  1.00  0.00     0.126 C 
HETATM    7  C3  UNK     1       0.170   0.167  -0.198  1.00  0.00     0.017 A 
HETATM    8  C4  UNK     1       2.500   1.030  -0.111  1.00  0.00     0.165 C 
HETATM    9  C5  UNK     1       0.243   0.286  -1.588  1.00  0.00     0.080 A 
HETATM   10  C6  UNK     1       1.714   3.041  -1.383  1.00  0.00     0.055 C 
HETATM   11  C7  UNK     1       3.535   1.606  -2.316  1.00  0.00     0.055 C 
HETATM   12  C8  UNK     1      -0.993  -0.393   0.354  1.00  0.00     0.099 A 
HETATM   13  C9  UNK     1      -2.049  -0.845  -0.437  1.00  0.00    -0.001 A 
HETATM   14  C10 UNK     1      -0.804  -0.176  -2.395  1.00  0.00     0.038 A 
HETATM   15  C11 UNK     1      -1.947  -0.738  -1.823  1.00  0.00     0.017 A 
HETATM   16  C12 UNK     1      -3.221  -1.417   0.205  1.00  0.00     0.020 A 
HETATM   17  C13 UNK     1      -3.285  -1.508   1.535  1.00  0.00     0.083 A 
HETATM   18  C14 UNK     1      -2.189  -1.041   2.401  1.00  0.00     0.288 A 
ENDROOT
TORSDOF 0
