REMARK  4 active torsions:
REMARK  status: ('A' for Active; 'I' for Inactive)
REMARK    1  A    between atoms: C11_16  and  O1_2 
REMARK    2  A    between atoms: C17_22  and  O1_2 
REMARK    3  A    between atoms: C15_20  and  O4_5 
REMARK    4  A    between atoms: C6_11  and  C7_12 
ROOT
HETATM    1  I1  UNK     1      -2.480  -4.374  -0.280  1.00  0.00    -0.042 I 
HETATM    2  C7  UNK     1      -1.749  -0.119  -0.497  1.00  0.00    -0.031 A 
HETATM    3  C10 UNK     1      -2.250   0.404   0.683  1.00  0.00     0.051 A 
HETATM    4  C11 UNK     1      -2.833  -0.453   1.616  1.00  0.00     0.103 A 
HETATM    5  C12 UNK     1      -1.814  -1.474  -0.772  1.00  0.00     0.032 A 
HETATM    6  C15 UNK     1      -2.906  -1.822   1.355  1.00  0.00     0.115 A 
HETATM    7  C16 UNK     1      -2.397  -2.332   0.161  1.00  0.00     0.043 A 
ENDROOT
BRANCH   2   8
HETATM    8  C6  UNK     1      -1.133   0.789  -1.483  1.00  0.00     0.031 C 
HETATM    9  C1  UNK     1       0.150   1.145  -1.524  1.00  0.00     0.067 A 
HETATM   10  C4  UNK     1       0.749   2.061  -2.527  1.00  0.00     0.197 A 
HETATM   11  C5  UNK     1       1.192   0.683  -0.572  1.00  0.00     0.197 A 
HETATM   12  C2  UNK     1       2.169   2.136  -2.153  1.00  0.00     0.029 A 
HETATM   13  O2  UNK     1       0.203   2.627  -3.450  1.00  0.00    -0.286 OA
HETATM   14  C3  UNK     1       2.424   1.343  -1.030  1.00  0.00     0.029 A 
HETATM   15  C8  UNK     1       3.170   2.860  -2.771  1.00  0.00     0.016 A 
HETATM   16  C9  UNK     1       3.689   1.246  -0.484  1.00  0.00     0.016 A 
HETATM   17  C14 UNK     1       4.713   1.973  -1.099  1.00  0.00     0.001 A 
HETATM   18  C13 UNK     1       4.456   2.771  -2.230  1.00  0.00     0.001 A 
HETATM   19  O3  UNK     1       1.071  -0.068   0.371  1.00  0.00    -0.286 OA
ENDBRANCH   2   8
BRANCH   4  20
HETATM   20  O1  UNK     1      -3.326   0.060   2.777  1.00  0.00    -0.349 OA
BRANCH  20  21
HETATM   21  C17 UNK     1      -2.406   0.743   3.627  1.00  0.00     0.171 C 
HETATM   22  C18 UNK     1      -2.861   0.598   5.063  1.00  0.00     0.034 C 
ENDBRANCH  20  21
ENDBRANCH   4  20
BRANCH   6  23
HETATM   23  O4  UNK     1      -3.483  -2.637   2.285  1.00  0.00    -0.357 OA
HETATM   24  H13 UNK     1      -3.453  -3.550   1.950  1.00  0.00     0.218 HD
ENDBRANCH   6  23
TORSDOF 4
