REMARK  4 active torsions:
REMARK  status: ('A' for Active; 'I' for Inactive)
REMARK    1  A    between atoms: C12_20  and  O2_6 
REMARK    2  A    between atoms: C5_13  and  O2_6 
REMARK    3  A    between atoms: C8_16  and  O3_7 
REMARK    4  A    between atoms: C11_19  and  C6_14 
ROOT
HETATM    1  O1  UNK     1       0.946   0.592  -2.073  1.00  0.00    -0.301 OA
HETATM    2  O4  UNK     1      -0.315   1.345   1.726  1.00  0.00    -0.284 OA
HETATM    3  C1  UNK     1       1.828   1.072  -1.140  1.00  0.00     0.099 A 
HETATM    4  C2  UNK     1       1.462   1.349   0.175  1.00  0.00     0.051 A 
HETATM    5  C3  UNK     1       3.144   1.282  -1.556  1.00  0.00     0.006 A 
HETATM    6  C4  UNK     1       0.069   1.119   0.586  1.00  0.00     0.221 A 
HETATM    7  C5  UNK     1      -0.846   0.599  -0.458  1.00  0.00     0.165 A 
HETATM    8  C6  UNK     1      -0.370   0.371  -1.694  1.00  0.00     0.197 A 
HETATM    9  C7  UNK     1       2.404   1.838   1.083  1.00  0.00     0.021 A 
HETATM   10  C8  UNK     1       4.088   1.770  -0.652  1.00  0.00     0.074 A 
HETATM   11  C9  UNK     1       3.719   2.047   0.665  1.00  0.00     0.038 A 
HETATM   12  C10 UNK     1       3.549   0.987  -2.965  1.00  0.00     0.054 C 
ENDROOT
BRANCH   7  13
HETATM   13  O2  UNK     1      -2.160   0.368  -0.115  1.00  0.00    -0.304 OA
BRANCH  13  14
HETATM   14  C12 UNK     1      -2.390  -0.536   0.884  1.00  0.00     0.076 A 
HETATM   15  C13 UNK     1      -1.705  -1.748   0.892  1.00  0.00     0.039 A 
HETATM   16  C15 UNK     1      -1.942  -2.671   1.911  1.00  0.00     0.026 A 
HETATM   17  C17 UNK     1      -2.861  -2.378   2.918  1.00  0.00     0.034 A 
HETATM   18  C16 UNK     1      -3.544  -1.162   2.906  1.00  0.00     0.026 A 
HETATM   19 Cl1  UNK     1      -3.153  -3.517   4.175  1.00  0.00    -0.084 Cl
HETATM   20  C14 UNK     1      -3.308  -0.239   1.887  1.00  0.00     0.039 A 
ENDBRANCH  13  14
ENDBRANCH   7  13
BRANCH   8  21
HETATM   21  C11 UNK     1      -1.210  -0.154  -2.819  1.00  0.00     0.442 C 
HETATM   22  F1  UNK     1      -2.482  -0.357  -2.416  1.00  0.00    -0.164 F 
HETATM   23  F2  UNK     1      -1.240   0.715  -3.851  1.00  0.00    -0.164 F 
HETATM   24  F3  UNK     1      -0.731  -1.327  -3.279  1.00  0.00    -0.164 F 
ENDBRANCH   8  21
BRANCH  10  25
HETATM   25  O3  UNK     1       5.378   1.982  -1.037  1.00  0.00    -0.360 OA
HETATM   26  H8  UNK     1       5.885   2.320  -0.279  1.00  0.00     0.217 HD
ENDBRANCH  10  25
TORSDOF 4
