REMARK  4 active torsions:
REMARK  status: ('A' for Active; 'I' for Inactive)
REMARK    1  A    between atoms: C6_12  and  S1_1 
REMARK    2  A    between atoms: N1_6  and  S1_1 
REMARK    3  A    between atoms: C2_8  and  N1_6 
REMARK    4  A    between atoms: C1_7  and  C2_8 
ROOT
HETATM    1  O3  UNK     1       3.369   0.940  -1.938  1.00  0.00    -0.275 OA
HETATM    2  O4  UNK     1       4.066   1.937  -3.878  1.00  0.00    -0.260 OA
HETATM    3  C6  UNK     1       0.440   0.362   0.919  1.00  0.00     0.080 A 
HETATM    4  C7  UNK     1       0.152   1.207  -0.128  1.00  0.00     0.039 A 
HETATM    5  C8  UNK     1       1.639  -0.295   1.060  1.00  0.00     0.028 A 
HETATM    6  C9  UNK     1       1.132   1.413  -1.102  1.00  0.00    -0.001 A 
HETATM    7  C10 UNK     1       2.354   0.757  -0.976  1.00  0.00     0.089 A 
HETATM    8  C11 UNK     1       2.622  -0.095   0.093  1.00  0.00     0.040 A 
HETATM    9  C12 UNK     1       0.921   2.287  -2.243  1.00  0.00     0.020 A 
HETATM   10  C13 UNK     1       1.887   2.455  -3.149  1.00  0.00     0.083 A 
HETATM   11  C14 UNK     1       3.189   1.772  -3.038  1.00  0.00     0.288 A 
ENDROOT
BRANCH   3  12
HETATM   12  S1  UNK     1      -0.820   0.101   2.167  1.00  0.00     0.258 S 
HETATM   13  O1  UNK     1      -0.100  -0.249   3.376  1.00  0.00    -0.201 OA
HETATM   14  O2  UNK     1      -1.629   1.302   2.092  1.00  0.00    -0.201 OA
BRANCH  12  15
HETATM   15  N1  UNK     1      -1.764  -1.234   1.661  1.00  0.00    -0.315 N 
HETATM   16  H12 UNK     1      -1.423  -2.170   1.910  1.00  0.00     0.172 HD
BRANCH  15  17
HETATM   17  C2  UNK     1      -2.472  -1.129   0.363  1.00  0.00     0.140 C 
BRANCH  17  18
HETATM   18  C1  UNK     1      -3.746  -1.999   0.328  1.00  0.00    -0.035 C 
HETATM   19  C3  UNK     1      -4.707  -1.490   1.419  1.00  0.00     0.016 C 
HETATM   20  C4  UNK     1      -3.419  -3.475   0.615  1.00  0.00     0.016 C 
HETATM   21  C5  UNK     1      -4.449  -1.888  -1.036  1.00  0.00     0.016 C 
ENDBRANCH  17  18
ENDBRANCH  15  17
ENDBRANCH  12  15
ENDBRANCH   3  12
TORSDOF 4
