REMARK  6 active torsions:
REMARK  status: ('A' for Active; 'I' for Inactive)
REMARK    1  A    between atoms: C16_22  and  O4_4 
REMARK    2  A    between atoms: C21_27  and  O4_4 
REMARK    3  A    between atoms: C5_11  and  N1_5 
REMARK       I    between atoms: C6_12  and  N2_6 
REMARK    4  A    between atoms: C5_11  and  C8_14 
REMARK    5  A    between atoms: C6_12  and  C7_13 
REMARK    6  A    between atoms: C12_18  and  C14_20 
ROOT
HETATM    1  O1  UNK     1       0.341   2.743   1.383  1.00  0.00    -0.267 OA
HETATM    2  N1  UNK     1      -1.546  -1.839   0.699  1.00  0.00     0.095 N 
HETATM    3  N2  UNK     1       0.119   0.499   0.808  1.00  0.00    -0.344 N 
HETATM    4  C1  UNK     1      -2.056  -0.589   1.278  1.00  0.00     0.292 C 
HETATM    5  C2  UNK     1      -0.610  -1.546  -0.394  1.00  0.00     0.292 C 
HETATM    6  C3  UNK     1      -0.907   0.255   1.823  1.00  0.00     0.156 C 
HETATM    7  C4  UNK     1       0.571  -0.703   0.096  1.00  0.00     0.156 C 
HETATM    8  C6  UNK     1       0.661   1.777   0.688  1.00  0.00     0.260 C 
ENDROOT
BRANCH   8   9
HETATM    9  C7  UNK     1       1.700   1.988  -0.340  1.00  0.00     0.108 A 
HETATM   10  C10 UNK     1       3.140   1.802  -0.052  1.00  0.00     0.304 A 
HETATM   11  O2  UNK     1       4.023   2.030  -1.104  1.00  0.00    -0.271 OA
HETATM   12  O3  UNK     1       3.541   1.463   1.056  1.00  0.00    -0.259 OA
HETATM   13  C13 UNK     1       3.573   2.420  -2.380  1.00  0.00     0.123 A 
HETATM   14  C11 UNK     1       2.215   2.590  -2.630  1.00  0.00     0.002 A 
HETATM   15  C16 UNK     1       4.532   2.626  -3.370  1.00  0.00     0.103 A 
HETATM   16  C9  UNK     1       1.267   2.358  -1.551  1.00  0.00     0.037 A 
HETATM   17  C15 UNK     1       1.808   2.978  -3.908  1.00  0.00     0.014 A 
HETATM   18  C18 UNK     1       2.759   3.189  -4.911  1.00  0.00     0.004 A 
HETATM   19  C17 UNK     1       4.118   3.013  -4.642  1.00  0.00     0.040 A 
BRANCH  15  20
HETATM   20  O4  UNK     1       5.857   2.456  -3.112  1.00  0.00    -0.349 OA
BRANCH  20  21
HETATM   21  C21 UNK     1       6.682   2.037  -4.199  1.00  0.00     0.171 C 
HETATM   22  C25 UNK     1       7.843   1.233  -3.655  1.00  0.00     0.034 C 
ENDBRANCH  20  21
ENDBRANCH  15  20
ENDBRANCH   8   9
BRANCH   2  23
HETATM   23  C5  UNK     1      -2.649  -2.672   0.221  1.00  0.00     0.300 C 
BRANCH  23  24
HETATM   24  C8  UNK     1      -3.590  -3.031   1.333  1.00  0.00     0.004 C 
HETATM   25  C12 UNK     1      -4.892  -2.705   1.329  1.00  0.00     0.009 C 
BRANCH  25  26
HETATM   26  C14 UNK     1      -5.857  -3.049   2.387  1.00  0.00    -0.036 A 
HETATM   27  C19 UNK     1      -5.392  -3.378   3.650  1.00  0.00     0.011 A 
HETATM   28  C22 UNK     1      -6.306  -3.703   4.652  1.00  0.00     0.001 A 
HETATM   29  C24 UNK     1      -7.674  -3.694   4.378  1.00  0.00     0.000 A 
HETATM   30  C23 UNK     1      -8.127  -3.361   3.102  1.00  0.00     0.001 A 
HETATM   31  C20 UNK     1      -7.213  -3.036   2.100  1.00  0.00     0.011 A 
ENDBRANCH  25  26
ENDBRANCH  23  24
ENDBRANCH   2  23
TORSDOF 6
