REMARK  2 active torsions:
REMARK  status: ('A' for Active; 'I' for Inactive)
REMARK    1  A    between atoms: C7_13  and  O2_5 
REMARK    2  A    between atoms: C10_16  and  C5_11 
ROOT
HETATM    1  O1  UNK     1       1.154   0.653   0.264  1.00  0.00    -0.309 OA
HETATM    2  O3  UNK     1      -1.420  -0.201  -2.778  1.00  0.00    -0.287 OA
HETATM    3  C1  UNK     1      -0.979  -0.261  -0.456  1.00  0.00     0.051 A 
HETATM    4  C2  UNK     1      -0.053   0.059   0.535  1.00  0.00     0.090 A 
HETATM    5  C3  UNK     1      -0.655   0.051  -1.857  1.00  0.00     0.187 A 
HETATM    6  C4  UNK     1      -2.193  -0.866  -0.121  1.00  0.00     0.055 A 
HETATM    7  C5  UNK     1       1.461   0.948  -1.055  1.00  0.00     0.111 A 
HETATM    8  C6  UNK     1      -0.336  -0.226   1.871  1.00  0.00     0.041 A 
HETATM    9  C7  UNK     1      -2.473  -1.150   1.216  1.00  0.00     0.069 A 
HETATM   10  C8  UNK     1       0.653   0.690  -2.094  1.00  0.00     0.093 A 
HETATM   11  C9  UNK     1      -1.547  -0.831   2.210  1.00  0.00     0.039 A 
ENDROOT
BRANCH   7  12
HETATM   12  C10 UNK     1       2.800   1.594  -1.226  1.00  0.00     0.237 C 
HETATM   13 Cl1  UNK     1       2.574   3.194  -1.972  1.00  0.00    -0.076 Cl
HETATM   14 Cl2  UNK     1       3.585   1.779   0.362  1.00  0.00    -0.076 Cl
HETATM   15 Cl3  UNK     1       3.824   0.582  -2.274  1.00  0.00    -0.076 Cl
ENDBRANCH   7  12
BRANCH   9  16
HETATM   16  O2  UNK     1      -3.653  -1.739   1.552  1.00  0.00    -0.356 OA
HETATM   17  C11 UNK     1      -3.877  -2.000   2.937  1.00  0.00     0.210 C 
ENDBRANCH   9  16
TORSDOF 2
