REMARK  4 active torsions:
REMARK  status: ('A' for Active; 'I' for Inactive)
REMARK    1  A    between atoms: C8_14  and  O1_2 
REMARK    2  A    between atoms: C6_12  and  N1_5 
REMARK    3  A    between atoms: C1_7  and  C2_8 
REMARK    4  A    between atoms: C3_9  and  C5_11 
ROOT
HETATM    1  N2  UNK     1      -1.734   2.368  -0.205  1.00  0.00    -0.191 NA
HETATM    2  C2  UNK     1      -0.142  -0.686  -0.378  1.00  0.00     0.035 C 
HETATM    3  C5  UNK     1      -1.264  -0.160   0.183  1.00  0.00     0.055 C 
HETATM    4  C15 UNK     1      -1.516   1.241  -0.037  1.00  0.00     0.100 C 
ENDROOT
BRANCH   3   5
HETATM    5  C3  UNK     1      -2.210  -0.929   0.975  1.00  0.00    -0.015 A 
HETATM    6  C10 UNK     1      -3.284  -1.567   0.354  1.00  0.00     0.016 A 
HETATM    7  C12 UNK     1      -4.192  -2.304   1.115  1.00  0.00     0.043 A 
HETATM    8  C14 UNK     1      -4.025  -2.404   2.496  1.00  0.00     0.116 A 
HETATM    9  C13 UNK     1      -2.951  -1.766   3.117  1.00  0.00     0.043 A 
HETATM   10  F1  UNK     1      -4.897  -3.110   3.227  1.00  0.00    -0.206 F 
HETATM   11  C11 UNK     1      -2.044  -1.028   2.356  1.00  0.00     0.016 A 
ENDBRANCH   3   5
BRANCH   2  12
HETATM   12  C1  UNK     1       0.836   0.052  -1.190  1.00  0.00    -0.032 A 
HETATM   13  C4  UNK     1       1.910   0.673  -0.568  1.00  0.00     0.050 A 
HETATM   14  C6  UNK     1       2.838   1.373  -1.340  1.00  0.00     0.136 A 
HETATM   15  C8  UNK     1       2.682   1.444  -2.724  1.00  0.00     0.098 A 
HETATM   16  C9  UNK     1       1.598   0.815  -3.337  1.00  0.00     0.040 A 
HETATM   17  C7  UNK     1       0.670   0.116  -2.566  1.00  0.00     0.014 A 
BRANCH  14  18
HETATM   18  N1  UNK     1       3.937   2.007  -0.698  1.00  0.00    -0.113 N 
HETATM   19  O2  UNK     1       4.043   1.921   0.549  1.00  0.00    -0.532 OA
HETATM   20  O3  UNK     1       4.767   2.635  -1.397  1.00  0.00    -0.532 OA
ENDBRANCH  14  18
BRANCH  15  21
HETATM   21  O1  UNK     1       3.576   2.121  -3.499  1.00  0.00    -0.358 OA
HETATM   22  H9  UNK     1       3.302   2.058  -4.430  1.00  0.00     0.217 HD
ENDBRANCH  15  21
ENDBRANCH   2  12
TORSDOF 4
