REMARK  4 active torsions:
REMARK  status: ('A' for Active; 'I' for Inactive)
REMARK    1  A    between atoms: C7_12  and  O2_2 
REMARK    2  A    between atoms: C11_16  and  O3_3 
REMARK    3  A    between atoms: C14_19  and  O4_4 
REMARK    4  A    between atoms: C1_6  and  C2_7 
ROOT
HETATM    1  O1  UNK     1      -0.632   0.518   0.445  1.00  0.00    -0.309 OA
HETATM    2  O5  UNK     1      -2.448  -2.269  -1.908  1.00  0.00    -0.287 OA
HETATM    3  C1  UNK     1      -0.199   0.263  -0.848  1.00  0.00     0.093 A 
HETATM    4  C3  UNK     1      -2.360  -1.169   0.182  1.00  0.00     0.048 A 
HETATM    5  C4  UNK     1      -1.695  -0.200   0.932  1.00  0.00     0.093 A 
HETATM    6  C5  UNK     1      -0.761  -0.638  -1.669  1.00  0.00     0.094 A 
HETATM    7  C6  UNK     1      -1.909  -1.436  -1.192  1.00  0.00     0.187 A 
HETATM    8  C8  UNK     1      -2.104   0.074   2.237  1.00  0.00     0.075 A 
HETATM    9  C9  UNK     1      -3.437  -1.869   0.729  1.00  0.00     0.021 A 
HETATM   10  C11 UNK     1      -3.179  -0.624   2.787  1.00  0.00     0.070 A 
HETATM   11  C13 UNK     1      -3.844  -1.593   2.035  1.00  0.00     0.038 A 
ENDROOT
BRANCH   3  12
HETATM   12  C2  UNK     1       0.944   1.095  -1.273  1.00  0.00     0.031 A 
HETATM   13  C10 UNK     1       0.699   2.332  -1.876  1.00  0.00     0.020 A 
HETATM   14  C15 UNK     1       1.762   3.136  -2.287  1.00  0.00     0.038 A 
HETATM   15  C14 UNK     1       3.075   2.707  -2.096  1.00  0.00     0.070 A 
HETATM   16  C12 UNK     1       3.326   1.474  -1.494  1.00  0.00     0.074 A 
HETATM   17  C7  UNK     1       2.262   0.669  -1.084  1.00  0.00     0.083 A 
BRANCH  15  18
HETATM   18  O4  UNK     1       4.113   3.492  -2.496  1.00  0.00    -0.356 OA
HETATM   19  C18 UNK     1       3.785   4.741  -3.104  1.00  0.00     0.210 C 
ENDBRANCH  15  18
BRANCH  17  20
HETATM   20  O2  UNK     1       2.535  -0.532  -0.499  1.00  0.00    -0.355 OA
HETATM   21  C16 UNK     1       2.681  -0.543   0.919  1.00  0.00     0.210 C 
ENDBRANCH  17  20
ENDBRANCH   3  12
BRANCH  10  22
HETATM   22  O3  UNK     1      -3.580  -0.359   4.061  1.00  0.00    -0.356 OA
HETATM   23  C17 UNK     1      -4.685  -1.109   4.563  1.00  0.00     0.210 C 
ENDBRANCH  10  22
TORSDOF 4
