REMARK  5 active torsions:
REMARK  status: ('A' for Active; 'I' for Inactive)
REMARK    1  A    between atoms: C13_20  and  O2_2 
REMARK    2  A    between atoms: C9_16  and  O2_2 
REMARK    3  A    between atoms: C5_12  and  N1_6 
REMARK       I    between atoms: C6_13  and  N1_6 
REMARK       I    between atoms: C13_20  and  N2_7 
REMARK    4  A    between atoms: C2_9  and  C6_13 
REMARK    5  A    between atoms: C5_12  and  C9_16 
ROOT
HETATM    1  O3  UNK     1      -1.946   0.172  -1.968  1.00  0.00    -0.267 OA
HETATM    2  N1  UNK     1      -1.355  -1.468  -0.420  1.00  0.00    -0.355 N 
HETATM    3  C6  UNK     1      -1.144  -0.335  -1.186  1.00  0.00     0.257 C 
HETATM    4  H4  UNK     1      -0.620  -1.821   0.184  1.00  0.00     0.162 HD
ENDROOT
BRANCH   3   5
HETATM    5  C2  UNK     1       0.185   0.252  -0.982  1.00  0.00     0.108 A 
HETATM    6  C4  UNK     1       0.714   0.897  -2.029  1.00  0.00     0.037 A 
HETATM    7  C1  UNK     1       2.028   1.512  -1.924  1.00  0.00    -0.001 A 
HETATM    8  C3  UNK     1       2.721   1.418  -0.722  1.00  0.00     0.089 A 
HETATM    9  C7  UNK     1       2.618   2.194  -2.991  1.00  0.00     0.014 A 
HETATM   10  C10 UNK     1       3.983   1.984  -0.556  1.00  0.00     0.038 A 
HETATM   11  O1  UNK     1       2.159   0.738   0.377  1.00  0.00    -0.274 OA
HETATM   12  C12 UNK     1       4.564   2.663  -1.625  1.00  0.00     0.003 A 
HETATM   13  C11 UNK     1       3.883   2.768  -2.840  1.00  0.00     0.001 A 
HETATM   14  C8  UNK     1       0.904   0.140   0.307  1.00  0.00     0.304 A 
HETATM   15  O4  UNK     1       0.424  -0.450   1.268  1.00  0.00    -0.259 OA
ENDBRANCH   3   5
BRANCH   2  16
HETATM   16  C5  UNK     1      -2.590  -2.219  -0.448  1.00  0.00     0.149 C 
BRANCH  16  17
HETATM   17  C9  UNK     1      -3.577  -1.708   0.586  1.00  0.00     0.200 C 
BRANCH  17  18
HETATM   18  O2  UNK     1      -3.021  -1.859   1.886  1.00  0.00    -0.303 OA
BRANCH  18  19
HETATM   19  C13 UNK     1      -3.802  -1.438   2.928  1.00  0.00     0.358 C 
HETATM   20  O5  UNK     1      -4.922  -0.951   2.813  1.00  0.00    -0.239 OA
HETATM   21  N2  UNK     1      -3.162  -1.633   4.126  1.00  0.00    -0.346 N 
HETATM   22  H11 UNK     1      -2.234  -2.040   4.169  1.00  0.00     0.161 HD
HETATM   23  H12 UNK     1      -3.598  -1.376   5.006  1.00  0.00     0.161 HD
ENDBRANCH  18  19
ENDBRANCH  17  18
ENDBRANCH  16  17
ENDBRANCH   2  16
TORSDOF 5
