REMARK  6 active torsions:
REMARK  status: ('A' for Active; 'I' for Inactive)
REMARK    1  A    between atoms: C17_23  and  O2_3 
REMARK    2  A    between atoms: C22_28  and  O2_3 
REMARK    3  A    between atoms: C5_11  and  N1_5 
REMARK    4  A    between atoms: C6_12  and  N2_6 
REMARK    5  A    between atoms: C5_11  and  C7_13 
REMARK    6  A    between atoms: C6_12  and  C8_14 
ROOT
HETATM    1  C5  UNK     1       0.041  -1.517   0.979  1.00  0.00     0.312 C 
ENDROOT
BRANCH   1   2
HETATM    2  N1  UNK     1       0.459  -0.230   0.426  1.00  0.00     0.096 N 
HETATM    3  C1  UNK     1       1.379   0.457   1.341  1.00  0.00     0.303 C 
HETATM    4  C3  UNK     1       1.820   1.805   0.760  1.00  0.00     0.303 C 
HETATM    5  N2  UNK     1       2.443   1.628  -0.557  1.00  0.00     0.096 N 
HETATM    6  C4  UNK     1       1.524   0.940  -1.472  1.00  0.00     0.303 C 
HETATM    7  C2  UNK     1       1.084  -0.408  -0.891  1.00  0.00     0.303 C 
BRANCH   5   8
HETATM    8  C6  UNK     1       2.860   2.915  -1.111  1.00  0.00     0.311 C 
BRANCH   8   9
HETATM    9  C8  UNK     1       3.901   2.753  -2.186  1.00  0.00    -0.029 A 
HETATM   10  C12 UNK     1       3.793   3.471  -3.377  1.00  0.00     0.032 A 
HETATM   11  C18 UNK     1       4.758   3.320  -4.372  1.00  0.00     0.034 A 
HETATM   12  C21 UNK     1       5.831   2.451  -4.177  1.00  0.00     0.024 A 
HETATM   13 Cl1  UNK     1       4.625   4.207  -5.841  1.00  0.00    -0.084 Cl
HETATM   14  C19 UNK     1       5.940   1.733  -2.987  1.00  0.00     0.002 A 
HETATM   15  C13 UNK     1       4.975   1.884  -1.991  1.00  0.00     0.009 A 
ENDBRANCH   8   9
ENDBRANCH   5   8
ENDBRANCH   1   2
BRANCH   1  16
HETATM   16  C7  UNK     1      -1.040  -1.367   1.993  1.00  0.00    -0.011 A 
HETATM   17  C10 UNK     1      -0.754  -1.200   3.292  1.00  0.00     0.092 A 
HETATM   18  C15 UNK     1      -1.788  -1.049   4.329  1.00  0.00     0.288 A 
HETATM   19  O1  UNK     1      -3.107  -1.086   3.905  1.00  0.00    -0.275 OA
HETATM   20  O3  UNK     1      -1.488  -0.897   5.509  1.00  0.00    -0.260 OA
HETATM   21  C11 UNK     1      -3.439  -1.261   2.547  1.00  0.00     0.090 A 
HETATM   22  C9  UNK     1      -2.448  -1.404   1.574  1.00  0.00     0.009 A 
HETATM   23  C16 UNK     1      -4.800  -1.285   2.234  1.00  0.00     0.041 A 
HETATM   24  C14 UNK     1      -2.861  -1.576   0.246  1.00  0.00     0.051 A 
HETATM   25  C17 UNK     1      -4.221  -1.601  -0.083  1.00  0.00     0.069 A 
HETATM   26  C20 UNK     1      -5.189  -1.456   0.910  1.00  0.00     0.039 A 
BRANCH  25  27
HETATM   27  O2  UNK     1      -4.602  -1.769  -1.380  1.00  0.00    -0.351 OA
BRANCH  27  28
HETATM   28  C22 UNK     1      -5.848  -2.424  -1.611  1.00  0.00     0.171 C 
HETATM   29  C23 UNK     1      -5.784  -3.151  -2.937  1.00  0.00     0.034 C 
ENDBRANCH  27  28
ENDBRANCH  25  27
ENDBRANCH   1  16
TORSDOF 6
