REMARK  3 active torsions:
REMARK  status: ('A' for Active; 'I' for Inactive)
REMARK    1  A    between atoms: C6_10  and  O2_2 
REMARK    2  A    between atoms: C9_13  and  O3_3 
REMARK    3  A    between atoms: C2_6  and  C4_8 
ROOT
HETATM    1  O1  UNK     1      -2.142  -0.672  -1.170  1.00  0.00    -0.275 OA
HETATM    2  O4  UNK     1      -4.015  -1.699  -0.352  1.00  0.00    -0.260 OA
HETATM    3  C1  UNK     1      -0.419   0.086   0.386  1.00  0.00     0.007 A 
HETATM    4  C2  UNK     1      -1.234  -0.423   1.498  1.00  0.00    -0.040 A 
HETATM    5  C3  UNK     1      -0.901  -0.055  -0.916  1.00  0.00     0.093 A 
HETATM    6  C5  UNK     1       0.825   0.710   0.555  1.00  0.00     0.054 A 
HETATM    7  C6  UNK     1       1.549   1.171  -0.550  1.00  0.00     0.102 A 
HETATM    8  C7  UNK     1      -0.190   0.400  -2.028  1.00  0.00     0.077 A 
HETATM    9  C8  UNK     1      -2.411  -1.005   1.226  1.00  0.00     0.090 A 
HETATM   10  C9  UNK     1       1.042   1.017  -1.839  1.00  0.00     0.104 A 
HETATM   11  C11 UNK     1      -2.933  -1.161  -0.142  1.00  0.00     0.288 A 
ENDROOT
BRANCH   4  12
HETATM   12  C4  UNK     1      -0.743  -0.287   2.909  1.00  0.00     0.035 C 
HETATM   13  C10 UNK     1       0.081  -1.486   3.333  1.00  0.00     0.010 C 
ENDBRANCH   4  12
BRANCH   7  14
HETATM   14  O2  UNK     1       2.756   1.774  -0.352  1.00  0.00    -0.353 OA
HETATM   15  C12 UNK     1       3.205   1.894   0.996  1.00  0.00     0.210 C 
ENDBRANCH   7  14
BRANCH  10  16
HETATM   16  O3  UNK     1       1.742   1.464  -2.918  1.00  0.00    -0.353 OA
HETATM   17  C13 UNK     1       2.654   0.550  -3.525  1.00  0.00     0.210 C 
ENDBRANCH  10  16
TORSDOF 3
