REMARK  3 active torsions:
REMARK  status: ('A' for Active; 'I' for Inactive)
REMARK    1  A    between atoms: C5_9  and  O2_2 
REMARK    2  A    between atoms: C9_13  and  O4_4 
REMARK    3  A    between atoms: C1_5  and  C4_8 
ROOT
HETATM    1  O1  UNK     1       0.361  -1.332  -0.151  1.00  0.00    -0.306 OA
HETATM    2  O3  UNK     1       1.215  -2.753   3.572  1.00  0.00    -0.284 OA
HETATM    3  C1  UNK     1       0.400  -0.494   0.952  1.00  0.00     0.126 A 
HETATM    4  C2  UNK     1       0.935  -3.211   1.275  1.00  0.00     0.051 A 
HETATM    5  C3  UNK     1       0.633  -2.663   0.030  1.00  0.00     0.090 A 
HETATM    6  C5  UNK     1       0.668  -0.896   2.208  1.00  0.00     0.152 A 
HETATM    7  C6  UNK     1       0.963  -2.329   2.452  1.00  0.00     0.220 A 
HETATM    8  C7  UNK     1       1.204  -4.576   1.399  1.00  0.00     0.018 A 
HETATM    9  C8  UNK     1       0.598  -3.480  -1.101  1.00  0.00     0.038 A 
HETATM   10  C11 UNK     1       1.169  -5.390   0.266  1.00  0.00     0.001 A 
HETATM   11  C12 UNK     1       0.866  -4.843  -0.981  1.00  0.00     0.003 A 
ENDROOT
BRANCH   3  12
HETATM   12  C4  UNK     1       0.090   0.908   0.620  1.00  0.00     0.034 A 
HETATM   13  C10 UNK     1       1.134   1.772   0.284  1.00  0.00     0.017 A 
HETATM   14  C14 UNK     1       0.866   3.103  -0.034  1.00  0.00     0.001 A 
HETATM   15  C15 UNK     1      -0.447   3.573  -0.017  1.00  0.00     0.003 A 
HETATM   16  C13 UNK     1      -1.492   2.712   0.319  1.00  0.00     0.037 A 
HETATM   17  C9  UNK     1      -1.224   1.381   0.637  1.00  0.00     0.078 A 
BRANCH  17  18
HETATM   18  O4  UNK     1      -2.264   0.561   0.961  1.00  0.00    -0.360 OA
HETATM   19  H10 UNK     1      -3.094   1.066   0.918  1.00  0.00     0.217 HD
ENDBRANCH  17  18
ENDBRANCH   3  12
BRANCH   6  20
HETATM   20  O2  UNK     1       0.667  -0.041   3.288  1.00  0.00    -0.355 OA
HETATM   21  H9  UNK     1       0.457   0.860   2.995  1.00  0.00     0.218 HD
ENDBRANCH   6  20
TORSDOF 3
