REMARK  4 active torsions:
REMARK  status: ('A' for Active; 'I' for Inactive)
REMARK    1  A    between atoms: C9_14  and  O2_2 
REMARK    2  A    between atoms: C5_10  and  O3_3 
REMARK    3  A    between atoms: C10_15  and  O4_4 
REMARK    4  A    between atoms: C1_6  and  C2_7 
ROOT
HETATM    1  O1  UNK     1       0.748  -2.051   1.827  1.00  0.00    -0.306 OA
HETATM    2  O5  UNK     1       0.307  -4.294  -1.547  1.00  0.00    -0.284 OA
HETATM    3  C1  UNK     1       0.182  -1.524   0.677  1.00  0.00     0.123 A 
HETATM    4  C3  UNK     1       1.022  -4.182   0.698  1.00  0.00     0.051 A 
HETATM    5  C4  UNK     1       1.148  -3.362   1.817  1.00  0.00     0.090 A 
HETATM    6  C5  UNK     1       0.013  -2.205  -0.471  1.00  0.00     0.152 A 
HETATM    7  C6  UNK     1       0.437  -3.624  -0.531  1.00  0.00     0.220 A 
HETATM    8  C11 UNK     1       1.448  -5.512   0.746  1.00  0.00     0.018 A 
HETATM    9  C12 UNK     1       1.703  -3.868   2.993  1.00  0.00     0.038 A 
HETATM   10  C14 UNK     1       2.002  -6.015   1.924  1.00  0.00     0.001 A 
HETATM   11  C15 UNK     1       2.129  -5.195   3.045  1.00  0.00     0.003 A 
ENDROOT
BRANCH   3  12
HETATM   12  C2  UNK     1      -0.204  -0.110   0.823  1.00  0.00     0.004 A 
HETATM   13  C7  UNK     1       0.714   0.899   0.530  1.00  0.00     0.054 A 
HETATM   14  C9  UNK     1       0.348   2.238   0.669  1.00  0.00     0.102 A 
HETATM   15  C10 UNK     1      -0.937   2.568   1.100  1.00  0.00     0.101 A 
HETATM   16  C13 UNK     1      -1.855   1.560   1.393  1.00  0.00     0.040 A 
HETATM   17  C8  UNK     1      -1.489   0.221   1.254  1.00  0.00     0.017 A 
BRANCH  14  18
HETATM   18  O2  UNK     1       1.254   3.213   0.379  1.00  0.00    -0.353 OA
HETATM   19  C16 UNK     1       1.283   3.692  -0.964  1.00  0.00     0.210 C 
ENDBRANCH  14  18
BRANCH  15  20
HETATM   20  O4  UNK     1      -1.306   3.872   1.238  1.00  0.00    -0.353 OA
HETATM   21  C17 UNK     1      -1.081   4.479   2.509  1.00  0.00     0.210 C 
ENDBRANCH  15  20
ENDBRANCH   3  12
BRANCH   6  22
HETATM   22  O3  UNK     1      -0.523  -1.640  -1.608  1.00  0.00    -0.355 OA
HETATM   23  H8  UNK     1      -0.754  -0.712  -1.439  1.00  0.00     0.218 HD
ENDBRANCH   6  22
TORSDOF 4
