REMARK  3 active torsions:
REMARK  status: ('A' for Active; 'I' for Inactive)
REMARK    1  A    between atoms: C14_17  and  O2_2 
REMARK    2  A    between atoms: C1_4  and  C2_5 
REMARK    3  A    between atoms: C11_14  and  C8_11 
ROOT
HETATM    1  O1  UNK     1      -0.962   0.228   1.039  1.00  0.00    -0.306 OA
HETATM    2  O3  UNK     1      -3.116  -2.541  -1.033  1.00  0.00    -0.284 OA
HETATM    3  C11 UNK     1      -0.672  -0.072  -0.282  1.00  0.00     0.123 A 
HETATM    4  C12 UNK     1      -2.008  -0.421   1.643  1.00  0.00     0.091 A 
HETATM    5  C13 UNK     1      -2.784  -1.375   0.990  1.00  0.00     0.051 A 
HETATM    6  C14 UNK     1      -1.337  -0.979  -1.022  1.00  0.00     0.152 A 
HETATM    7  C15 UNK     1      -2.473  -1.708  -0.409  1.00  0.00     0.220 A 
HETATM    8  C16 UNK     1      -2.280  -0.090   2.971  1.00  0.00     0.045 A 
HETATM    9  C17 UNK     1      -3.331  -0.717   3.641  1.00  0.00    -0.059 A 
HETATM   10  C18 UNK     1      -3.837  -2.005   1.657  1.00  0.00     0.019 A 
HETATM   11  C19 UNK     1      -4.108  -1.673   2.985  1.00  0.00     0.008 A 
HETATM   12  C20 UNK     1      -3.625  -0.366   5.061  1.00  0.00     0.048 C 
ENDROOT
BRANCH   3  13
HETATM   13  C8  UNK     1       0.472   0.694  -0.808  1.00  0.00     0.001 A 
HETATM   14  C10 UNK     1       1.767   0.193  -0.676  1.00  0.00     0.015 A 
HETATM   15  C7  UNK     1       2.850   0.918  -1.175  1.00  0.00     0.009 A 
HETATM   16  C2  UNK     1       2.638   2.144  -1.805  1.00  0.00    -0.051 A 
HETATM   17  C6  UNK     1       1.343   2.645  -1.937  1.00  0.00     0.009 A 
HETATM   18  C9  UNK     1       0.260   1.920  -1.439  1.00  0.00     0.015 A 
BRANCH  16  19
HETATM   19  C1  UNK     1       3.795   2.918  -2.339  1.00  0.00    -0.024 C 
HETATM   20  C3  UNK     1       3.896   4.322  -1.664  1.00  0.00     0.019 C 
HETATM   21  C4  UNK     1       3.664   3.144  -3.877  1.00  0.00     0.019 C 
HETATM   22  C5  UNK     1       5.198   2.256  -2.133  1.00  0.00     0.019 C 
ENDBRANCH  16  19
ENDBRANCH   3  13
BRANCH   6  23
HETATM   23  O2  UNK     1      -1.002  -1.278  -2.325  1.00  0.00    -0.355 OA
HETATM   24  H20 UNK     1      -0.245  -0.738  -2.603  1.00  0.00     0.218 HD
ENDBRANCH   6  23
TORSDOF 3
