REMARK  3 active torsions:
REMARK  status: ('A' for Active; 'I' for Inactive)
REMARK    1  A    between atoms: C5_9  and  N1_3 
REMARK    2  A    between atoms: C6_10  and  N2_4 
REMARK    3  A    between atoms: C5_9  and  C7_11 
ROOT
HETATM    1  N1  UNK     1      -0.537   0.956  -0.164  1.00  0.00     0.095 N 
HETATM    2  N2  UNK     1       1.939   1.326  -1.540  1.00  0.00    -0.377 N 
HETATM    3  C1  UNK     1       0.723   0.510   0.441  1.00  0.00     0.292 C 
HETATM    4  C2  UNK     1      -0.306   2.165  -0.965  1.00  0.00     0.292 C 
HETATM    5  C3  UNK     1       1.766   0.188  -0.632  1.00  0.00     0.153 C 
HETATM    6  C4  UNK     1       0.701   1.897  -2.086  1.00  0.00     0.153 C 
ENDROOT
BRANCH   1   7
HETATM    7  C5  UNK     1      -1.542   1.209   0.868  1.00  0.00     0.312 C 
BRANCH   7   8
HETATM    8  C7  UNK     1      -1.831  -0.026   1.675  1.00  0.00    -0.011 A 
HETATM    9  C11 UNK     1      -1.098  -0.243   2.776  1.00  0.00     0.092 A 
HETATM   10  C20 UNK     1      -1.290  -1.413   3.651  1.00  0.00     0.288 A 
HETATM   11  O2  UNK     1      -0.600  -1.579   4.650  1.00  0.00    -0.260 OA
HETATM   12  O1  UNK     1      -2.284  -2.307   3.285  1.00  0.00    -0.275 OA
HETATM   13  C13 UNK     1      -3.071  -2.105   2.134  1.00  0.00     0.091 A 
HETATM   14  C9  UNK     1      -2.877  -0.992   1.314  1.00  0.00     0.012 A 
HETATM   15  C18 UNK     1      -4.042  -3.071   1.863  1.00  0.00     0.045 A 
HETATM   16  C14 UNK     1      -3.700  -0.864   0.187  1.00  0.00    -0.048 A 
HETATM   17  C19 UNK     1      -4.678  -1.824  -0.097  1.00  0.00     0.014 A 
HETATM   18  C23 UNK     1      -3.629   0.260  -0.796  1.00  0.00     0.049 C 
HETATM   19  C21 UNK     1      -4.849  -2.926   0.739  1.00  0.00    -0.059 A 
HETATM   20  C24 UNK     1      -5.891  -3.946   0.430  1.00  0.00     0.048 C 
ENDBRANCH   7   8
ENDBRANCH   1   7
BRANCH   2  21
HETATM   21  C6  UNK     1       3.105   1.432  -2.305  1.00  0.00     0.036 A 
HETATM   22  C10 UNK     1       3.420   0.417  -3.208  1.00  0.00     0.030 A 
HETATM   23  C16 UNK     1       4.579   0.504  -3.980  1.00  0.00     0.003 A 
HETATM   24  C17 UNK     1       5.423   1.607  -3.848  1.00  0.00     0.007 A 
HETATM   25  C12 UNK     1       5.108   2.622  -2.945  1.00  0.00    -0.054 A 
HETATM   26  C8  UNK     1       3.949   2.535  -2.174  1.00  0.00    -0.029 A 
HETATM   27  C22 UNK     1       6.028   3.792  -2.824  1.00  0.00     0.049 C 
HETATM   28  C15 UNK     1       3.614   3.626  -1.206  1.00  0.00     0.051 C 
ENDBRANCH   2  21
TORSDOF 3
