REMARK  3 active torsions:
REMARK  status: ('A' for Active; 'I' for Inactive)
REMARK    1  A    between atoms: C7_16  and  N1_7 
REMARK    2  A    between atoms: C13_22  and  N2_8 
REMARK    3  A    between atoms: C1_10  and  C3_12 
ROOT
HETATM    1  O1  UNK     1      -0.204   1.704  -1.981  1.00  0.00    -0.291 OA
HETATM    2  O2  UNK     1       3.060  -0.416  -0.445  1.00  0.00    -0.274 OA
HETATM    3  O3  UNK     1       1.722  -2.228  -0.094  1.00  0.00    -0.259 OA
HETATM    4  N3  UNK     1      -4.013  -1.229  -2.284  1.00  0.00    -0.191 NA
HETATM    5  C1  UNK     1      -0.696  -0.943  -0.985  1.00  0.00     0.110 C 
HETATM    6  C2  UNK     1       0.672  -0.288  -0.981  1.00  0.00     0.066 A 
HETATM    7  C4  UNK     1       0.834   0.958  -1.452  1.00  0.00     0.104 A 
HETATM    8  C5  UNK     1      -1.721  -0.134  -1.773  1.00  0.00     0.086 C 
HETATM    9  C6  UNK     1       2.140   1.612  -1.425  1.00  0.00     0.033 A 
HETATM   10  C7  UNK     1      -1.445   1.115  -2.215  1.00  0.00     0.159 C 
HETATM   11  C8  UNK     1       1.832  -1.067  -0.474  1.00  0.00     0.298 A 
HETATM   12  C9  UNK     1       3.222   0.902  -0.914  1.00  0.00     0.092 A 
HETATM   13  C12 UNK     1       2.363   2.916  -1.883  1.00  0.00     0.017 A 
HETATM   14  C14 UNK     1       4.503   1.449  -0.846  1.00  0.00     0.038 A 
HETATM   15  C17 UNK     1      -2.987  -0.739  -2.056  1.00  0.00     0.100 C 
HETATM   16  C18 UNK     1       3.643   3.479  -1.822  1.00  0.00     0.001 A 
HETATM   17  C19 UNK     1       4.710   2.746  -1.304  1.00  0.00     0.003 A 
ENDROOT
BRANCH   5  18
HETATM   18  C3  UNK     1      -1.179  -1.160   0.420  1.00  0.00    -0.020 A 
HETATM   19  C10 UNK     1      -1.373  -0.043   1.226  1.00  0.00     0.046 A 
HETATM   20  C13 UNK     1      -1.822  -0.204   2.537  1.00  0.00     0.103 A 
HETATM   21  C16 UNK     1      -2.075  -1.483   3.035  1.00  0.00     0.038 A 
HETATM   22  C15 UNK     1      -1.878  -2.599   2.222  1.00  0.00     0.027 A 
HETATM   23  C11 UNK     1      -1.429  -2.437   0.911  1.00  0.00     0.041 A 
HETATM   24 Cl1  UNK     1      -1.199  -3.842  -0.065  1.00  0.00    -0.084 Cl
BRANCH  20  25
HETATM   25  N2  UNK     1      -2.023   0.932   3.365  1.00  0.00    -0.116 N 
HETATM   26  O4  UNK     1      -2.427   0.764   4.540  1.00  0.00    -0.532 OA
HETATM   27  O5  UNK     1      -1.789   2.073   2.898  1.00  0.00    -0.532 OA
ENDBRANCH  20  25
ENDBRANCH   5  18
BRANCH  10  28
HETATM   28  N1  UNK     1      -2.310   1.913  -2.913  1.00  0.00    -0.379 N 
HETATM   29  H8  UNK     1      -2.002   2.834  -3.197  1.00  0.00     0.158 HD
HETATM   30  H9  UNK     1      -3.242   1.595  -3.142  1.00  0.00     0.158 HD
ENDBRANCH  10  28
TORSDOF 3
