REMARK  3 active torsions:
REMARK  status: ('A' for Active; 'I' for Inactive)
REMARK       I    between atoms: C11_18  and  N1_6 
REMARK    1  A    between atoms: C4_11  and  N1_6 
REMARK       I    between atoms: C8_15  and  N2_7 
REMARK    2  A    between atoms: C2_9  and  C8_15 
REMARK    3  A    between atoms: C11_18  and  C7_14 
ROOT
HETATM    1  S1  UNK     1      -0.306   0.111   2.431  1.00  0.00    -0.075 SA
HETATM    2  C1  UNK     1      -2.436  -1.175   1.788  1.00  0.00     0.005 A 
HETATM    3  C2  UNK     1      -1.806  -0.815   0.561  1.00  0.00     0.077 A 
HETATM    4  C3  UNK     1      -1.726  -0.734   2.883  1.00  0.00    -0.007 A 
HETATM    5  C4  UNK     1      -0.659  -0.123   0.785  1.00  0.00     0.094 A 
HETATM    6  C5  UNK     1      -3.666  -1.910   1.950  1.00  0.00    -0.024 A 
HETATM    7  C6  UNK     1      -2.025  -0.893   4.326  1.00  0.00     0.057 C 
HETATM    8  C9  UNK     1      -3.635  -3.298   2.042  1.00  0.00     0.012 A 
HETATM    9  C10 UNK     1      -4.876  -1.226   2.013  1.00  0.00     0.012 A 
HETATM   10  C16 UNK     1      -4.825  -4.009   2.199  1.00  0.00     0.001 A 
HETATM   11  C17 UNK     1      -6.066  -1.936   2.170  1.00  0.00     0.001 A 
HETATM   12  C19 UNK     1      -6.041  -3.328   2.263  1.00  0.00     0.000 A 
ENDROOT
BRANCH   5  13
HETATM   13  N1  UNK     1       0.265   0.417  -0.116  1.00  0.00    -0.316 N 
HETATM   14  C11 UNK     1       1.419   1.113   0.215  1.00  0.00     0.262 C 
HETATM   15  O3  UNK     1       1.854   1.391   1.331  1.00  0.00    -0.267 OA
HETATM   16  H1  UNK     1       0.043   0.246  -1.093  1.00  0.00     0.169 HD
BRANCH  14  17
HETATM   17  C7  UNK     1       2.160   1.541  -0.977  1.00  0.00     0.108 A 
HETATM   18  C13 UNK     1       3.488   1.639  -0.845  1.00  0.00     0.037 A 
HETATM   19  C12 UNK     1       4.309   2.056  -1.971  1.00  0.00    -0.001 A 
HETATM   20  C14 UNK     1       3.691   2.349  -3.182  1.00  0.00     0.089 A 
HETATM   21  C18 UNK     1       5.698   2.172  -1.877  1.00  0.00     0.014 A 
HETATM   22  O1  UNK     1       2.292   2.244  -3.316  1.00  0.00    -0.274 OA
HETATM   23  C20 UNK     1       4.419   2.754  -4.299  1.00  0.00     0.038 A 
HETATM   24  C15 UNK     1       1.481   1.848  -2.256  1.00  0.00     0.304 A 
HETATM   25  O4  UNK     1       0.264   1.760  -2.382  1.00  0.00    -0.259 OA
HETATM   26  C22 UNK     1       5.804   2.868  -4.197  1.00  0.00     0.003 A 
HETATM   27  C21 UNK     1       6.442   2.577  -2.989  1.00  0.00     0.001 A 
ENDBRANCH  14  17
ENDBRANCH   5  13
BRANCH   3  28
HETATM   28  C8  UNK     1      -2.297  -1.127  -0.759  1.00  0.00     0.253 C 
HETATM   29  O2  UNK     1      -2.008  -2.178  -1.360  1.00  0.00    -0.268 OA
HETATM   30  N2  UNK     1      -3.150  -0.205  -1.359  1.00  0.00    -0.366 N 
HETATM   31  H15 UNK     1      -3.420   0.659  -0.900  1.00  0.00     0.159 HD
HETATM   32  H16 UNK     1      -3.533  -0.374  -2.283  1.00  0.00     0.159 HD
ENDBRANCH   3  28
TORSDOF 3
