REMARK  2 active torsions:
REMARK  status: ('A' for Active; 'I' for Inactive)
REMARK    1  A    between atoms: C10_15  and  O3_4 
REMARK    2  A    between atoms: C10_15  and  C4_9 
ROOT
HETATM    1  F1  UNK     1      -3.914  -1.814   0.414  1.00  0.00    -0.206 F 
HETATM    2  O1  UNK     1       0.942   0.517   1.527  1.00  0.00    -0.321 OA
HETATM    3  O2  UNK     1      -0.180   0.200  -2.386  1.00  0.00    -0.286 OA
HETATM    4  C1  UNK     1      -0.702  -0.194  -0.117  1.00  0.00     0.052 A 
HETATM    5  C2  UNK     1      -0.261  -0.058   1.201  1.00  0.00     0.089 A 
HETATM    6  C3  UNK     1       0.154   0.296  -1.213  1.00  0.00     0.203 A 
HETATM    7  C4  UNK     1       1.438   0.909  -0.808  1.00  0.00     0.110 A 
HETATM    8  C5  UNK     1      -1.937  -0.788  -0.389  1.00  0.00     0.060 A 
HETATM    9  C6  UNK     1      -1.055  -0.515   2.253  1.00  0.00     0.041 A 
HETATM   10  C7  UNK     1       1.730   0.972   0.496  1.00  0.00     0.165 A 
HETATM   11  C8  UNK     1      -2.728  -1.245   0.667  1.00  0.00     0.117 A 
HETATM   12  C9  UNK     1      -2.288  -1.109   1.984  1.00  0.00     0.045 A 
ENDROOT
BRANCH   7  13
HETATM   13  C10 UNK     1       2.411   1.451  -1.756  1.00  0.00     0.182 C 
HETATM   14  O4  UNK     1       3.616   1.476  -1.572  1.00  0.00    -0.646 OA
BRANCH  13  15
HETATM   15  O3  UNK     1       1.771   1.912  -2.851  1.00  0.00    -0.772 OA
HETATM   16  H5  UNK     1       2.393   2.285  -3.512  1.00  0.00     0.167 HD
ENDBRANCH  13  15
ENDBRANCH   7  13
TORSDOF 2
