REMARK  5 active torsions:
REMARK  status: ('A' for Active; 'I' for Inactive)
REMARK    1  A    between atoms: C1_8  and  N1_6 
REMARK    2  A    between atoms: C11_18  and  N1_6 
REMARK    3  A    between atoms: C10_17  and  N2_7 
REMARK    4  A    between atoms: C11_18  and  N2_7 
REMARK    5  A    between atoms: C1_8  and  C2_9 
ROOT
HETATM    1  S1  UNK     1      -2.137   1.276  -2.344  1.00  0.00    -0.041 SA
HETATM    2  C11 UNK     1      -0.715   0.419  -2.085  1.00  0.00     0.172 C 
ENDROOT
BRANCH   2   3
HETATM    3  N1  UNK     1       0.286   0.563  -3.037  1.00  0.00    -0.359 N 
HETATM    4  H6  UNK     1       0.085   1.199  -3.804  1.00  0.00     0.162 HD
BRANCH   3   5
HETATM    5  C1  UNK     1       1.604  -0.042  -3.018  1.00  0.00     0.113 C 
HETATM    6  C4  UNK     1       2.065  -0.372  -4.437  1.00  0.00     0.037 C 
BRANCH   5   7
HETATM    7  C2  UNK     1       2.596   0.825  -2.274  1.00  0.00    -0.033 A 
HETATM    8  C3  UNK     1       2.906   2.078  -2.780  1.00  0.00     0.049 A 
HETATM    9  C5  UNK     1       3.815   2.832  -2.066  1.00  0.00     0.105 A 
HETATM   10  O1  UNK     1       4.250   4.079  -2.394  1.00  0.00    -0.323 OA
HETATM   11  C7  UNK     1       4.390   2.366  -0.906  1.00  0.00     0.105 A 
HETATM   12  C15 UNK     1       5.163   4.346  -1.310  1.00  0.00     0.352 A 
HETATM   13  O2  UNK     1       5.257   3.263  -0.362  1.00  0.00    -0.323 OA
HETATM   14  C8  UNK     1       4.088   1.121  -0.395  1.00  0.00     0.040 A 
HETATM   15  C6  UNK     1       3.170   0.337  -1.099  1.00  0.00     0.012 A 
ENDBRANCH   5   7
ENDBRANCH   3   5
ENDBRANCH   2   3
BRANCH   2  16
HETATM   16  N2  UNK     1      -0.395  -0.407  -0.994  1.00  0.00    -0.333 N 
HETATM   17  H10 UNK     1       0.600  -0.565  -0.876  1.00  0.00     0.168 HD
BRANCH  16  18
HETATM   18  C10 UNK     1      -1.109  -0.793   0.140  1.00  0.00     0.036 A 
HETATM   19  C14 UNK     1      -2.483  -0.993   0.065  1.00  0.00     0.067 A 
HETATM   20  C12 UNK     1      -3.179  -1.380   1.212  1.00  0.00     0.092 A 
HETATM   21  O3  UNK     1      -4.569  -1.569   1.073  1.00  0.00    -0.275 OA
HETATM   22  C9  UNK     1      -2.544  -1.575   2.439  1.00  0.00     0.004 A 
HETATM   23  C20 UNK     1      -5.359  -1.954   2.145  1.00  0.00     0.288 A 
HETATM   24  C18 UNK     1      -4.674  -2.154   3.433  1.00  0.00     0.090 A 
HETATM   25  O4  UNK     1      -6.569  -2.120   2.036  1.00  0.00    -0.260 OA
HETATM   26  C13 UNK     1      -3.354  -1.983   3.595  1.00  0.00    -0.043 A 
HETATM   27  C19 UNK     1      -2.701  -2.200   4.928  1.00  0.00     0.049 C 
HETATM   28  C16 UNK     1      -1.159  -1.368   2.494  1.00  0.00     0.017 A 
HETATM   29  C17 UNK     1      -0.448  -0.980   1.353  1.00  0.00     0.030 A 
ENDBRANCH  16  18
ENDBRANCH   2  16
TORSDOF 5
