REMARK  4 active torsions:
REMARK  status: ('A' for Active; 'I' for Inactive)
REMARK    1  A    between atoms: C12_18  and  O3_3 
REMARK       I    between atoms: C14_20  and  N1_5 
REMARK    2  A    between atoms: N1_5  and  N2_6 
REMARK    3  A    between atoms: C11_17  and  C4_10 
REMARK    4  A    between atoms: C10_16  and  C14_20 
ROOT
HETATM    1  N2  UNK     1       0.312   0.407  -0.293  1.00  0.00    -0.183 NA
HETATM    2  C11 UNK     1       0.167  -0.004   0.925  1.00  0.00     0.156 C 
ENDROOT
BRANCH   1   3
HETATM    3  N1  UNK     1       1.521   0.963  -0.547  1.00  0.00    -0.243 N 
HETATM    4  C14 UNK     1       1.789   1.404  -1.829  1.00  0.00     0.274 C 
HETATM    5  O4  UNK     1       1.007   1.330  -2.774  1.00  0.00    -0.266 OA
HETATM    6  H11 UNK     1       2.196   0.980   0.211  1.00  0.00     0.192 HD
BRANCH   4   7
HETATM    7  C10 UNK     1       3.140   1.983  -2.045  1.00  0.00     0.066 A 
HETATM    8  C12 UNK     1       3.742   1.880  -3.282  1.00  0.00     0.081 A 
HETATM    9  C15 UNK     1       5.010   2.431  -3.464  1.00  0.00     0.037 A 
HETATM   10  C17 UNK     1       5.650   3.074  -2.404  1.00  0.00     0.003 A 
HETATM   11  C16 UNK     1       5.021   3.165  -1.162  1.00  0.00     0.001 A 
HETATM   12  C13 UNK     1       3.753   2.614  -0.981  1.00  0.00     0.020 A 
BRANCH   8  13
HETATM   13  O3  UNK     1       3.133   1.257  -4.330  1.00  0.00    -0.360 OA
HETATM   14  H12 UNK     1       3.720   1.293  -5.106  1.00  0.00     0.217 HD
ENDBRANCH   8  13
ENDBRANCH   4   7
ENDBRANCH   1   3
BRANCH   2  15
HETATM   15  C4  UNK     1      -1.066  -0.634   1.400  1.00  0.00     0.056 A 
HETATM   16  C3  UNK     1      -2.251  -0.860   0.544  1.00  0.00     0.198 A 
HETATM   17  C1  UNK     1      -3.403  -1.510   1.197  1.00  0.00     0.049 A 
HETATM   18  O2  UNK     1      -2.278  -0.529  -0.633  1.00  0.00    -0.286 OA
HETATM   19  C2  UNK     1      -3.310  -1.863   2.545  1.00  0.00     0.089 A 
HETATM   20  C5  UNK     1      -4.573  -1.771   0.480  1.00  0.00     0.018 A 
HETATM   21  O1  UNK     1      -2.185  -1.631   3.297  1.00  0.00    -0.321 OA
HETATM   22  C6  UNK     1      -4.388  -2.477   3.182  1.00  0.00     0.038 A 
HETATM   23  C7  UNK     1      -1.118  -1.025   2.677  1.00  0.00     0.159 A 
HETATM   24  C9  UNK     1      -5.558  -2.739   2.468  1.00  0.00     0.003 A 
HETATM   25  C8  UNK     1      -5.650  -2.387   1.121  1.00  0.00     0.001 A 
ENDBRANCH   2  15
TORSDOF 4
