REMARK  9 active torsions:
REMARK  status: ('A' for Active; 'I' for Inactive)
REMARK       I    between atoms: C10_14  and  N1_4 
REMARK    1  A    between atoms: C7_11  and  N1_4 
REMARK    2  A    between atoms: C1_5  and  C2_6 
REMARK    3  A    between atoms: C1_5  and  C3_7 
REMARK    4  A    between atoms: C2_6  and  C4_8 
REMARK    5  A    between atoms: C3_7  and  C5_9 
REMARK    6  A    between atoms: C4_8  and  C6_10 
REMARK    7  A    between atoms: C5_9  and  C7_11 
REMARK    8  A    between atoms: C6_10  and  C8_12 
REMARK    9  A    between atoms: C10_14  and  C11_15 
ROOT
HETATM    1  O2  UNK     1       2.752  -0.140   1.492  1.00  0.00    -0.267 OA
HETATM    2  N1  UNK     1       0.766   1.081   1.538  1.00  0.00    -0.357 N 
HETATM    3  C10 UNK     1       1.899   0.549   0.944  1.00  0.00     0.257 C 
HETATM    4  H17 UNK     1       0.125   1.639   0.980  1.00  0.00     0.162 HD
ENDROOT
BRANCH   3   5
HETATM    5  C11 UNK     1       2.012   0.889  -0.486  1.00  0.00     0.108 A 
HETATM    6  C12 UNK     1       3.103   1.575  -0.846  1.00  0.00     0.037 A 
HETATM    7  C13 UNK     1       3.303   1.958  -2.235  1.00  0.00    -0.001 A 
HETATM    8  C14 UNK     1       2.344   1.599  -3.177  1.00  0.00     0.089 A 
HETATM    9  C16 UNK     1       4.427   2.674  -2.656  1.00  0.00     0.014 A 
HETATM   10  O1  UNK     1       1.198   0.877  -2.792  1.00  0.00    -0.274 OA
HETATM   11  C17 UNK     1       2.476   1.935  -4.523  1.00  0.00     0.038 A 
HETATM   12  C15 UNK     1       0.979   0.497  -1.470  1.00  0.00     0.304 A 
HETATM   13  O3  UNK     1      -0.023  -0.131  -1.144  1.00  0.00    -0.259 OA
HETATM   14  C19 UNK     1       3.599   2.649  -4.934  1.00  0.00     0.003 A 
HETATM   15  C18 UNK     1       4.573   3.017  -4.003  1.00  0.00     0.001 A 
ENDBRANCH   3   5
BRANCH   2  16
HETATM   16  C7  UNK     1       0.439   0.883   2.923  1.00  0.00     0.123 C 
BRANCH  16  17
HETATM   17  C5  UNK     1      -0.416  -0.360   3.153  1.00  0.00     0.020 C 
BRANCH  17  18
HETATM   18  C3  UNK     1      -1.783  -0.340   2.459  1.00  0.00     0.002 C 
BRANCH  18  19
HETATM   19  C1  UNK     1      -2.631  -1.579   2.750  1.00  0.00     0.000 C 
BRANCH  19  20
HETATM   20  C2  UNK     1      -3.985  -1.503   2.040  1.00  0.00     0.000 C 
BRANCH  20  21
HETATM   21  C4  UNK     1      -4.849  -2.726   2.355  1.00  0.00     0.000 C 
BRANCH  21  22
HETATM   22  C6  UNK     1      -6.189  -2.663   1.619  1.00  0.00    -0.000 C 
BRANCH  22  23
HETATM   23  C8  UNK     1      -7.102  -3.853   1.918  1.00  0.00    -0.005 C 
HETATM   24  C9  UNK     1      -8.425  -3.807   1.168  1.00  0.00     0.005 C 
ENDBRANCH  22  23
ENDBRANCH  21  22
ENDBRANCH  20  21
ENDBRANCH  19  20
ENDBRANCH  18  19
ENDBRANCH  17  18
ENDBRANCH  16  17
ENDBRANCH   2  16
TORSDOF 9
