REMARK  5 active torsions:
REMARK  status: ('A' for Active; 'I' for Inactive)
REMARK    1  A    between atoms: C10_16  and  O2_2 
REMARK    2  A    between atoms: C17_23  and  O2_2 
REMARK    3  A    between atoms: C5_11  and  O3_3 
REMARK    4  A    between atoms: C6_12  and  N1_6 
REMARK       I    between atoms: C8_14  and  N1_6 
REMARK    5  A    between atoms: C3_9  and  C8_14 
ROOT
HETATM    1  O1  UNK     1       1.003   1.712  -1.820  1.00  0.00    -0.271 OA
HETATM    2  O5  UNK     1      -1.105   1.258  -1.062  1.00  0.00    -0.259 OA
HETATM    3  C1  UNK     1       2.923   1.132  -0.446  1.00  0.00     0.002 A 
HETATM    4  C2  UNK     1       2.396   1.672  -1.615  1.00  0.00     0.123 A 
HETATM    5  C3  UNK     1       0.690   0.652   0.361  1.00  0.00     0.108 A 
HETATM    6  C4  UNK     1       2.012   0.612   0.562  1.00  0.00     0.037 A 
HETATM    7  C5  UNK     1       3.213   2.187  -2.618  1.00  0.00     0.102 A 
HETATM    8  C7  UNK     1       4.310   1.110  -0.279  1.00  0.00     0.014 A 
HETATM    9  C9  UNK     1       0.107   1.220  -0.875  1.00  0.00     0.304 A 
HETATM   10  C11 UNK     1       4.595   2.161  -2.444  1.00  0.00     0.040 A 
HETATM   11  C12 UNK     1       5.142   1.624  -1.277  1.00  0.00     0.004 A 
ENDROOT
BRANCH   5  12
HETATM   12  C8  UNK     1      -0.146   0.102   1.435  1.00  0.00     0.262 C 
HETATM   13  O4  UNK     1       0.246   0.152   2.600  1.00  0.00    -0.267 OA
HETATM   14  N1  UNK     1      -1.334  -0.431   0.954  1.00  0.00    -0.320 N 
HETATM   15  H3  UNK     1      -1.503  -0.415  -0.049  1.00  0.00     0.169 HD
BRANCH  14  16
HETATM   16  C6  UNK     1      -2.372  -1.042   1.699  1.00  0.00     0.068 A 
HETATM   17  C10 UNK     1      -3.497  -1.525   1.051  1.00  0.00     0.095 A 
HETATM   18  C14 UNK     1      -4.510  -2.125   1.799  1.00  0.00     0.039 A 
HETATM   19  C16 UNK     1      -4.384  -2.234   3.184  1.00  0.00     0.003 A 
HETATM   20  C15 UNK     1      -3.244  -1.744   3.821  1.00  0.00     0.002 A 
HETATM   21  C13 UNK     1      -2.231  -1.144   3.074  1.00  0.00     0.032 A 
BRANCH  17  22
HETATM   22  O2  UNK     1      -3.640  -1.426  -0.301  1.00  0.00    -0.349 OA
BRANCH  22  23
HETATM   23  C17 UNK     1      -3.785  -2.645  -1.026  1.00  0.00     0.171 C 
HETATM   24  C18 UNK     1      -3.220  -2.460  -2.419  1.00  0.00     0.034 C 
ENDBRANCH  22  23
ENDBRANCH  17  22
ENDBRANCH  14  16
ENDBRANCH   5  12
BRANCH   7  25
HETATM   25  O3  UNK     1       2.685   2.712  -3.756  1.00  0.00    -0.353 OA
HETATM   26  C19 UNK     1       2.479   1.818  -4.850  1.00  0.00     0.210 C 
ENDBRANCH   7  25
TORSDOF 5
