REMARK  4 active torsions:
REMARK  status: ('A' for Active; 'I' for Inactive)
REMARK    1  A    between atoms: C8_14  and  O1_2 
REMARK    2  A    between atoms: C6_12  and  N1_5 
REMARK    3  A    between atoms: C1_7  and  C2_8 
REMARK    4  A    between atoms: C3_9  and  C5_11 
ROOT
HETATM    1  N2  UNK     1      -4.125  -2.366  -1.627  1.00  0.00    -0.191 NA
HETATM    2  C2  UNK     1      -1.434  -0.223  -1.865  1.00  0.00     0.035 C 
HETATM    3  C5  UNK     1      -2.114  -0.890  -0.894  1.00  0.00     0.055 C 
HETATM    4  C15 UNK     1      -3.226  -1.704  -1.310  1.00  0.00     0.100 C 
ENDROOT
BRANCH   3   5
HETATM    5  C3  UNK     1      -1.776  -0.828   0.519  1.00  0.00    -0.015 A 
HETATM    6  C10 UNK     1      -0.873  -1.742   1.061  1.00  0.00     0.014 A 
HETATM    7  C12 UNK     1      -0.549  -1.683   2.416  1.00  0.00     0.024 A 
HETATM    8  C14 UNK     1      -1.130  -0.711   3.230  1.00  0.00     0.034 A 
HETATM    9  C13 UNK     1      -2.034   0.203   2.689  1.00  0.00     0.024 A 
HETATM   10 Cl1  UNK     1      -0.731  -0.638   4.903  1.00  0.00    -0.084 Cl
HETATM   11  C11 UNK     1      -2.357   0.144   1.333  1.00  0.00     0.014 A 
ENDBRANCH   3   5
BRANCH   2  12
HETATM   12  C1  UNK     1      -0.289   0.673  -1.647  1.00  0.00    -0.032 A 
HETATM   13  C4  UNK     1       0.996   0.152  -1.649  1.00  0.00     0.050 A 
HETATM   14  C6  UNK     1       2.082   1.003  -1.442  1.00  0.00     0.136 A 
HETATM   15  C8  UNK     1       1.870   2.366  -1.235  1.00  0.00     0.098 A 
HETATM   16  C9  UNK     1       0.572   2.878  -1.235  1.00  0.00     0.040 A 
HETATM   17  C7  UNK     1      -0.513   2.027  -1.442  1.00  0.00     0.014 A 
BRANCH  14  18
HETATM   18  N1  UNK     1       3.398   0.464  -1.445  1.00  0.00    -0.113 N 
HETATM   19  O2  UNK     1       3.548  -0.767  -1.635  1.00  0.00    -0.532 OA
HETATM   20  O3  UNK     1       4.369   1.235  -1.259  1.00  0.00    -0.532 OA
ENDBRANCH  14  18
BRANCH  15  21
HETATM   21  O1  UNK     1       2.914   3.218  -1.032  1.00  0.00    -0.358 OA
HETATM   22  H9  UNK     1       2.570   4.120  -0.908  1.00  0.00     0.217 HD
ENDBRANCH  15  21
ENDBRANCH   2  12
TORSDOF 4
