REMARK  6 active torsions:
REMARK  status: ('A' for Active; 'I' for Inactive)
REMARK    1  A    between atoms: C17_25  and  O1_3 
REMARK    2  A    between atoms: C16_24  and  N1_8 
REMARK       I    between atoms: C18_26  and  N1_8 
REMARK    3  A    between atoms: C1_9  and  C7_15 
REMARK    4  A    between atoms: C12_20  and  C13_21 
REMARK    5  A    between atoms: C14_22  and  C17_25 
REMARK    6  A    between atoms: C18_26  and  C19_27 
ROOT
HETATM    1  S1  UNK     1      -1.192   0.258  -2.591  1.00  0.00    -0.082 SA
HETATM    2  C13 UNK     1      -2.075  -0.746  -0.398  1.00  0.00    -0.000 A 
HETATM    3  C14 UNK     1      -0.794  -0.200  -0.095  1.00  0.00     0.085 A 
HETATM    4  C15 UNK     1      -2.414  -0.567  -1.721  1.00  0.00     0.065 A 
HETATM    5  C16 UNK     1      -0.230   0.363  -1.195  1.00  0.00     0.094 A 
ENDROOT
BRANCH   5   6
HETATM    6  N1  UNK     1       1.002   1.006  -1.354  1.00  0.00    -0.316 N 
HETATM    7  C18 UNK     1       1.493   1.553  -2.531  1.00  0.00     0.262 C 
HETATM    8  O4  UNK     1       0.965   1.586  -3.641  1.00  0.00    -0.267 OA
HETATM    9  H17 UNK     1       1.568   1.040  -0.511  1.00  0.00     0.169 HD
BRANCH   7  10
HETATM   10  C19 UNK     1       2.820   2.151  -2.344  1.00  0.00     0.108 A 
HETATM   11  C21 UNK     1       3.630   2.139  -3.409  1.00  0.00     0.037 A 
HETATM   12  C20 UNK     1       4.966   2.709  -3.322  1.00  0.00     0.001 A 
HETATM   13  C22 UNK     1       5.382   3.265  -2.116  1.00  0.00     0.089 A 
HETATM   14  C24 UNK     1       5.844   2.718  -4.408  1.00  0.00     0.038 A 
HETATM   15  O3  UNK     1       4.525   3.275  -0.999  1.00  0.00    -0.274 OA
HETATM   16  C25 UNK     1       6.649   3.826  -1.966  1.00  0.00     0.040 A 
HETATM   17  C23 UNK     1       3.242   2.737  -1.052  1.00  0.00     0.304 A 
HETATM   18  O5  UNK     1       2.503   2.750  -0.074  1.00  0.00    -0.259 OA
HETATM   19  C28 UNK     1       7.519   3.831  -3.054  1.00  0.00     0.026 A 
HETATM   20  C27 UNK     1       7.118   3.278  -4.272  1.00  0.00     0.035 A 
HETATM   21 Cl1  UNK     1       8.198   3.287  -5.614  1.00  0.00    -0.084 Cl
ENDBRANCH   7  10
ENDBRANCH   5   6
BRANCH   3  22
HETATM   22  C17 UNK     1      -0.155  -0.226   1.198  1.00  0.00     0.296 C 
HETATM   23  O2  UNK     1      -0.754  -0.220   2.289  1.00  0.00    -0.259 OA
BRANCH  22  24
HETATM   24  O1  UNK     1       1.214  -0.259   1.095  1.00  0.00    -0.322 OA
HETATM   25  C26 UNK     1       1.964  -0.289   2.314  1.00  0.00     0.213 C 
ENDBRANCH  22  24
ENDBRANCH   3  22
BRANCH   2  26
HETATM   26  C12 UNK     1      -2.978  -1.421   0.498  1.00  0.00    -0.024 A 
HETATM   27  C10 UNK     1      -3.928  -0.689   1.206  1.00  0.00     0.013 A 
HETATM   28  C8  UNK     1      -4.802  -1.342   2.074  1.00  0.00     0.008 A 
HETATM   29  C7  UNK     1      -4.724  -2.726   2.233  1.00  0.00    -0.054 A 
HETATM   30  C9  UNK     1      -3.771  -3.456   1.522  1.00  0.00     0.008 A 
HETATM   31  C11 UNK     1      -2.897  -2.803   0.654  1.00  0.00     0.013 A 
BRANCH  29  32
HETATM   32  C1  UNK     1      -5.674  -3.437   3.179  1.00  0.00     0.018 C 
HETATM   33  C2  UNK     1      -7.141  -3.286   2.738  1.00  0.00     0.009 C 
HETATM   34  C4  UNK     1      -8.088  -4.013   3.691  1.00  0.00     0.001 C 
HETATM   35  C6  UNK     1      -7.893  -3.558   5.134  1.00  0.00     0.000 C 
HETATM   36  C5  UNK     1      -6.441  -3.701   5.580  1.00  0.00     0.001 C 
HETATM   37  C3  UNK     1      -5.487  -2.973   4.635  1.00  0.00     0.009 C 
ENDBRANCH  29  32
ENDBRANCH   2  26
TORSDOF 6
