REMARK  6 active torsions:
REMARK  status: ('A' for Active; 'I' for Inactive)
REMARK    1  A    between atoms: C2_9  and  O1_5 
REMARK    2  A    between atoms: C5_12  and  O1_5 
REMARK    3  A    between atoms: C3_10  and  O2_6 
REMARK    4  A    between atoms: C1_8  and  C9_16 
REMARK    5  A    between atoms: C5_12  and  C8_15 
REMARK    6  A    between atoms: C10_17  and  C11_18 
ROOT
HETATM    1  N1  UNK     1      -3.348   1.580   1.377  1.00  0.00    -0.191 NA
HETATM    2  C9  UNK     1      -1.565  -1.352   1.042  1.00  0.00     0.036 C 
HETATM    3  C10 UNK     1      -2.792  -0.956   1.466  1.00  0.00     0.057 C 
HETATM    4  C23 UNK     1      -3.092   0.449   1.414  1.00  0.00     0.100 C 
ENDROOT
BRANCH   3   5
HETATM    5  C11 UNK     1      -3.812  -1.874   1.961  1.00  0.00     0.006 A 
HETATM    6  C14 UNK     1      -4.746  -2.473   1.115  1.00  0.00     0.047 A 
HETATM    7 Cl1  UNK     1      -4.764  -2.167  -0.587  1.00  0.00    -0.083 Cl
HETATM    8  C19 UNK     1      -5.701  -3.346   1.637  1.00  0.00     0.048 A 
HETATM    9  C21 UNK     1      -5.722  -3.620   3.004  1.00  0.00     0.035 A 
HETATM   10  C20 UNK     1      -4.788  -3.021   3.850  1.00  0.00     0.025 A 
HETATM   11 Cl3  UNK     1      -6.899  -4.696   3.649  1.00  0.00    -0.084 Cl
HETATM   12  C15 UNK     1      -3.833  -2.149   3.328  1.00  0.00     0.016 A 
ENDBRANCH   3   5
BRANCH   2  13
HETATM   13  C1  UNK     1      -0.507  -0.469   0.529  1.00  0.00    -0.015 A 
HETATM   14  C4  UNK     1      -0.485  -0.234  -0.840  1.00  0.00     0.052 A 
HETATM   15  C3  UNK     1       0.496   0.596  -1.381  1.00  0.00     0.102 A 
HETATM   16  C2  UNK     1       1.449   1.184  -0.548  1.00  0.00     0.103 A 
HETATM   17  C7  UNK     1       1.419   0.942   0.825  1.00  0.00     0.059 A 
HETATM   18  C6  UNK     1       0.437   0.112   1.366  1.00  0.00     0.024 A 
HETATM   19 Br1  UNK     1       0.454  -0.176   3.244  1.00  0.00    -0.050 Br
BRANCH  15  20
HETATM   20  O2  UNK     1       0.515   0.825  -2.723  1.00  0.00    -0.353 OA
HETATM   21  C22 UNK     1      -0.237   1.938  -3.202  1.00  0.00     0.210 C 
ENDBRANCH  15  20
BRANCH  16  22
HETATM   22  O1  UNK     1       2.412   1.997  -1.065  1.00  0.00    -0.344 OA
BRANCH  22  23
HETATM   23  C5  UNK     1       3.768   1.601  -0.867  1.00  0.00     0.214 C 
BRANCH  23  24
HETATM   24  C8  UNK     1       4.601   2.123  -2.001  1.00  0.00    -0.034 A 
HETATM   25  C12 UNK     1       4.778   1.347  -3.141  1.00  0.00     0.011 A 
HETATM   26  C16 UNK     1       5.553   1.832  -4.194  1.00  0.00     0.024 A 
HETATM   27  C18 UNK     1       6.146   3.091  -4.101  1.00  0.00     0.034 A 
HETATM   28  C17 UNK     1       5.964   3.865  -2.954  1.00  0.00     0.024 A 
HETATM   29 Cl2  UNK     1       7.102   3.690  -5.400  1.00  0.00    -0.084 Cl
HETATM   30  C13 UNK     1       5.189   3.379  -1.901  1.00  0.00     0.011 A 
ENDBRANCH  23  24
ENDBRANCH  22  23
ENDBRANCH  16  22
ENDBRANCH   2  13
TORSDOF 6
