REMARK  1 active torsions:
REMARK  status: ('A' for Active; 'I' for Inactive)
REMARK    1  A    between atoms: N1_5  and  O3_3 
ROOT
HETATM    1  O1  UNK     1       2.161   1.338   0.280  1.00  0.00    -0.334 OA
HETATM    2  O2  UNK     1      -2.071  -0.962  -0.373  1.00  0.00    -0.274 OA
HETATM    3  O4  UNK     1      -4.067  -2.059  -0.616  1.00  0.00    -0.260 OA
HETATM    4  N1  UNK     1       1.361   1.698  -3.172  1.00  0.00    -0.142 NA
HETATM    5  C1  UNK     1       2.543   1.139  -1.083  1.00  0.00     0.103 C 
HETATM    6  C2  UNK     1       0.164   0.265  -1.611  1.00  0.00     0.104 C 
HETATM    7  C3  UNK     1       1.342   1.101  -2.024  1.00  0.00     0.078 C 
HETATM    8  C4  UNK     1       0.035   0.199  -0.120  1.00  0.00     0.016 A 
HETATM    9  C5  UNK     1       1.018   0.729   0.720  1.00  0.00     0.079 A 
HETATM   10  C6  UNK     1       3.470   2.314  -1.424  1.00  0.00     0.053 C 
HETATM   11  C7  UNK     1       3.332  -0.171  -1.203  1.00  0.00     0.053 C 
HETATM   12  C8  UNK     1      -1.083  -0.407   0.475  1.00  0.00     0.099 A 
HETATM   13  C9  UNK     1      -1.245  -0.474   1.858  1.00  0.00    -0.001 A 
HETATM   14  C10 UNK     1       0.861   0.680   2.111  1.00  0.00     0.038 A 
HETATM   15  C11 UNK     1      -0.264   0.079   2.679  1.00  0.00     0.017 A 
HETATM   16  C12 UNK     1      -2.430  -1.115   2.402  1.00  0.00     0.020 A 
HETATM   17  C13 UNK     1      -3.353  -1.634   1.588  1.00  0.00     0.083 A 
HETATM   18  C14 UNK     1      -3.214  -1.580   0.122  1.00  0.00     0.288 A 
ENDROOT
BRANCH   4  19
HETATM   19  O3  UNK     1       0.170   1.405  -3.836  1.00  0.00    -0.266 OA
HETATM   20  H13 UNK     1       0.285   1.892  -4.669  1.00  0.00     0.247 HD
ENDBRANCH   4  19
TORSDOF 1
