REMARK  5 active torsions:
REMARK  status: ('A' for Active; 'I' for Inactive)
REMARK    1  A    between atoms: C7_13  and  O2_2 
REMARK    2  A    between atoms: C13_19  and  O3_3 
REMARK    3  A    between atoms: C11_17  and  O5_5 
REMARK    4  A    between atoms: C15_21  and  O6_6 
REMARK    5  A    between atoms: C2_8  and  C4_10 
ROOT
HETATM    1  O1  UNK     1      -0.614   0.662   0.476  1.00  0.00    -0.309 OA
HETATM    2  O4  UNK     1      -2.363  -2.707  -1.005  1.00  0.00    -0.287 OA
HETATM    3  C1  UNK     1      -2.213  -1.145   0.762  1.00  0.00     0.081 A 
HETATM    4  C2  UNK     1      -0.257   0.138  -0.758  1.00  0.00     0.090 A 
HETATM    5  C3  UNK     1      -1.576   0.012   1.208  1.00  0.00     0.095 A 
HETATM    6  C5  UNK     1      -1.843  -1.698  -0.550  1.00  0.00     0.190 A 
HETATM    7  C6  UNK     1      -0.802  -0.964  -1.298  1.00  0.00     0.094 A 
HETATM    8  C7  UNK     1      -3.186  -1.764   1.549  1.00  0.00     0.085 A 
HETATM    9  C8  UNK     1      -1.909   0.558   2.447  1.00  0.00     0.075 A 
HETATM   10  C11 UNK     1      -2.881  -0.058   3.237  1.00  0.00     0.071 A 
HETATM   11  C12 UNK     1      -3.517  -1.216   2.789  1.00  0.00     0.074 A 
ENDROOT
BRANCH   4  12
HETATM   12  C4  UNK     1       0.781   0.918  -1.462  1.00  0.00     0.001 A 
HETATM   13  C10 UNK     1       0.800   0.958  -2.859  1.00  0.00     0.017 A 
HETATM   14  C14 UNK     1       1.780   1.695  -3.525  1.00  0.00     0.040 A 
HETATM   15  C15 UNK     1       2.743   2.393  -2.796  1.00  0.00     0.099 A 
HETATM   16  C13 UNK     1       2.727   2.354  -1.402  1.00  0.00     0.102 A 
HETATM   17  C9  UNK     1       1.747   1.618  -0.736  1.00  0.00     0.054 A 
BRANCH  15  18
HETATM   18  O6  UNK     1       3.695   3.108  -3.458  1.00  0.00    -0.358 OA
HETATM   19  H9  UNK     1       3.551   3.017  -4.415  1.00  0.00     0.217 HD
ENDBRANCH  15  18
BRANCH  16  20
HETATM   20  O3  UNK     1       3.662   3.032  -0.679  1.00  0.00    -0.353 OA
HETATM   21  C16 UNK     1       4.862   2.333  -0.355  1.00  0.00     0.210 C 
ENDBRANCH  16  20
ENDBRANCH   4  12
BRANCH   8  22
HETATM   22  O2  UNK     1      -3.836  -2.895   1.158  1.00  0.00    -0.360 OA
HETATM   23  H7  UNK     1      -3.523  -3.183   0.287  1.00  0.00     0.217 HD
ENDBRANCH   8  22
BRANCH  10  24
HETATM   24  O5  UNK     1      -3.208   0.473   4.448  1.00  0.00    -0.361 OA
HETATM   25  H8  UNK     1      -3.896  -0.079   4.858  1.00  0.00     0.217 HD
ENDBRANCH  10  24
TORSDOF 5
