REMARK  8 active torsions:
REMARK  status: ('A' for Active; 'I' for Inactive)
REMARK    1  A    between atoms: C7_18  and  S1_1 
REMARK    2  A    between atoms: N1_10  and  S1_1 
REMARK    3  A    between atoms: C11_22  and  O2_3 
REMARK    4  A    between atoms: C9_20  and  O2_3 
REMARK    5  A    between atoms: C1_12  and  N1_10 
REMARK    6  A    between atoms: C25_36  and  N2_11 
REMARK    7  A    between atoms: C1_12  and  C11_22 
REMARK    8  A    between atoms: C3_14  and  C8_19 
ROOT
HETATM    1  O1  UNK     1      -0.950   0.582   1.018  1.00  0.00    -0.313 OA
HETATM    2  O5  UNK     1      -3.523  -2.161  -0.531  1.00  0.00    -0.286 OA
HETATM    3  C2  UNK     1      -1.779  -0.631  -0.907  1.00  0.00     0.049 A 
HETATM    4  C3  UNK     1      -2.747  -0.993   1.391  1.00  0.00     0.054 A 
HETATM    5  C4  UNK     1      -0.926   0.296  -0.319  1.00  0.00     0.092 A 
HETATM    6  C5  UNK     1      -2.750  -1.335  -0.060  1.00  0.00     0.198 A 
HETATM    7  C6  UNK     1      -1.863  -0.073   1.834  1.00  0.00     0.065 A 
HETATM    8  C9  UNK     1       0.080   0.732  -2.471  1.00  0.00     0.082 A 
HETATM    9  C10 UNK     1       0.007   0.980  -1.101  1.00  0.00     0.075 A 
HETATM   10  C13 UNK     1      -1.709  -0.883  -2.280  1.00  0.00     0.021 A 
HETATM   11  C14 UNK     1      -0.776  -0.199  -3.060  1.00  0.00     0.038 A 
HETATM   12  C17 UNK     1      -1.739   0.375   3.264  1.00  0.00     0.077 C 
ENDROOT
BRANCH   8  13
HETATM   13  O2  UNK     1       0.989   1.398  -3.235  1.00  0.00    -0.277 OA
BRANCH  13  14
HETATM   14  C11 UNK     1       2.238   0.754  -3.346  1.00  0.00     0.287 C 
HETATM   15  O6  UNK     1       2.527  -0.309  -2.812  1.00  0.00    -0.262 OA
BRANCH  14  16
HETATM   16  C1  UNK     1       3.163   1.579  -4.213  1.00  0.00     0.189 C 
HETATM   17  C12 UNK     1       3.115   1.121  -5.660  1.00  0.00     0.043 C 
BRANCH  16  18
HETATM   18  N1  UNK     1       4.536   1.399  -3.693  1.00  0.00    -0.301 N 
HETATM   19  H2  UNK     1       4.843   0.442  -3.481  1.00  0.00     0.173 HD
BRANCH  18  20
HETATM   20  S1  UNK     1       5.397   2.735  -3.091  1.00  0.00     0.259 S 
HETATM   21  O3  UNK     1       5.423   3.783  -4.093  1.00  0.00    -0.201 OA
HETATM   22  O4  UNK     1       6.632   2.267  -2.492  1.00  0.00    -0.201 OA
BRANCH  20  23
HETATM   23  C7  UNK     1       4.355   3.273  -1.768  1.00  0.00     0.079 A 
HETATM   24  C15 UNK     1       4.550   2.752  -0.500  1.00  0.00     0.026 A 
HETATM   25  C21 UNK     1       3.728   3.175   0.544  1.00  0.00     0.008 A 
HETATM   26  C20 UNK     1       2.724   4.113   0.305  1.00  0.00    -0.062 A 
HETATM   27  C22 UNK     1       2.541   4.627  -0.979  1.00  0.00     0.008 A 
HETATM   28  C26 UNK     1       1.845   4.566   1.421  1.00  0.00     0.048 C 
HETATM   29  C16 UNK     1       3.363   4.204  -2.024  1.00  0.00     0.026 A 
ENDBRANCH  20  23
ENDBRANCH  18  20
ENDBRANCH  16  18
ENDBRANCH  14  16
ENDBRANCH  13  14
ENDBRANCH   8  13
BRANCH   4  30
HETATM   30  C8  UNK     1      -3.689  -1.656   2.282  1.00  0.00    -0.019 A 
HETATM   31  C18 UNK     1      -3.330  -2.846   2.912  1.00  0.00     0.015 A 
HETATM   32  C23 UNK     1      -4.231  -3.481   3.766  1.00  0.00     0.037 A 
HETATM   33  C25 UNK     1      -5.491  -2.924   3.990  1.00  0.00     0.102 A 
HETATM   34  C24 UNK     1      -5.849  -1.733   3.358  1.00  0.00     0.037 A 
HETATM   35  C19 UNK     1      -4.947  -1.098   2.504  1.00  0.00     0.015 A 
BRANCH  33  36
HETATM   36  N2  UNK     1      -6.408  -3.570   4.860  1.00  0.00    -0.116 N 
HETATM   37  O7  UNK     1      -6.066  -4.641   5.418  1.00  0.00    -0.532 OA
HETATM   38  O8  UNK     1      -7.536  -3.053   5.047  1.00  0.00    -0.532 OA
ENDBRANCH  33  36
ENDBRANCH   4  30
TORSDOF 8
