REMARK  2 active torsions:
REMARK  status: ('A' for Active; 'I' for Inactive)
REMARK    1  A    between atoms: C9_12  and  O2_2 
REMARK    2  A    between atoms: C2_5  and  C5_8 
ROOT
HETATM    1  O1  UNK     1       0.665   1.688   1.067  1.00  0.00    -0.321 OA
HETATM    2  O3  UNK     1      -1.221  -0.948  -1.411  1.00  0.00    -0.286 OA
HETATM    3  C1  UNK     1       0.511   0.617  -1.105  1.00  0.00     0.049 A 
HETATM    4  C2  UNK     1      -1.086   0.034   0.754  1.00  0.00     0.048 A 
HETATM    5  C3  UNK     1       1.109   1.511  -0.218  1.00  0.00     0.091 A 
HETATM    6  C4  UNK     1      -0.649  -0.174  -0.654  1.00  0.00     0.197 A 
HETATM    7  C6  UNK     1       1.006   0.479  -2.404  1.00  0.00     0.021 A 
HETATM    8  C7  UNK     1       2.205   2.273  -0.625  1.00  0.00     0.075 A 
HETATM    9  C8  UNK     1      -0.403   0.931   1.482  1.00  0.00     0.159 A 
HETATM   10  C9  UNK     1       2.701   2.136  -1.922  1.00  0.00     0.070 A 
HETATM   11  C10 UNK     1       2.103   1.241  -2.809  1.00  0.00     0.038 A 
ENDROOT
BRANCH   4  12
HETATM   12  C5  UNK     1      -2.205  -0.719   1.342  1.00  0.00    -0.020 A 
HETATM   13  C11 UNK     1      -3.504  -0.212   1.274  1.00  0.00     0.012 A 
HETATM   14  C13 UNK     1      -4.565  -0.926   1.831  1.00  0.00     0.001 A 
HETATM   15  C15 UNK     1      -4.330  -2.150   2.457  1.00  0.00     0.000 A 
HETATM   16  C14 UNK     1      -3.033  -2.659   2.527  1.00  0.00     0.001 A 
HETATM   17  C12 UNK     1      -1.972  -1.945   1.970  1.00  0.00     0.012 A 
ENDBRANCH   4  12
BRANCH  10  18
HETATM   18  O2  UNK     1       3.771   2.876  -2.322  1.00  0.00    -0.356 OA
HETATM   19  C16 UNK     1       4.228   2.687  -3.660  1.00  0.00     0.210 C 
ENDBRANCH  10  18
TORSDOF 2
