REMARK  2 active torsions:
REMARK  status: ('A' for Active; 'I' for Inactive)
REMARK    1  A    between atoms: C8_14  and  N1_5 
REMARK    2  A    between atoms: C1_7  and  C4_10 
ROOT
HETATM    1  O1  UNK     1      -0.446   0.884  -2.162  1.00  0.00    -0.291 OA
HETATM    2  O2  UNK     1       2.890   0.078   0.230  1.00  0.00    -0.274 OA
HETATM    3  O3  UNK     1       1.780  -1.663   1.198  1.00  0.00    -0.259 OA
HETATM    4  N2  UNK     1      -3.769  -2.536  -1.474  1.00  0.00    -0.191 NA
HETATM    5  C1  UNK     1      -0.679  -1.232  -0.236  1.00  0.00     0.109 C 
HETATM    6  C2  UNK     1       0.579  -0.406  -0.424  1.00  0.00     0.066 A 
HETATM    7  C3  UNK     1       0.620   0.578  -1.335  1.00  0.00     0.104 A 
HETATM    8  C5  UNK     1      -1.714  -0.963  -1.325  1.00  0.00     0.086 C 
HETATM    9  C6  UNK     1       1.815   1.401  -1.506  1.00  0.00     0.033 A 
HETATM   10  C7  UNK     1       1.772  -0.730   0.401  1.00  0.00     0.298 A 
HETATM   11  C8  UNK     1      -1.564   0.053  -2.205  1.00  0.00     0.159 C 
HETATM   12  C9  UNK     1       2.922   1.128  -0.707  1.00  0.00     0.092 A 
HETATM   13  C12 UNK     1       1.908   2.453  -2.425  1.00  0.00     0.017 A 
HETATM   14  C13 UNK     1       4.102   1.865  -0.798  1.00  0.00     0.038 A 
HETATM   15  C16 UNK     1       3.084   3.202  -2.529  1.00  0.00     0.001 A 
HETATM   16  C17 UNK     1      -2.849  -1.832  -1.407  1.00  0.00     0.100 C 
HETATM   17  C18 UNK     1       4.180   2.908  -1.716  1.00  0.00     0.003 A 
ENDROOT
BRANCH   5  18
HETATM   18  C4  UNK     1      -1.277  -0.979   1.118  1.00  0.00    -0.043 A 
HETATM   19  C10 UNK     1      -1.717   0.298   1.447  1.00  0.00     0.027 A 
HETATM   20  C14 UNK     1      -2.273   0.532   2.705  1.00  0.00     0.011 A 
HETATM   21 Br1  UNK     1      -2.873   2.265   3.165  1.00  0.00    -0.051 Br
HETATM   22  C19 UNK     1      -2.386  -0.511   3.624  1.00  0.00     0.019 A 
HETATM   23  C15 UNK     1      -1.942  -1.789   3.285  1.00  0.00     0.002 A 
HETATM   24  C11 UNK     1      -1.385  -2.024   2.028  1.00  0.00     0.008 A 
ENDBRANCH   5  18
BRANCH  11  25
HETATM   25  N1  UNK     1      -2.448   0.371  -3.199  1.00  0.00    -0.379 N 
HETATM   26  H10 UNK     1      -3.300  -0.160  -3.329  1.00  0.00     0.158 HD
HETATM   27  H9  UNK     1      -2.239   1.154  -3.805  1.00  0.00     0.158 HD
ENDBRANCH  11  25
TORSDOF 2
