REMARK  6 active torsions:
REMARK  status: ('A' for Active; 'I' for Inactive)
REMARK    1  A    between atoms: C20_25  and  O2_2 
REMARK    2  A    between atoms: C23_28  and  O2_2 
REMARK    3  A    between atoms: C5_10  and  N1_4 
REMARK    4  A    between atoms: C6_11  and  N2_5 
REMARK    5  A    between atoms: C5_10  and  C7_12 
REMARK    6  A    between atoms: C6_11  and  C8_13 
ROOT
HETATM    1  C5  UNK     1      -0.601  -1.701  -0.658  1.00  0.00     0.312 C 
ENDROOT
BRANCH   1   2
HETATM    2  N1  UNK     1      -0.008  -0.366  -0.709  1.00  0.00     0.096 N 
HETATM    3  C1  UNK     1      -0.213   0.246  -2.027  1.00  0.00     0.303 C 
HETATM    4  C3  UNK     1       0.410   1.645  -2.082  1.00  0.00     0.303 C 
HETATM    5  N2  UNK     1       1.841   1.594  -1.758  1.00  0.00     0.096 N 
HETATM    6  C4  UNK     1       2.047   0.980  -0.440  1.00  0.00     0.303 C 
HETATM    7  C2  UNK     1       1.423  -0.418  -0.385  1.00  0.00     0.303 C 
BRANCH   5   8
HETATM    8  C6  UNK     1       2.433   2.929  -1.807  1.00  0.00     0.311 C 
BRANCH   8   9
HETATM    9  C8  UNK     1       3.920   2.875  -2.034  1.00  0.00    -0.024 A 
HETATM   10  C10 UNK     1       4.450   2.885  -3.324  1.00  0.00    -0.054 A 
HETATM   11  C15 UNK     1       5.832   2.835  -3.511  1.00  0.00     0.007 A 
HETATM   12  C17 UNK     1       3.559   2.949  -4.521  1.00  0.00     0.049 C 
HETATM   13  C21 UNK     1       6.683   2.774  -2.408  1.00  0.00     0.001 A 
HETATM   14  C18 UNK     1       6.153   2.765  -1.118  1.00  0.00     0.001 A 
HETATM   15  C12 UNK     1       4.772   2.815  -0.931  1.00  0.00     0.009 A 
ENDBRANCH   8   9
ENDBRANCH   5   8
ENDBRANCH   1   2
BRANCH   1  16
HETATM   16  C7  UNK     1      -2.082  -1.652  -0.504  1.00  0.00    -0.011 A 
HETATM   17  C11 UNK     1      -2.888  -1.620  -1.575  1.00  0.00     0.092 A 
HETATM   18  C16 UNK     1      -4.356  -1.571  -1.473  1.00  0.00     0.288 A 
HETATM   19  O1  UNK     1      -4.892  -1.560  -0.194  1.00  0.00    -0.275 OA
HETATM   20  O3  UNK     1      -5.063  -1.542  -2.475  1.00  0.00    -0.260 OA
HETATM   21  C13 UNK     1      -4.070  -1.593   0.950  1.00  0.00     0.090 A 
HETATM   22  C9  UNK     1      -2.679  -1.639   0.838  1.00  0.00     0.009 A 
HETATM   23  C19 UNK     1      -4.718  -1.577   2.186  1.00  0.00     0.041 A 
HETATM   24  C14 UNK     1      -1.933  -1.668   2.023  1.00  0.00     0.051 A 
HETATM   25  C20 UNK     1      -2.568  -1.652   3.270  1.00  0.00     0.069 A 
HETATM   26  C22 UNK     1      -3.959  -1.607   3.351  1.00  0.00     0.039 A 
BRANCH  25  27
HETATM   27  O2  UNK     1      -1.824  -1.682   4.410  1.00  0.00    -0.351 OA
BRANCH  27  28
HETATM   28  C23 UNK     1      -2.369  -1.033   5.557  1.00  0.00     0.171 C 
HETATM   29  C24 UNK     1      -1.236  -0.529   6.424  1.00  0.00     0.034 C 
ENDBRANCH  27  28
ENDBRANCH  25  27
ENDBRANCH   1  16
TORSDOF 6
