REMARK  5 active torsions:
REMARK  status: ('A' for Active; 'I' for Inactive)
REMARK    1  A    between atoms: C13_19  and  O2_2 
REMARK    2  A    between atoms: C6_12  and  O2_2 
REMARK    3  A    between atoms: C15_21  and  O5_5 
REMARK    4  A    between atoms: C10_16  and  C3_9 
REMARK    5  A    between atoms: C13_19  and  C15_21 
ROOT
HETATM    1  O1  UNK     1       1.693   0.814  -0.166  1.00  0.00    -0.307 OA
HETATM    2  O4  UNK     1      -1.050   0.008  -3.069  1.00  0.00    -0.287 OA
HETATM    3  C1  UNK     1      -0.431  -0.182  -0.796  1.00  0.00     0.051 A 
HETATM    4  C2  UNK     1       0.547   0.128   0.147  1.00  0.00     0.090 A 
HETATM    5  C3  UNK     1       1.887   1.210  -1.481  1.00  0.00     0.113 A 
HETATM    6  C4  UNK     1      -1.579  -0.883  -0.420  1.00  0.00     0.055 A 
HETATM    7  C5  UNK     1      -0.232   0.243  -2.190  1.00  0.00     0.187 A 
HETATM    8  C6  UNK     1      -1.741  -1.271   0.911  1.00  0.00     0.070 A 
HETATM    9  C7  UNK     1       0.382  -0.261   1.477  1.00  0.00     0.041 A 
HETATM   10  C8  UNK     1       1.017   0.977  -2.477  1.00  0.00     0.095 A 
HETATM   11  C9  UNK     1      -0.763  -0.962   1.857  1.00  0.00     0.039 A 
ENDROOT
BRANCH   8  12
HETATM   12  O2  UNK     1      -2.857  -1.955   1.287  1.00  0.00    -0.341 OA
BRANCH  12  13
HETATM   13  C13 UNK     1      -3.312  -1.767   2.626  1.00  0.00     0.285 C 
BRANCH  13  14
HETATM   14  C15 UNK     1      -4.803  -1.948   2.688  1.00  0.00     0.164 C 
HETATM   15  O6  UNK     1      -5.533  -2.193   1.739  1.00  0.00    -0.648 OA
BRANCH  14  16
HETATM   16  O5  UNK     1      -5.241  -1.801   3.964  1.00  0.00    -0.775 OA
HETATM   17  H10 UNK     1      -6.213  -1.915   4.033  1.00  0.00     0.167 HD
ENDBRANCH  14  16
ENDBRANCH  13  14
ENDBRANCH  12  13
ENDBRANCH   8  12
BRANCH   5  18
HETATM   18  C10 UNK     1       3.147   1.946  -1.706  1.00  0.00     0.108 A 
HETATM   19  C11 UNK     1       4.125   2.254  -0.778  1.00  0.00     0.042 A 
HETATM   20  C12 UNK     1       5.131   2.968  -1.472  1.00  0.00     0.027 A 
HETATM   21  C14 UNK     1       4.707   3.052  -2.778  1.00  0.00     0.142 A 
HETATM   22  O3  UNK     1       3.505   2.436  -2.930  1.00  0.00    -0.320 OA
ENDBRANCH   5  18
TORSDOF 5
