REMARK  2 active torsions:
REMARK  status: ('A' for Active; 'I' for Inactive)
REMARK    1  A    between atoms: C1_5  and  N1_4 
REMARK       I    between atoms: C10_14  and  N1_4 
REMARK    2  A    between atoms: C10_14  and  C5_9 
ROOT
HETATM    1  O2  UNK     1       0.666  -0.424   1.726  1.00  0.00    -0.267 OA
HETATM    2  N1  UNK     1      -1.151  -0.395   0.220  1.00  0.00    -0.322 N 
HETATM    3  C10 UNK     1       0.159  -0.189   0.630  1.00  0.00     0.262 C 
HETATM    4  H2  UNK     1      -1.406  -0.120  -0.724  1.00  0.00     0.169 HD
ENDROOT
BRANCH   3   5
HETATM    5  C5  UNK     1       0.983   0.387  -0.439  1.00  0.00     0.108 A 
HETATM    6  C13 UNK     1       0.716   0.115  -1.869  1.00  0.00     0.304 A 
HETATM    7  O1  UNK     1       1.568   0.719  -2.790  1.00  0.00    -0.274 OA
HETATM    8  O3  UNK     1      -0.208  -0.605  -2.231  1.00  0.00    -0.259 OA
HETATM    9  C9  UNK     1       2.632   1.548  -2.385  1.00  0.00     0.089 A 
HETATM   10  C16 UNK     1       3.431   2.109  -3.380  1.00  0.00     0.038 A 
HETATM   11  C3  UNK     1       2.866   1.790  -1.036  1.00  0.00    -0.001 A 
HETATM   12  C18 UNK     1       4.491   2.933  -3.011  1.00  0.00     0.003 A 
HETATM   13  C17 UNK     1       4.741   3.188  -1.661  1.00  0.00     0.001 A 
HETATM   14  C14 UNK     1       3.931   2.619  -0.674  1.00  0.00     0.014 A 
HETATM   15  C8  UNK     1       1.993   1.174  -0.049  1.00  0.00     0.037 A 
ENDBRANCH   3   5
BRANCH   2  16
HETATM   16  C1  UNK     1      -2.184  -0.928   0.997  1.00  0.00     0.041 A 
HETATM   17  C2  UNK     1      -3.465  -1.087   0.470  1.00  0.00    -0.035 A 
HETATM   18  C12 UNK     1      -3.776  -0.696  -0.939  1.00  0.00     0.050 C 
HETATM   19  C6  UNK     1      -4.482  -1.620   1.261  1.00  0.00     0.015 A 
HETATM   20  C4  UNK     1      -4.218  -1.993   2.579  1.00  0.00    -0.061 A 
HETATM   21  C11 UNK     1      -2.937  -1.833   3.105  1.00  0.00     0.009 A 
HETATM   22  C15 UNK     1      -5.306  -2.563   3.425  1.00  0.00     0.048 C 
HETATM   23  C7  UNK     1      -1.919  -1.300   2.314  1.00  0.00     0.030 A 
ENDBRANCH   2  16
TORSDOF 2
