REMARK  2 active torsions:
REMARK  status: ('A' for Active; 'I' for Inactive)
REMARK       I    between atoms: C6_10  and  N1_4 
REMARK    1  A    between atoms: C7_11  and  N1_4 
REMARK    2  A    between atoms: C1_5  and  C6_10 
ROOT
HETATM    1  O2  UNK     1       2.529   1.325   0.209  1.00  0.00    -0.275 OA
HETATM    2  O3  UNK     1       4.541   2.365   0.526  1.00  0.00    -0.260 OA
HETATM    3  C7  UNK     1      -0.597  -0.202  -0.947  1.00  0.00     0.037 A 
HETATM    4  C8  UNK     1       0.429   0.239  -0.118  1.00  0.00     0.067 A 
HETATM    5  C9  UNK     1      -0.523   0.024  -2.320  1.00  0.00     0.030 A 
HETATM    6  C10 UNK     1       1.622   1.143  -2.052  1.00  0.00     0.004 A 
HETATM    7  C11 UNK     1       1.521   0.903  -0.681  1.00  0.00     0.092 A 
HETATM    8  C12 UNK     1       0.578   0.691  -2.870  1.00  0.00     0.017 A 
HETATM    9  C13 UNK     1       2.807   1.849  -2.557  1.00  0.00    -0.043 A 
HETATM   10  C14 UNK     1       3.750   2.239  -1.688  1.00  0.00     0.090 A 
HETATM   11  C15 UNK     1       2.945   2.123  -4.027  1.00  0.00     0.049 C 
HETATM   12  C16 UNK     1       3.658   1.993  -0.239  1.00  0.00     0.288 A 
ENDROOT
BRANCH   3  13
HETATM   13  N1  UNK     1      -1.697  -0.868  -0.406  1.00  0.00    -0.327 N 
HETATM   14  C6  UNK     1      -1.944  -1.182   0.937  1.00  0.00     0.226 C 
HETATM   15  O1  UNK     1      -1.235  -0.925   1.905  1.00  0.00    -0.273 OA
HETATM   16  H10 UNK     1      -2.403  -1.151  -1.083  1.00  0.00     0.169 HD
BRANCH  14  17
HETATM   17  C1  UNK     1      -3.244  -1.907   1.109  1.00  0.00     0.078 C 
HETATM   18  C2  UNK     1      -4.377  -0.910   1.374  1.00  0.00     0.014 C 
HETATM   19  C4  UNK     1      -5.015  -1.344   2.689  1.00  0.00     0.001 C 
HETATM   20  C5  UNK     1      -3.893  -2.049   3.430  1.00  0.00     0.001 C 
HETATM   21  C3  UNK     1      -3.191  -2.829   2.328  1.00  0.00     0.014 C 
ENDBRANCH  14  17
ENDBRANCH   3  13
TORSDOF 2
