REMARK  3 active torsions:
REMARK  status: ('A' for Active; 'I' for Inactive)
REMARK       I    between atoms: C5_8  and  N1_2 
REMARK    1  A    between atoms: C5_8  and  C7_10 
REMARK    2  A    between atoms: C7_10  and  C8_11 
REMARK    3  A    between atoms: C10_13  and  C9_12 
ROOT
HETATM    1  C7  UNK     1      -0.711  -0.181   0.926  1.00  0.00     0.043 C 
HETATM    2  C9  UNK     1       0.512  -0.406   1.438  1.00  0.00     0.029 C 
ENDROOT
BRANCH   1   3
HETATM    3  C5  UNK     1      -0.798   0.965  -0.002  1.00  0.00     0.254 C 
HETATM    4  O1  UNK     1      -1.069   2.067   0.478  1.00  0.00    -0.267 OA
HETATM    5  N1  UNK     1      -0.577   0.722  -1.355  1.00  0.00    -0.345 N 
HETATM    6  C1  UNK     1      -0.664   1.836  -2.301  1.00  0.00     0.156 C 
HETATM    7  C2  UNK     1      -0.388  -0.594  -1.978  1.00  0.00     0.156 C 
HETATM    8  C3  UNK     1       0.474   1.808  -3.319  1.00  0.00     0.291 C 
HETATM    9  N2  UNK     1       0.522   0.508  -4.001  1.00  0.00     0.087 N 
HETATM   10  C4  UNK     1       0.729  -0.569  -3.024  1.00  0.00     0.291 C 
HETATM   11  C6  UNK     1       1.580   0.496  -5.011  1.00  0.00     0.310 C 
ENDBRANCH   1   3
BRANCH   1  12
HETATM   12  C8  UNK     1      -1.916  -0.970   1.216  1.00  0.00    -0.021 A 
HETATM   13  C11 UNK     1      -1.792  -2.317   1.524  1.00  0.00     0.012 A 
HETATM   14  C13 UNK     1      -2.936  -3.066   1.800  1.00  0.00     0.001 A 
HETATM   15  C17 UNK     1      -4.191  -2.460   1.765  1.00  0.00     0.000 A 
HETATM   16  C14 UNK     1      -4.303  -1.105   1.454  1.00  0.00     0.001 A 
HETATM   17  C12 UNK     1      -3.160  -0.356   1.178  1.00  0.00     0.012 A 
ENDBRANCH   1  12
BRANCH   2  18
HETATM   18  C10 UNK     1       1.722   0.379   1.153  1.00  0.00    -0.035 A 
HETATM   19  C15 UNK     1       2.542   0.008   0.098  1.00  0.00     0.011 A 
HETATM   20  C18 UNK     1       3.690   0.752  -0.173  1.00  0.00     0.001 A 
HETATM   21  C20 UNK     1       4.005   1.860   0.613  1.00  0.00     0.000 A 
HETATM   22  C19 UNK     1       3.171   2.224   1.671  1.00  0.00     0.001 A 
HETATM   23  C16 UNK     1       2.023   1.479   1.943  1.00  0.00     0.011 A 
ENDBRANCH   2  18
TORSDOF 3
