REMARK  3 active torsions:
REMARK  status: ('A' for Active; 'I' for Inactive)
REMARK    1  A    between atoms: C11_15  and  N1_4 
REMARK       I    between atoms: C8_12  and  N1_4 
REMARK    2  A    between atoms: C3_7  and  C8_12 
REMARK    3  A    between atoms: C11_15  and  C12_16 
ROOT
HETATM    1  O1  UNK     1       0.174   0.595  -2.186  1.00  0.00    -0.274 OA
HETATM    2  O2  UNK     1      -1.788  -0.432  -1.620  1.00  0.00    -0.259 OA
HETATM    3  C1  UNK     1       1.839   1.030  -0.469  1.00  0.00    -0.001 A 
HETATM    4  C2  UNK     1       1.428   1.103  -1.796  1.00  0.00     0.089 A 
HETATM    5  C3  UNK     1      -0.239  -0.059   0.134  1.00  0.00     0.108 A 
HETATM    6  C4  UNK     1       0.952   0.422   0.510  1.00  0.00     0.037 A 
HETATM    7  C5  UNK     1       3.091   1.545  -0.122  1.00  0.00     0.014 A 
HETATM    8  C6  UNK     1      -0.697   0.007  -1.272  1.00  0.00     0.304 A 
HETATM    9  C7  UNK     1       2.230   1.673  -2.783  1.00  0.00     0.038 A 
HETATM   10  C9  UNK     1       3.906   2.120  -1.101  1.00  0.00     0.001 A 
HETATM   11  C10 UNK     1       3.477   2.184  -2.428  1.00  0.00     0.003 A 
ENDROOT
BRANCH   5  12
HETATM   12  C8  UNK     1      -1.062  -0.654   1.194  1.00  0.00     0.258 C 
HETATM   13  O3  UNK     1      -0.980  -0.256   2.355  1.00  0.00    -0.267 OA
HETATM   14  N1  UNK     1      -1.889  -1.662   0.732  1.00  0.00    -0.353 N 
HETATM   15  H6  UNK     1      -1.870  -1.930  -0.247  1.00  0.00     0.163 HD
BRANCH  14  16
HETATM   16  C11 UNK     1      -2.790  -2.397   1.590  1.00  0.00     0.149 C 
BRANCH  16  17
HETATM   17  C12 UNK     1      -4.108  -1.698   1.626  1.00  0.00    -0.018 C 
HETATM   18  C13 UNK     1      -4.680  -1.244   2.747  1.00  0.00     0.008 C 
ENDBRANCH  16  17
ENDBRANCH  14  16
ENDBRANCH   5  12
TORSDOF 3
