REMARK  4 active torsions:
REMARK  status: ('A' for Active; 'I' for Inactive)
REMARK    1  A    between atoms: C16_22  and  O5_5 
REMARK       I    between atoms: C5_11  and  N1_6 
REMARK    2  A    between atoms: C3_9  and  C4_10 
REMARK    3  A    between atoms: C3_9  and  C5_11 
REMARK    4  A    between atoms: C4_10  and  C6_12 
ROOT
HETATM    1  O2  UNK     1       0.858   1.505  -2.437  1.00  0.00    -0.274 OA
HETATM    2  O4  UNK     1      -1.366   1.361  -2.008  1.00  0.00    -0.259 OA
HETATM    3  C6  UNK     1       0.084   1.169  -0.129  1.00  0.00     0.025 A 
HETATM    4  C9  UNK     1       1.356   1.122   0.323  1.00  0.00    -0.037 A 
HETATM    5  C10 UNK     1       2.472   1.308  -0.627  1.00  0.00     0.005 A 
HETATM    6  C11 UNK     1       2.183   1.492  -1.976  1.00  0.00     0.099 A 
HETATM    7  C12 UNK     1      -0.217   1.352  -1.578  1.00  0.00     0.295 A 
HETATM    8  C13 UNK     1       3.178   1.676  -2.939  1.00  0.00     0.006 A 
HETATM    9  C14 UNK     1       1.722   0.869   1.765  1.00  0.00     0.050 C 
HETATM   10  C15 UNK     1       3.825   1.322  -0.254  1.00  0.00     0.017 A 
HETATM   11  C16 UNK     1       4.512   1.681  -2.549  1.00  0.00     0.074 A 
HETATM   12  C17 UNK     1       4.835   1.505  -1.206  1.00  0.00     0.038 A 
HETATM   13  C18 UNK     1       2.820   1.867  -4.377  1.00  0.00     0.054 C 
ENDROOT
BRANCH   3  14
HETATM   14  C4  UNK     1      -1.143   1.059   0.739  1.00  0.00     0.055 C 
BRANCH  14  15
HETATM   15  C3  UNK     1      -1.598  -0.381   0.899  1.00  0.00     0.108 C 
BRANCH  15  16
HETATM   16  C5  UNK     1      -2.801  -0.475   1.804  1.00  0.00     0.220 C 
HETATM   17  O3  UNK     1      -3.273   0.555   2.292  1.00  0.00    -0.273 OA
HETATM   18  N1  UNK     1      -3.312  -1.751   2.027  1.00  0.00    -0.348 N 
HETATM   19  C1  UNK     1      -4.481  -1.931   2.889  1.00  0.00     0.152 C 
HETATM   20  C2  UNK     1      -2.704  -3.004   1.568  1.00  0.00     0.152 C 
HETATM   21  C7  UNK     1      -5.471  -2.891   2.245  1.00  0.00     0.187 C 
HETATM   22  O1  UNK     1      -4.825  -4.126   1.925  1.00  0.00    -0.388 OA
HETATM   23  C8  UNK     1      -3.768  -3.924   0.983  1.00  0.00     0.187 C 
ENDBRANCH  15  16
ENDBRANCH  14  15
ENDBRANCH   3  14
BRANCH  11  24
HETATM   24  O5  UNK     1       5.510   1.857  -3.458  1.00  0.00    -0.360 OA
HETATM   25  H21 UNK     1       6.367   1.830  -2.999  1.00  0.00     0.217 HD
ENDBRANCH  11  24
TORSDOF 4
