REMARK  5 active torsions:
REMARK  status: ('A' for Active; 'I' for Inactive)
REMARK    1  A    between atoms: C19_22  and  O2_2 
REMARK    2  A    between atoms: C20_23  and  O3_3 
REMARK    3  A    between atoms: C13_16  and  C8_11 
REMARK    4  A    between atoms: C13_16  and  C14_17 
REMARK    5  A    between atoms: C15_18  and  C16_19 
ROOT
HETATM    1  O1  UNK     1       2.184  -0.644   1.262  1.00  0.00    -0.288 OA
HETATM    2  C13 UNK     1       1.507   0.146   0.589  1.00  0.00     0.183 C 
ENDROOT
BRANCH   2   3
HETATM    3  C8  UNK     1       2.147   1.178  -0.216  1.00  0.00     0.025 A 
HETATM    4  C11 UNK     1       2.369   2.442   0.364  1.00  0.00     0.017 A 
HETATM    5  C7  UNK     1       2.982   3.477  -0.361  1.00  0.00     0.009 A 
HETATM    6  C4  UNK     1       3.368   3.237  -1.668  1.00  0.00    -0.046 A 
HETATM    7  C1  UNK     1       3.143   2.001  -2.214  1.00  0.00    -0.012 A 
HETATM    8  C2  UNK     1       4.032   4.155  -2.652  1.00  0.00     0.044 A 
HETATM    9  C5  UNK     1       3.591   1.959  -3.508  1.00  0.00    -0.046 A 
HETATM   10  C6  UNK     1       2.540   0.934  -1.546  1.00  0.00    -0.011 A 
HETATM   11  C3  UNK     1       4.188   3.272  -3.921  1.00  0.00     0.044 A 
HETATM   12  C9  UNK     1       3.452   0.788  -4.232  1.00  0.00     0.008 A 
HETATM   13  C12 UNK     1       2.852  -0.322  -3.613  1.00  0.00     0.001 A 
HETATM   14  C10 UNK     1       2.397  -0.257  -2.281  1.00  0.00     0.013 A 
ENDBRANCH   2   3
BRANCH   2  15
HETATM   15  C14 UNK     1       0.009   0.041   0.563  1.00  0.00     0.056 C 
HETATM   16  C15 UNK     1      -0.620  -0.911   1.268  1.00  0.00     0.015 C 
BRANCH  16  17
HETATM   17  C16 UNK     1      -2.081  -1.103   1.294  1.00  0.00    -0.033 A 
HETATM   18  C17 UNK     1      -2.653  -1.811   2.338  1.00  0.00     0.051 A 
HETATM   19  C19 UNK     1      -4.036  -1.993   2.363  1.00  0.00     0.102 A 
HETATM   20  C20 UNK     1      -4.827  -1.465   1.343  1.00  0.00     0.101 A 
HETATM   21  C21 UNK     1      -4.236  -0.755   0.298  1.00  0.00     0.040 A 
HETATM   22  C18 UNK     1      -2.853  -0.573   0.274  1.00  0.00     0.014 A 
BRANCH  19  23
HETATM   23  O2  UNK     1      -4.602  -2.689   3.389  1.00  0.00    -0.353 OA
HETATM   24  C22 UNK     1      -3.723  -3.196   4.391  1.00  0.00     0.210 C 
ENDBRANCH  19  23
BRANCH  20  25
HETATM   25  O3  UNK     1      -6.178  -1.636   1.356  1.00  0.00    -0.353 OA
HETATM   26  C23 UNK     1      -6.691  -2.795   0.703  1.00  0.00     0.210 C 
ENDBRANCH  20  25
ENDBRANCH  16  17
ENDBRANCH   2  15
TORSDOF 5
