REMARK  3 active torsions:
REMARK  status: ('A' for Active; 'I' for Inactive)
REMARK    1  A    between atoms: C5_13  and  N1_7 
REMARK       I    between atoms: C6_14  and  N1_7 
REMARK    2  A    between atoms: C12_20  and  N2_8 
REMARK    3  A    between atoms: C2_10  and  C6_14 
ROOT
HETATM    1  O2  UNK     1      -0.905  -0.528  -1.505  1.00  0.00    -0.267 OA
HETATM    2  N1  UNK     1      -0.448  -0.082   0.761  1.00  0.00    -0.321 N 
HETATM    3  C6  UNK     1      -0.197  -0.082  -0.604  1.00  0.00     0.262 C 
HETATM    4  H2  UNK     1       0.234   0.349   1.381  1.00  0.00     0.169 HD
ENDROOT
BRANCH   3   5
HETATM    5  C2  UNK     1       1.089   0.545  -0.931  1.00  0.00     0.108 A 
HETATM    6  C4  UNK     1       1.166   1.149  -2.123  1.00  0.00     0.037 A 
HETATM    7  C1  UNK     1       2.400   1.799  -2.537  1.00  0.00    -0.001 A 
HETATM    8  C3  UNK     1       3.492   1.781  -1.676  1.00  0.00     0.089 A 
HETATM    9  C7  UNK     1       2.525   2.442  -3.771  1.00  0.00     0.014 A 
HETATM   10  O1  UNK     1       3.404   1.144  -0.422  1.00  0.00    -0.274 OA
HETATM   11  C9  UNK     1       4.702   2.384  -2.012  1.00  0.00     0.038 A 
HETATM   12  C8  UNK     1       2.238   0.513   0.001  1.00  0.00     0.304 A 
HETATM   13  O3  UNK     1       2.171  -0.040   1.094  1.00  0.00    -0.259 OA
HETATM   14  C14 UNK     1       4.819   3.022  -3.245  1.00  0.00     0.003 A 
HETATM   15  C13 UNK     1       3.733   3.051  -4.123  1.00  0.00     0.001 A 
ENDBRANCH   3   5
BRANCH   2  16
HETATM   16  C5  UNK     1      -1.584  -0.599   1.431  1.00  0.00     0.059 A 
HETATM   17  C10 UNK     1      -2.581  -1.181   0.664  1.00  0.00     0.067 A 
HETATM   18  C12 UNK     1      -3.713  -1.699   1.294  1.00  0.00     0.105 A 
HETATM   19  C16 UNK     1      -3.832  -1.629   2.682  1.00  0.00     0.038 A 
HETATM   20  C15 UNK     1      -2.820  -1.041   3.440  1.00  0.00     0.028 A 
HETATM   21  C11 UNK     1      -1.689  -0.522   2.811  1.00  0.00     0.060 A 
HETATM   22 Cl1  UNK     1      -0.461   0.199   3.788  1.00  0.00    -0.082 Cl
BRANCH  18  23
HETATM   23  N2  UNK     1      -4.743  -2.299   0.522  1.00  0.00    -0.116 N 
HETATM   24  O4  UNK     1      -5.752  -2.761   1.108  1.00  0.00    -0.532 OA
HETATM   25  O5  UNK     1      -4.616  -2.352  -0.725  1.00  0.00    -0.532 OA
ENDBRANCH  18  23
ENDBRANCH   2  16
TORSDOF 3
