REMARK  3 active torsions:
REMARK  status: ('A' for Active; 'I' for Inactive)
REMARK    1  A    between atoms: C11_15  and  O2_2 
REMARK    2  A    between atoms: C9_13  and  O2_2 
REMARK    3  A    between atoms: C4_8  and  C9_13 
ROOT
HETATM    1  O1  UNK     1      -0.193   0.511  -1.966  1.00  0.00    -0.274 OA
HETATM    2  O3  UNK     1      -2.224  -0.258  -1.258  1.00  0.00    -0.259 OA
HETATM    3  C1  UNK     1       1.590   0.857  -0.350  1.00  0.00    -0.001 A 
HETATM    4  C2  UNK     1       1.127   0.898  -1.661  1.00  0.00     0.089 A 
HETATM    5  C3  UNK     1       0.690   0.407   0.701  1.00  0.00     0.038 A 
HETATM    6  C4  UNK     1      -0.562   0.041   0.405  1.00  0.00     0.115 A 
HETATM    7  C5  UNK     1       2.905   1.249  -0.087  1.00  0.00     0.014 A 
HETATM    8  C6  UNK     1       1.938   1.319  -2.713  1.00  0.00     0.038 A 
HETATM    9  C7  UNK     1      -1.077   0.077  -0.983  1.00  0.00     0.304 A 
HETATM   10  C8  UNK     1       3.731   1.673  -1.132  1.00  0.00     0.001 A 
HETATM   11  C10 UNK     1       3.248   1.708  -2.442  1.00  0.00     0.003 A 
ENDROOT
BRANCH   6  12
HETATM   12  C9  UNK     1      -1.394  -0.397   1.533  1.00  0.00     0.299 C 
HETATM   13  O4  UNK     1      -1.258   0.021   2.670  1.00  0.00    -0.259 OA
BRANCH  12  14
HETATM   14  O2  UNK     1      -2.292  -1.307   1.080  1.00  0.00    -0.318 OA
BRANCH  14  15
HETATM   15  C11 UNK     1      -3.182  -1.831   2.070  1.00  0.00     0.174 C 
HETATM   16  C12 UNK     1      -4.116  -2.826   1.416  1.00  0.00     0.034 C 
ENDBRANCH  14  15
ENDBRANCH  12  14
ENDBRANCH   6  12
TORSDOF 3
