REMARK  5 active torsions:
REMARK  status: ('A' for Active; 'I' for Inactive)
REMARK    1  A    between atoms: C5_13  and  O2_3 
REMARK    2  A    between atoms: C15_23  and  O5_6 
REMARK       I    between atoms: C7_15  and  N1_8 
REMARK    3  A    between atoms: C9_17  and  N1_8 
REMARK    4  A    between atoms: C3_11  and  C7_15 
REMARK    5  A    between atoms: C12_20  and  C15_23 
ROOT
HETATM    1  O1  UNK     1       2.252   0.511  -0.378  1.00  0.00    -0.271 OA
HETATM    2  O4  UNK     1       0.812  -0.820   0.794  1.00  0.00    -0.259 OA
HETATM    3  C1  UNK     1       1.551   1.457  -2.505  1.00  0.00     0.002 A 
HETATM    4  C2  UNK     1       2.516   1.299  -1.515  1.00  0.00     0.123 A 
HETATM    5  C3  UNK     1       0.021   0.046  -1.265  1.00  0.00     0.108 A 
HETATM    6  C4  UNK     1       0.266   0.794  -2.347  1.00  0.00     0.037 A 
HETATM    7  C5  UNK     1       3.766   1.907  -1.606  1.00  0.00     0.102 A 
HETATM    8  C6  UNK     1       1.849   2.248  -3.617  1.00  0.00     0.014 A 
HETATM    9  C8  UNK     1       1.032  -0.135  -0.199  1.00  0.00     0.304 A 
HETATM   10  C10 UNK     1       4.055   2.694  -2.719  1.00  0.00     0.040 A 
HETATM   11  C11 UNK     1       3.099   2.864  -3.722  1.00  0.00     0.004 A 
ENDROOT
BRANCH   5  12
HETATM   12  C7  UNK     1      -1.304  -0.583  -1.196  1.00  0.00     0.262 C 
HETATM   13  O3  UNK     1      -1.887  -0.891  -2.234  1.00  0.00    -0.267 OA
HETATM   14  N1  UNK     1      -1.738  -0.748   0.112  1.00  0.00    -0.321 N 
HETATM   15  H3  UNK     1      -1.143  -0.417   0.865  1.00  0.00     0.169 HD
BRANCH  14  16
HETATM   16  C9  UNK     1      -2.959  -1.315   0.551  1.00  0.00     0.058 A 
HETATM   17  C12 UNK     1      -3.278  -1.423   1.867  1.00  0.00     0.106 A 
HETATM   18  S1  UNK     1      -4.818  -2.147   2.063  1.00  0.00    -0.094 SA
HETATM   19  C14 UNK     1      -5.022  -2.297   0.369  1.00  0.00     0.053 A 
HETATM   20  C13 UNK     1      -3.939  -1.807  -0.327  1.00  0.00     0.038 A 
BRANCH  17  21
HETATM   21  C15 UNK     1      -2.552  -1.039   3.036  1.00  0.00     0.302 C 
HETATM   22  O6  UNK     1      -2.945  -1.188   4.216  1.00  0.00    -0.259 OA
BRANCH  21  23
HETATM   23  O5  UNK     1      -1.333  -0.469   2.738  1.00  0.00    -0.322 OA
HETATM   24  C17 UNK     1      -0.509  -0.042   3.828  1.00  0.00     0.213 C 
ENDBRANCH  21  23
ENDBRANCH  17  21
ENDBRANCH  14  16
ENDBRANCH   5  12
BRANCH   7  25
HETATM   25  O2  UNK     1       4.700   1.744  -0.631  1.00  0.00    -0.353 OA
HETATM   26  C16 UNK     1       4.694   2.688   0.440  1.00  0.00     0.210 C 
ENDBRANCH   7  25
TORSDOF 5
