REMARK  3 active torsions:
REMARK  status: ('A' for Active; 'I' for Inactive)
REMARK    1  A    between atoms: C6_10  and  O2_2 
REMARK    2  A    between atoms: C13_17  and  O4_4 
REMARK    3  A    between atoms: C3_7  and  C4_8 
ROOT
HETATM    1  O1  UNK     1      -0.521   0.081  -0.904  1.00  0.00    -0.309 OA
HETATM    2  O3  UNK     1       2.561   2.263   0.623  1.00  0.00    -0.287 OA
HETATM    3  C1  UNK     1       1.573   1.255  -1.272  1.00  0.00     0.081 A 
HETATM    4  C2  UNK     1       0.489   0.507  -1.728  1.00  0.00     0.093 A 
HETATM    5  C3  UNK     1      -0.455   0.403   0.443  1.00  0.00     0.090 A 
HETATM    6  C5  UNK     1       1.642   1.607   0.155  1.00  0.00     0.190 A 
HETATM    7  C6  UNK     1       2.573   1.663  -2.157  1.00  0.00     0.085 A 
HETATM    8  C7  UNK     1       0.532   1.122   1.000  1.00  0.00     0.094 A 
HETATM    9  C8  UNK     1       0.399   0.161  -3.077  1.00  0.00     0.038 A 
HETATM   10  C10 UNK     1       2.481   1.315  -3.505  1.00  0.00     0.038 A 
HETATM   11  C12 UNK     1       1.397   0.566  -3.964  1.00  0.00     0.006 A 
ENDROOT
BRANCH   5  12
HETATM   12  C4  UNK     1      -1.594  -0.100   1.237  1.00  0.00     0.001 A 
HETATM   13  C11 UNK     1      -2.035   0.609   2.357  1.00  0.00     0.014 A 
HETATM   14  C14 UNK     1      -3.111   0.136   3.107  1.00  0.00     0.004 A 
HETATM   15  C15 UNK     1      -3.750  -1.049   2.739  1.00  0.00     0.037 A 
HETATM   16  C13 UNK     1      -3.313  -1.759   1.621  1.00  0.00     0.069 A 
HETATM   17  C9  UNK     1      -2.237  -1.285   0.871  1.00  0.00     0.051 A 
BRANCH  16  18
HETATM   18  O4  UNK     1      -3.936  -2.914   1.263  1.00  0.00    -0.356 OA
HETATM   19  C17 UNK     1      -5.030  -3.341   2.074  1.00  0.00     0.210 C 
ENDBRANCH  16  18
ENDBRANCH   5  12
BRANCH   7  20
HETATM   20  O2  UNK     1       3.651   2.394  -1.760  1.00  0.00    -0.355 OA
HETATM   21  C16 UNK     1       3.523   3.814  -1.803  1.00  0.00     0.210 C 
ENDBRANCH   7  20
TORSDOF 3
