REMARK  8 active torsions:
REMARK  status: ('A' for Active; 'I' for Inactive)
REMARK    1  A    between atoms: C3_9  and  O2_2 
REMARK    2  A    between atoms: C6_12  and  O3_3 
REMARK    3  A    between atoms: C16_22  and  O5_5 
REMARK    4  A    between atoms: C20_26  and  O6_6 
REMARK    5  A    between atoms: C1_7  and  C4_10 
REMARK    6  A    between atoms: C10_16  and  C4_10 
REMARK    7  A    between atoms: C11_17  and  C8_14 
REMARK    8  A    between atoms: C13_19  and  C16_22 
ROOT
HETATM    1  O1  UNK     1       1.574   1.570   1.776  1.00  0.00    -0.321 OA
HETATM    2  O4  UNK     1      -0.314   0.875  -1.774  1.00  0.00    -0.286 OA
HETATM    3  C1  UNK     1      -2.332   0.144   1.858  1.00  0.00     0.013 A 
HETATM    4  C2  UNK     1      -0.404   0.833   0.578  1.00  0.00     0.083 A 
HETATM    5  C3  UNK     1      -1.717   0.355   0.623  1.00  0.00     0.092 A 
HETATM    6  C5  UNK     1       0.286   1.099   1.760  1.00  0.00     0.094 A 
HETATM    7  C6  UNK     1      -1.641   0.410   3.041  1.00  0.00     0.077 A 
HETATM    8  C7  UNK     1       0.267   1.068  -0.714  1.00  0.00     0.200 A 
HETATM    9  C8  UNK     1       1.671   1.560  -0.651  1.00  0.00     0.048 A 
HETATM   10  C9  UNK     1      -0.331   0.888   2.993  1.00  0.00     0.075 A 
HETATM   11  C12 UNK     1       2.196   1.765   0.566  1.00  0.00     0.159 A 
ENDROOT
BRANCH   9  12
HETATM   12  C11 UNK     1       2.468   1.797  -1.865  1.00  0.00    -0.020 A 
HETATM   13  C14 UNK     1       3.230   0.765  -2.416  1.00  0.00     0.015 A 
HETATM   14  C18 UNK     1       3.986   0.990  -3.566  1.00  0.00     0.037 A 
HETATM   15  C20 UNK     1       3.981   2.248  -4.169  1.00  0.00     0.065 A 
HETATM   16  C19 UNK     1       3.221   3.281  -3.621  1.00  0.00     0.037 A 
HETATM   17  C15 UNK     1       2.465   3.056  -2.470  1.00  0.00     0.015 A 
BRANCH  15  18
HETATM   18  O6  UNK     1       4.719   2.468  -5.291  1.00  0.00    -0.361 OA
HETATM   19  H18 UNK     1       4.599   3.391  -5.572  1.00  0.00     0.217 HD
ENDBRANCH  15  18
ENDBRANCH   9  12
BRANCH   5  20
HETATM   20  O2  UNK     1      -2.423   0.084  -0.512  1.00  0.00    -0.359 OA
HETATM   21  H8  UNK     1      -1.878   0.223  -1.301  1.00  0.00     0.217 HD
ENDBRANCH   5  20
BRANCH   3  22
HETATM   22  C4  UNK     1      -3.736  -0.368   1.919  1.00  0.00     0.072 C 
BRANCH  22  23
HETATM   23  C10 UNK     1      -3.807  -1.873   1.958  1.00  0.00    -0.018 C 
HETATM   24  C13 UNK     1      -4.382  -2.703   1.066  1.00  0.00    -0.064 C 
HETATM   25  C17 UNK     1      -5.082  -2.267  -0.192  1.00  0.00     0.045 C 
BRANCH  24  26
HETATM   26  C16 UNK     1      -4.366  -4.193   1.302  1.00  0.00     0.197 C 
BRANCH  26  27
HETATM   27  O5  UNK     1      -3.692  -4.839   0.230  1.00  0.00    -0.397 OA
HETATM   28  H17 UNK     1      -2.777  -4.511   0.217  1.00  0.00     0.209 HD
ENDBRANCH  26  27
ENDBRANCH  24  26
ENDBRANCH  22  23
ENDBRANCH   3  22
BRANCH   7  29
HETATM   29  O3  UNK     1      -2.230   0.209   4.253  1.00  0.00    -0.360 OA
HETATM   30  H14 UNK     1      -2.939  -0.449   4.186  1.00  0.00     0.217 HD
ENDBRANCH   7  29
TORSDOF 8
