REMARK  6 active torsions:
REMARK  status: ('A' for Active; 'I' for Inactive)
REMARK    1  A    between atoms: C1_8  and  S1_1 
REMARK    2  A    between atoms: O1_2  and  S1_1 
REMARK    3  A    between atoms: C10_17  and  O1_2 
REMARK    4  A    between atoms: C5_12  and  N1_7 
REMARK    5  A    between atoms: C2_9  and  C6_13 
REMARK    6  A    between atoms: C8_15  and  C9_16 
ROOT
HETATM    1  C1  UNK     1       1.250   1.308  -0.917  1.00  0.00     0.099 A 
HETATM    2  C2  UNK     1       0.485   0.841  -1.975  1.00  0.00    -0.012 A 
HETATM    3  C3  UNK     1       2.568   1.705  -1.146  1.00  0.00     0.062 A 
HETATM    4  C4  UNK     1       1.008   0.761  -3.257  1.00  0.00     0.015 A 
HETATM    5  C5  UNK     1       3.105   1.629  -2.431  1.00  0.00     0.104 A 
HETATM    6  C7  UNK     1       2.325   1.157  -3.487  1.00  0.00     0.037 A 
ENDROOT
BRANCH   1   7
HETATM    7  S1  UNK     1       0.621   1.422   0.715  1.00  0.00     0.304 S 
HETATM    8  O2  UNK     1       1.662   2.061   1.505  1.00  0.00    -0.193 OA
HETATM    9  O3  UNK     1      -0.713   1.997   0.621  1.00  0.00    -0.193 OA
BRANCH   7  10
HETATM   10  O1  UNK     1       0.464  -0.132   1.200  1.00  0.00    -0.229 OA
BRANCH  10  11
HETATM   11  C10 UNK     1      -0.006  -0.496   2.438  1.00  0.00     0.089 A 
HETATM   12  C13 UNK     1      -0.373   0.488   3.347  1.00  0.00     0.038 A 
HETATM   13  C17 UNK     1      -0.849   0.118   4.605  1.00  0.00     0.003 A 
HETATM   14  C20 UNK     1      -0.954  -1.231   4.943  1.00  0.00     0.000 A 
HETATM   15  C18 UNK     1      -0.583  -2.211   4.023  1.00  0.00     0.003 A 
HETATM   16  C14 UNK     1      -0.106  -1.842   2.765  1.00  0.00     0.038 A 
ENDBRANCH  10  11
ENDBRANCH   7  10
ENDBRANCH   1   7
BRANCH   2  17
HETATM   17  C6  UNK     1      -0.911   0.412  -1.779  1.00  0.00     0.014 C 
HETATM   18  C8  UNK     1      -1.301  -0.838  -1.434  1.00  0.00     0.012 C 
BRANCH  18  19
HETATM   19  C9  UNK     1      -2.678  -1.258  -1.222  1.00  0.00    -0.036 A 
HETATM   20  C11 UNK     1      -3.727  -0.510  -1.757  1.00  0.00     0.011 A 
HETATM   21  C15 UNK     1      -5.046  -0.914  -1.555  1.00  0.00     0.001 A 
HETATM   22  C19 UNK     1      -5.317  -2.067  -0.818  1.00  0.00     0.000 A 
HETATM   23  C16 UNK     1      -4.268  -2.816  -0.284  1.00  0.00     0.001 A 
HETATM   24  C12 UNK     1      -2.948  -2.411  -0.486  1.00  0.00     0.011 A 
ENDBRANCH  18  19
ENDBRANCH   2  17
BRANCH   5  25
HETATM   25  N1  UNK     1       4.446   2.032  -2.666  1.00  0.00    -0.116 N 
HETATM   26  O4  UNK     1       4.909   1.956  -3.830  1.00  0.00    -0.532 OA
HETATM   27  O5  UNK     1       5.132   2.454  -1.703  1.00  0.00    -0.532 OA
ENDBRANCH   5  25
TORSDOF 6
