REMARK  3 active torsions:
REMARK  status: ('A' for Active; 'I' for Inactive)
REMARK    1  A    between atoms: C5_13  and  N1_7 
REMARK       I    between atoms: C6_14  and  N1_7 
REMARK    2  A    between atoms: C10_18  and  N2_8 
REMARK    3  A    between atoms: C2_10  and  C6_14 
ROOT
HETATM    1  O2  UNK     1      -0.270   1.029   2.341  1.00  0.00    -0.267 OA
HETATM    2  N1  UNK     1      -1.201  -0.431   0.745  1.00  0.00    -0.321 N 
HETATM    3  C6  UNK     1      -0.240   0.420   1.273  1.00  0.00     0.262 C 
HETATM    4  H3  UNK     1      -0.982  -0.839  -0.157  1.00  0.00     0.169 HD
ENDROOT
BRANCH   3   5
HETATM    5  C2  UNK     1       0.925   0.555   0.391  1.00  0.00     0.108 A 
HETATM    6  C4  UNK     1       0.872   1.541  -0.513  1.00  0.00     0.037 A 
HETATM    7  C1  UNK     1       1.978   1.754  -1.433  1.00  0.00     0.001 A 
HETATM    8  C3  UNK     1       3.088   0.918  -1.356  1.00  0.00     0.089 A 
HETATM    9  C7  UNK     1       1.965   2.770  -2.391  1.00  0.00     0.038 A 
HETATM   10  O1  UNK     1       3.138  -0.118  -0.403  1.00  0.00    -0.274 OA
HETATM   11  C9  UNK     1       4.180   1.068  -2.207  1.00  0.00     0.040 A 
HETATM   12  C8  UNK     1       2.095  -0.346   0.490  1.00  0.00     0.304 A 
HETATM   13  O3  UNK     1       2.147  -1.251   1.316  1.00  0.00    -0.259 OA
HETATM   14  C12 UNK     1       4.159   2.084  -3.161  1.00  0.00     0.026 A 
HETATM   15  C11 UNK     1       3.054   2.933  -3.252  1.00  0.00     0.035 A 
HETATM   16 Cl1  UNK     1       3.033   4.187  -4.432  1.00  0.00    -0.084 Cl
ENDBRANCH   3   5
BRANCH   2  17
HETATM   17  C5  UNK     1      -2.444  -0.792   1.319  1.00  0.00     0.068 A 
HETATM   18  C10 UNK     1      -3.299  -1.661   0.660  1.00  0.00     0.129 A 
HETATM   19  C14 UNK     1      -4.517  -2.001   1.249  1.00  0.00     0.038 A 
HETATM   20  C16 UNK     1      -4.864  -1.467   2.491  1.00  0.00     0.003 A 
HETATM   21  C15 UNK     1      -3.993  -0.594   3.142  1.00  0.00     0.002 A 
HETATM   22  C13 UNK     1      -2.776  -0.254   2.553  1.00  0.00     0.032 A 
BRANCH  18  23
HETATM   23  N2  UNK     1      -2.971  -2.218  -0.608  1.00  0.00    -0.113 N 
HETATM   24  O4  UNK     1      -3.786  -2.997  -1.155  1.00  0.00    -0.532 OA
HETATM   25  O5  UNK     1      -1.877  -1.913  -1.138  1.00  0.00    -0.532 OA
ENDBRANCH  18  23
ENDBRANCH   2  17
TORSDOF 3
