REMARK  4 active torsions:
REMARK  status: ('A' for Active; 'I' for Inactive)
REMARK    1  A    between atoms: C12_18  and  O3_3 
REMARK    2  A    between atoms: C1_7  and  N1_5 
REMARK       I    between atoms: C4_10  and  N1_5 
REMARK    3  A    between atoms: C1_7  and  C7_13 
REMARK    4  A    between atoms: C2_8  and  C4_10 
ROOT
HETATM    1  O1  UNK     1       2.906   1.249   0.705  1.00  0.00    -0.274 OA
HETATM    2  O4  UNK     1       1.972   0.742   2.728  1.00  0.00    -0.259 OA
HETATM    3  C2  UNK     1       0.532   0.681   0.848  1.00  0.00     0.108 A 
HETATM    4  C3  UNK     1       1.525   1.220  -1.295  1.00  0.00     0.002 A 
HETATM    5  C5  UNK     1       0.387   0.839  -0.473  1.00  0.00     0.037 A 
HETATM    6  C6  UNK     1       2.760   1.417  -0.686  1.00  0.00     0.089 A 
HETATM    7  C8  UNK     1       1.419   1.396  -2.677  1.00  0.00     0.051 A 
HETATM    8  C10 UNK     1       1.836   0.885   1.518  1.00  0.00     0.304 A 
HETATM    9  C11 UNK     1       3.889   1.782  -1.416  1.00  0.00     0.041 A 
HETATM   10  C12 UNK     1       2.543   1.763  -3.423  1.00  0.00     0.069 A 
HETATM   11  C13 UNK     1       3.775   1.956  -2.794  1.00  0.00     0.039 A 
ENDROOT
BRANCH   3  12
HETATM   12  C4  UNK     1      -0.674   0.296   1.592  1.00  0.00     0.259 C 
HETATM   13  O2  UNK     1      -1.403   1.194   2.030  1.00  0.00    -0.267 OA
HETATM   14  N1  UNK     1      -0.931  -1.069   1.747  1.00  0.00    -0.348 N 
HETATM   15  C9  UNK     1      -0.040  -2.095   1.211  1.00  0.00     0.153 C 
BRANCH  14  16
HETATM   16  C1  UNK     1      -2.106  -1.562   2.453  1.00  0.00     0.165 C 
BRANCH  16  17
HETATM   17  C7  UNK     1      -3.277  -1.753   1.533  1.00  0.00    -0.023 A 
HETATM   18  C14 UNK     1      -4.170  -0.720   1.309  1.00  0.00     0.012 A 
HETATM   19  C16 UNK     1      -5.244  -0.926   0.451  1.00  0.00     0.020 A 
HETATM   20  C17 UNK     1      -5.369  -2.170  -0.147  1.00  0.00     0.116 A 
HETATM   21  N2  UNK     1      -4.510  -3.195   0.054  1.00  0.00    -0.273 NA
HETATM   22  C15 UNK     1      -3.478  -2.958   0.895  1.00  0.00     0.124 A 
ENDBRANCH  16  17
ENDBRANCH  14  16
ENDBRANCH   3  12
BRANCH  10  23
HETATM   23  O3  UNK     1       2.436   1.933  -4.770  1.00  0.00    -0.356 OA
HETATM   24  C18 UNK     1       3.621   2.307  -5.472  1.00  0.00     0.210 C 
ENDBRANCH  10  23
TORSDOF 4
