REMARK  7 active torsions:
REMARK  status: ('A' for Active; 'I' for Inactive)
REMARK    1  A    between atoms: C16_23  and  O2_2 
REMARK    2  A    between atoms: C6_13  and  O2_2 
REMARK    3  A    between atoms: C16_23  and  O3_3 
REMARK    4  A    between atoms: C7_14  and  O3_3 
REMARK    5  A    between atoms: C3_10  and  N1_7 
REMARK       I    between atoms: C8_15  and  N1_7 
REMARK    6  A    between atoms: C2_9  and  C8_15 
REMARK    7  A    between atoms: C3_10  and  C7_14 
ROOT
HETATM    1  O4  UNK     1       1.940  -0.238   1.937  1.00  0.00    -0.267 OA
HETATM    2  N1  UNK     1      -0.111   0.851   1.726  1.00  0.00    -0.355 N 
HETATM    3  C8  UNK     1       1.134   0.431   1.293  1.00  0.00     0.257 C 
HETATM    4  H7  UNK     1      -0.698   1.419   1.123  1.00  0.00     0.162 HD
ENDROOT
BRANCH   3   5
HETATM    5  C2  UNK     1       1.438   0.865  -0.076  1.00  0.00     0.108 A 
HETATM    6  C10 UNK     1       0.379   1.065  -1.090  1.00  0.00     0.304 A 
HETATM    7  O1  UNK     1       0.793   1.479  -2.353  1.00  0.00    -0.274 OA
HETATM    8  O5  UNK     1      -0.806   0.877  -0.836  1.00  0.00    -0.259 OA
HETATM    9  C4  UNK     1       2.151   1.697  -2.656  1.00  0.00     0.089 A 
HETATM   10  C1  UNK     1       3.131   1.503  -1.687  1.00  0.00    -0.001 A 
HETATM   11  C11 UNK     1       2.468   2.111  -3.948  1.00  0.00     0.038 A 
HETATM   12  C5  UNK     1       2.730   1.071  -0.357  1.00  0.00     0.037 A 
HETATM   13  C9  UNK     1       4.467   1.731  -2.025  1.00  0.00     0.014 A 
HETATM   14  C14 UNK     1       4.801   2.146  -3.318  1.00  0.00     0.001 A 
HETATM   15  C15 UNK     1       3.803   2.336  -4.277  1.00  0.00     0.003 A 
ENDBRANCH   3   5
BRANCH   2  16
HETATM   16  C3  UNK     1      -0.633   0.544   3.038  1.00  0.00     0.149 C 
BRANCH  16  17
HETATM   17  C7  UNK     1      -1.411  -0.759   3.038  1.00  0.00     0.200 C 
BRANCH  17  18
HETATM   18  O3  UNK     1      -2.522  -0.645   2.158  1.00  0.00    -0.296 OA
BRANCH  18  19
HETATM   19  C16 UNK     1      -3.319  -1.751   2.055  1.00  0.00     0.406 C 
HETATM   20  O6  UNK     1      -3.153  -2.807   2.650  1.00  0.00    -0.229 OA
BRANCH  19  21
HETATM   21  O2  UNK     1      -4.326  -1.474   1.180  1.00  0.00    -0.293 OA
BRANCH  21  22
HETATM   22  C6  UNK     1      -4.831  -2.594   0.445  1.00  0.00     0.126 C 
HETATM   23  C12 UNK     1      -3.696  -3.226  -0.347  1.00  0.00     0.040 C 
HETATM   24  C13 UNK     1      -5.963  -2.131  -0.458  1.00  0.00     0.040 C 
ENDBRANCH  21  22
ENDBRANCH  19  21
ENDBRANCH  18  19
ENDBRANCH  17  18
ENDBRANCH  16  17
ENDBRANCH   2  16
TORSDOF 7
