REMARK  3 active torsions:
REMARK  status: ('A' for Active; 'I' for Inactive)
REMARK    1  A    between atoms: C19_23  and  O2_2 
REMARK    2  A    between atoms: C6_10  and  N1_4 
REMARK    3  A    between atoms: C6_10  and  C7_11 
ROOT
HETATM    1  O1  UNK     1      -3.381  -0.875  -0.663  1.00  0.00    -0.275 OA
HETATM    2  O3  UNK     1      -3.273  -0.809  -2.946  1.00  0.00    -0.260 OA
HETATM    3  C7  UNK     1      -0.574  -1.232  -0.639  1.00  0.00    -0.011 A 
HETATM    4  C10 UNK     1      -1.326  -1.180   0.622  1.00  0.00     0.006 A 
HETATM    5  C11 UNK     1      -1.240  -1.107  -1.796  1.00  0.00     0.092 A 
HETATM    6  C14 UNK     1      -2.709  -1.004   0.569  1.00  0.00     0.093 A 
HETATM    7  C15 UNK     1      -0.733  -1.299   1.886  1.00  0.00     0.017 A 
HETATM    8  C16 UNK     1      -2.698  -0.920  -1.869  1.00  0.00     0.288 A 
HETATM    9  C17 UNK     1      -3.498  -0.944   1.720  1.00  0.00     0.075 A 
HETATM   10  C18 UNK     1      -1.511  -1.241   3.049  1.00  0.00     0.038 A 
HETATM   11  C19 UNK     1      -2.891  -1.064   2.966  1.00  0.00     0.070 A 
ENDROOT
BRANCH   3  12
HETATM   12  C6  UNK     1       0.903  -1.419  -0.617  1.00  0.00     0.312 C 
BRANCH  12  13
HETATM   13  N1  UNK     1       1.620  -0.146  -0.561  1.00  0.00     0.097 N 
HETATM   14  C1  UNK     1       2.972  -0.333  -0.019  1.00  0.00     0.277 C 
HETATM   15  C3  UNK     1       3.627   1.030   0.225  1.00  0.00     0.069 C 
HETATM   16  C5  UNK     1       3.497   1.962  -0.952  1.00  0.00    -0.049 A 
HETATM   17  C4  UNK     1       2.537   1.713  -1.948  1.00  0.00    -0.024 A 
HETATM   18  C9  UNK     1       4.291   3.113  -1.027  1.00  0.00     0.007 A 
HETATM   19  C2  UNK     1       1.690   0.462  -1.902  1.00  0.00     0.311 C 
HETATM   20  C8  UNK     1       2.413   2.602  -3.024  1.00  0.00     0.009 A 
HETATM   21  C12 UNK     1       3.215   3.740  -3.095  1.00  0.00     0.001 A 
HETATM   22  C13 UNK     1       4.152   3.997  -2.096  1.00  0.00     0.001 A 
ENDBRANCH  12  13
ENDBRANCH   3  12
BRANCH  11  23
HETATM   23  O2  UNK     1      -3.641  -1.008   4.099  1.00  0.00    -0.356 OA
HETATM   24  C20 UNK     1      -5.047  -0.825   3.940  1.00  0.00     0.210 C 
ENDBRANCH  11  23
TORSDOF 3
