REMARK  5 active torsions:
REMARK  status: ('A' for Active; 'I' for Inactive)
REMARK    1  A    between atoms: C13_16  and  O2_2 
REMARK    2  A    between atoms: C15_18  and  O2_2 
REMARK    3  A    between atoms: C1_4  and  C2_5 
REMARK    4  A    between atoms: C2_5  and  C3_6 
REMARK    5  A    between atoms: C15_18  and  C16_19 
ROOT
HETATM    1  O1  UNK     1      -0.963   0.086   1.865  1.00  0.00    -0.274 OA
HETATM    2  O3  UNK     1      -2.160  -0.384   3.736  1.00  0.00    -0.259 OA
HETATM    3  C3  UNK     1      -3.195  -0.922   1.659  1.00  0.00     0.025 A 
HETATM    4  C4  UNK     1      -3.116  -0.895   0.311  1.00  0.00    -0.037 A 
HETATM    5  C5  UNK     1      -1.888  -0.388  -0.334  1.00  0.00     0.005 A 
HETATM    6  C8  UNK     1      -0.854   0.087   0.467  1.00  0.00     0.092 A 
HETATM    7  C9  UNK     1      -2.089  -0.399   2.511  1.00  0.00     0.295 A 
HETATM    8  C10 UNK     1      -4.230  -1.345  -0.602  1.00  0.00     0.050 C 
HETATM    9  C11 UNK     1      -1.685  -0.362  -1.723  1.00  0.00     0.017 A 
HETATM   10  C12 UNK     1       0.341   0.583  -0.062  1.00  0.00     0.075 A 
HETATM   11  C13 UNK     1       0.518   0.605  -1.441  1.00  0.00     0.071 A 
HETATM   12  C14 UNK     1      -0.494   0.131  -2.271  1.00  0.00     0.038 A 
ENDROOT
BRANCH  11  13
HETATM   13  O2  UNK     1       1.673   1.084  -1.975  1.00  0.00    -0.347 OA
BRANCH  13  14
HETATM   14  C15 UNK     1       2.666   1.553  -1.064  1.00  0.00     0.214 C 
BRANCH  14  15
HETATM   15  C16 UNK     1       3.842   2.065  -1.842  1.00  0.00    -0.034 A 
HETATM   16  C17 UNK     1       4.878   1.199  -2.174  1.00  0.00     0.009 A 
HETATM   17  C19 UNK     1       5.971   1.675  -2.898  1.00  0.00     0.001 A 
HETATM   18  C21 UNK     1       6.022   3.014  -3.286  1.00  0.00     0.000 A 
HETATM   19  C20 UNK     1       4.979   3.877  -2.949  1.00  0.00     0.001 A 
HETATM   20  C18 UNK     1       3.885   3.401  -2.225  1.00  0.00     0.009 A 
ENDBRANCH  14  15
ENDBRANCH  13  14
ENDBRANCH  11  13
BRANCH   3  21
HETATM   21  C2  UNK     1      -4.360  -1.470   2.443  1.00  0.00     0.049 C 
BRANCH  21  22
HETATM   22  C1  UNK     1      -4.209  -2.961   2.761  1.00  0.00    -0.018 C 
HETATM   23  C6  UNK     1      -2.938  -3.259   3.562  1.00  0.00     0.010 C 
HETATM   24  C7  UNK     1      -4.196  -3.760   1.456  1.00  0.00     0.010 C 
ENDBRANCH  21  22
ENDBRANCH   3  21
TORSDOF 5
