REMARK  3 active torsions:
REMARK  status: ('A' for Active; 'I' for Inactive)
REMARK    1  A    between atoms: C7_14  and  N1_5 
REMARK       I    between atoms: C8_15  and  N1_5 
REMARK    2  A    between atoms: C2_9  and  C8_15 
REMARK    3  A    between atoms: C5_12  and  C6_13 
ROOT
HETATM    1  O1  UNK     1       1.520   0.166  -2.529  1.00  0.00    -0.274 OA
HETATM    2  O4  UNK     1       0.059  -1.448  -1.834  1.00  0.00    -0.259 OA
HETATM    3  C1  UNK     1       2.405   1.758  -0.918  1.00  0.00    -0.001 A 
HETATM    4  C2  UNK     1       0.855   0.048  -0.178  1.00  0.00     0.108 A 
HETATM    5  C3  UNK     1       2.333   1.274  -2.220  1.00  0.00     0.089 A 
HETATM    6  C4  UNK     1       1.626   1.101   0.120  1.00  0.00     0.037 A 
HETATM    7  C9  UNK     1       3.223   2.858  -0.652  1.00  0.00     0.014 A 
HETATM    8  C10 UNK     1       0.764  -0.484  -1.556  1.00  0.00     0.304 A 
HETATM    9  C11 UNK     1       3.053   1.857  -3.261  1.00  0.00     0.038 A 
HETATM   10  C13 UNK     1       3.951   3.454  -1.685  1.00  0.00     0.001 A 
HETATM   11  C14 UNK     1       3.867   2.955  -2.986  1.00  0.00     0.003 A 
ENDROOT
BRANCH   4  12
HETATM   12  C8  UNK     1       0.108  -0.545   0.937  1.00  0.00     0.263 C 
HETATM   13  O3  UNK     1       0.715  -0.999   1.905  1.00  0.00    -0.267 OA
HETATM   14  N1  UNK     1      -1.264  -0.509   0.726  1.00  0.00    -0.304 N 
HETATM   15  H4  UNK     1      -1.608  -0.094  -0.136  1.00  0.00     0.171 HD
BRANCH  14  16
HETATM   16  C7  UNK     1      -2.283  -0.990   1.585  1.00  0.00     0.187 A 
HETATM   17  C6  UNK     1      -3.653  -0.938   1.342  1.00  0.00     0.112 A 
HETATM   18  N2  UNK     1      -4.318  -1.482   2.360  1.00  0.00    -0.106 NA
HETATM   19  O2  UNK     1      -3.320  -1.880   3.252  1.00  0.00    -0.105 OA
HETATM   20  N3  UNK     1      -2.050  -1.569   2.761  1.00  0.00    -0.085 NA
BRANCH  17  21
HETATM   21  C5  UNK     1      -4.379  -0.391   0.187  1.00  0.00     0.061 C 
HETATM   22  C12 UNK     1      -4.612  -1.425  -0.923  1.00  0.00     0.011 C 
ENDBRANCH  17  21
ENDBRANCH  14  16
ENDBRANCH   4  12
TORSDOF 3
