REMARK  8 active torsions:
REMARK  status: ('A' for Active; 'I' for Inactive)
REMARK    1  A    between atoms: C1_9  and  S1_1 
REMARK    2  A    between atoms: C16_24  and  S1_1 
REMARK    3  A    between atoms: C19_27  and  N1_6 
REMARK    4  A    between atoms: C6_14  and  N1_6 
REMARK       I    between atoms: C10_18  and  N2_7 
REMARK    5  A    between atoms: N2_7  and  N3_8 
REMARK    6  A    between atoms: C19_27  and  N3_8 
REMARK    7  A    between atoms: C1_9  and  C10_18 
REMARK    8  A    between atoms: C1_9  and  C4_12 
ROOT
HETATM    1  O2  UNK     1      -1.997  -3.049   1.373  1.00  0.00    -0.270 OA
HETATM    2  N2  UNK     1      -1.082  -1.358   0.079  1.00  0.00    -0.267 N 
HETATM    3  C10 UNK     1      -2.069  -1.931   0.865  1.00  0.00     0.254 C 
HETATM    4  H12 UNK     1      -1.211  -0.491  -0.432  1.00  0.00     0.190 HD
ENDROOT
BRANCH   2   5
HETATM    5  N3  UNK     1       0.071  -2.068  -0.164  1.00  0.00    -0.273 N 
HETATM    6  H15 UNK     1      -0.009  -3.079  -0.185  1.00  0.00     0.189 HD
BRANCH   5   7
HETATM    7  C19 UNK     1       1.283  -1.425  -0.398  1.00  0.00     0.191 C 
HETATM    8  S2  UNK     1       2.623  -2.389  -0.686  1.00  0.00    -0.039 SA
BRANCH   7   9
HETATM    9  N1  UNK     1       1.212  -0.022  -0.332  1.00  0.00    -0.332 N 
HETATM   10  H11 UNK     1       0.429   0.314   0.224  1.00  0.00     0.168 HD
BRANCH   9  11
HETATM   11  C6  UNK     1       1.941   1.008  -0.928  1.00  0.00     0.037 A 
HETATM   12  C7  UNK     1       2.954   0.714  -1.834  1.00  0.00     0.067 A 
HETATM   13  C3  UNK     1       3.669   1.760  -2.419  1.00  0.00     0.092 A 
HETATM   14  C2  UNK     1       3.405   3.099  -2.127  1.00  0.00     0.004 A 
HETATM   15  O1  UNK     1       4.683   1.399  -3.330  1.00  0.00    -0.275 OA
HETATM   16  C5  UNK     1       4.208   4.136  -2.789  1.00  0.00    -0.043 A 
HETATM   17  C8  UNK     1       2.381   3.375  -1.211  1.00  0.00     0.017 A 
HETATM   18  C11 UNK     1       5.166   3.763  -3.651  1.00  0.00     0.090 A 
HETATM   19  C14 UNK     1       3.949   5.584  -2.496  1.00  0.00     0.049 C 
HETATM   20  C15 UNK     1       5.456   2.355  -3.970  1.00  0.00     0.288 A 
HETATM   21  O3  UNK     1       6.340   2.053  -4.763  1.00  0.00    -0.260 OA
HETATM   22  C9  UNK     1       1.655   2.336  -0.616  1.00  0.00     0.030 A 
ENDBRANCH   9  11
ENDBRANCH   7   9
ENDBRANCH   5   7
ENDBRANCH   2   5
BRANCH   3  23
HETATM   23  C1  UNK     1      -3.292  -1.028   0.978  1.00  0.00     0.179 C 
BRANCH  23  24
HETATM   24  S1  UNK     1      -4.070  -1.230   2.613  1.00  0.00    -0.111 SA
BRANCH  24  25
HETATM   25  C16 UNK     1      -2.692  -0.883   3.699  1.00  0.00     0.001 A 
HETATM   26  C21 UNK     1      -2.256  -1.855   4.596  1.00  0.00     0.018 A 
HETATM   27  C23 UNK     1      -1.182  -1.584   5.443  1.00  0.00     0.001 A 
HETATM   28  C25 UNK     1      -0.547  -0.343   5.389  1.00  0.00     0.000 A 
HETATM   29  C24 UNK     1      -0.986   0.627   4.488  1.00  0.00     0.001 A 
HETATM   30  C22 UNK     1      -2.061   0.356   3.642  1.00  0.00     0.018 A 
ENDBRANCH  24  25
ENDBRANCH  23  24
BRANCH  23  31
HETATM   31  C4  UNK     1      -4.272  -1.274  -0.151  1.00  0.00    -0.035 A 
HETATM   32  C12 UNK     1      -4.352  -2.536  -0.711  1.00  0.00     0.009 A 
HETATM   33  C17 UNK     1      -5.254  -2.762  -1.751  1.00  0.00     0.001 A 
HETATM   34  C20 UNK     1      -6.061  -1.722  -2.213  1.00  0.00     0.000 A 
HETATM   35  C18 UNK     1      -5.965  -0.456  -1.635  1.00  0.00     0.001 A 
HETATM   36  C13 UNK     1      -5.063  -0.230  -0.596  1.00  0.00     0.009 A 
ENDBRANCH  23  31
ENDBRANCH   3  23
TORSDOF 8
