REMARK  2 active torsions:
REMARK  status: ('A' for Active; 'I' for Inactive)
REMARK    1  A    between atoms: C16_24  and  O4_4 
REMARK    2  A    between atoms: C17_25  and  N2_7 
ROOT
HETATM    1  O1  UNK     1      -1.344  -2.670   0.816  1.00  0.00    -0.291 OA
HETATM    2  O2  UNK     1      -0.829  -0.609  -2.754  1.00  0.00    -0.271 OA
HETATM    3  O3  UNK     1      -3.180   1.081   0.881  1.00  0.00    -0.274 OA
HETATM    4  O5  UNK     1      -1.459   1.985  -0.288  1.00  0.00    -0.259 OA
HETATM    5  N1  UNK     1       0.861   0.939  -2.166  1.00  0.00    -0.302 N 
HETATM    6  N3  UNK     1       2.814  -2.544  -1.591  1.00  0.00    -0.191 NA
HETATM    7  C1  UNK     1       0.069  -0.516  -0.446  1.00  0.00     0.147 A 
HETATM    8  C2  UNK     1       1.129   1.668  -3.420  1.00  0.00     0.052 A 
HETATM    9  C3  UNK     1       1.545   1.254  -0.990  1.00  0.00     0.057 A 
HETATM   10  C4  UNK     1       1.119   0.447   0.062  1.00  0.00     0.001 A 
HETATM   11  C5  UNK     1      -0.063  -0.101  -1.947  1.00  0.00     0.249 A 
HETATM   12  C6  UNK     1       2.508   2.238  -0.867  1.00  0.00    -0.000 A 
HETATM   13  C7  UNK     1      -1.285  -0.345   0.224  1.00  0.00     0.080 A 
HETATM   14  C8  UNK     1       2.211   2.732  -3.218  1.00  0.00     0.011 A 
HETATM   15  C9  UNK     1       0.568  -1.961  -0.429  1.00  0.00     0.100 A 
HETATM   16  C10 UNK     1       2.854   3.012  -2.067  1.00  0.00    -0.051 A 
HETATM   17  C11 UNK     1       1.619   0.690  -4.501  1.00  0.00     0.043 C 
HETATM   18  C12 UNK     1      -0.151   2.373  -3.898  1.00  0.00     0.043 C 
HETATM   19  C13 UNK     1       1.666   0.608   1.320  1.00  0.00     0.048 A 
HETATM   20  C14 UNK     1      -1.888  -1.399   0.800  1.00  0.00     0.105 A 
HETATM   21  C15 UNK     1       3.063   2.400   0.407  1.00  0.00     0.051 A 
HETATM   22  C16 UNK     1       2.645   1.593   1.487  1.00  0.00     0.069 A 
HETATM   23  C17 UNK     1      -0.137  -2.939   0.183  1.00  0.00     0.160 A 
HETATM   24  C18 UNK     1      -1.950   0.992   0.238  1.00  0.00     0.299 A 
HETATM   25  C19 UNK     1       3.900   4.082  -1.979  1.00  0.00     0.049 C 
HETATM   26  C20 UNK     1      -3.185  -1.275   1.463  1.00  0.00     0.033 A 
HETATM   27  C21 UNK     1       1.810  -2.283  -1.072  1.00  0.00     0.101 C 
HETATM   28  C22 UNK     1      -3.796  -0.028   1.485  1.00  0.00     0.092 A 
HETATM   29  C23 UNK     1      -3.847  -2.343   2.081  1.00  0.00     0.017 A 
HETATM   30  C24 UNK     1      -5.032   0.184   2.097  1.00  0.00     0.038 A 
HETATM   31  C25 UNK     1      -5.086  -2.149   2.699  1.00  0.00     0.001 A 
HETATM   32  C27 UNK     1      -5.678  -0.887   2.707  1.00  0.00     0.003 A 
ENDROOT
BRANCH  23  33
HETATM   33  N2  UNK     1       0.235  -4.254   0.253  1.00  0.00    -0.379 N 
HETATM   34  H13 UNK     1       1.096  -4.576  -0.170  1.00  0.00     0.158 HD
HETATM   35  H14 UNK     1      -0.368  -4.906   0.738  1.00  0.00     0.158 HD
ENDBRANCH  23  33
BRANCH  22  36
HETATM   36  O4  UNK     1       3.207   1.778   2.716  1.00  0.00    -0.356 OA
HETATM   37  C26 UNK     1       2.747   0.936   3.770  1.00  0.00     0.210 C 
ENDBRANCH  22  36
TORSDOF 2
