REMARK  5 active torsions:
REMARK  status: ('A' for Active; 'I' for Inactive)
REMARK    1  A    between atoms: C4_12  and  O1_3 
REMARK    2  A    between atoms: C6_14  and  O2_4 
REMARK    3  A    between atoms: C2_10  and  N1_7 
REMARK    4  A    between atoms: C1_9  and  C5_13 
REMARK    5  A    between atoms: C8_16  and  C9_17 
ROOT
HETATM    1  N2  UNK     1      -2.190   2.176   0.651  1.00  0.00    -0.191 NA
HETATM    2  C5  UNK     1      -0.464   0.356   0.008  1.00  0.00     0.058 C 
HETATM    3  C8  UNK     1      -0.707  -0.934   0.343  1.00  0.00     0.036 C 
HETATM    4  C15 UNK     1      -1.418   1.360   0.363  1.00  0.00     0.100 C 
ENDROOT
BRANCH   2   5
HETATM    5  C1  UNK     1       0.757   0.777  -0.708  1.00  0.00     0.021 A 
HETATM    6  C2  UNK     1       0.796   0.823  -2.092  1.00  0.00     0.117 A 
HETATM    7  C7  UNK     1       1.969   1.226  -2.730  1.00  0.00     0.076 A 
HETATM    8  C6  UNK     1       3.088   1.578  -1.976  1.00  0.00     0.103 A 
HETATM    9  C4  UNK     1       3.034   1.528  -0.583  1.00  0.00     0.102 A 
HETATM   10  C3  UNK     1       1.861   1.125   0.055  1.00  0.00     0.055 A 
BRANCH   6  11
HETATM   11  N1  UNK     1      -0.327   0.469  -2.892  1.00  0.00    -0.115 N 
HETATM   12  O3  UNK     1      -0.224   0.532  -4.140  1.00  0.00    -0.532 OA
HETATM   13  O4  UNK     1      -1.383   0.106  -2.324  1.00  0.00    -0.532 OA
ENDBRANCH   6  11
BRANCH   8  14
HETATM   14  O2  UNK     1       4.228   1.970  -2.610  1.00  0.00    -0.353 OA
HETATM   15  C17 UNK     1       5.169   0.951  -2.941  1.00  0.00     0.210 C 
ENDBRANCH   8  14
BRANCH   9  16
HETATM   16  O1  UNK     1       4.120   1.870   0.165  1.00  0.00    -0.353 OA
HETATM   17  C16 UNK     1       4.238   3.238   0.549  1.00  0.00     0.210 C 
ENDBRANCH   9  16
ENDBRANCH   2   5
BRANCH   3  18
HETATM   18  C9  UNK     1      -1.874  -1.447   1.052  1.00  0.00    -0.013 A 
HETATM   19  C10 UNK     1      -1.911  -1.555   2.442  1.00  0.00     0.045 A 
HETATM   20 Cl1  UNK     1      -0.571  -1.087   3.430  1.00  0.00    -0.083 Cl
HETATM   21  C12 UNK     1      -3.051  -2.051   3.073  1.00  0.00     0.048 A 
HETATM   22  C14 UNK     1      -4.155  -2.440   2.313  1.00  0.00     0.035 A 
HETATM   23  C13 UNK     1      -4.118  -2.333   0.923  1.00  0.00     0.024 A 
HETATM   24 Cl2  UNK     1      -5.562  -3.055   3.090  1.00  0.00    -0.084 Cl
HETATM   25  C11 UNK     1      -2.977  -1.836   0.292  1.00  0.00     0.015 A 
ENDBRANCH   3  18
TORSDOF 5
