REMARK  4 active torsions:
REMARK  status: ('A' for Active; 'I' for Inactive)
REMARK    1  A    between atoms: C6_11  and  O1_1 
REMARK    2  A    between atoms: C7_12  and  O1_1 
REMARK       I    between atoms: C5_10  and  N1_5 
REMARK    3  A    between atoms: C5_10  and  C6_11 
REMARK    4  A    between atoms: C12_17  and  C8_13 
ROOT
HETATM    1  O3  UNK     1      -2.572  -0.903   0.027  1.00  0.00    -0.306 OA
HETATM    2  O4  UNK     1      -0.120  -0.018   3.159  1.00  0.00    -0.284 OA
HETATM    3  C7  UNK     1      -0.355  -0.363   0.828  1.00  0.00     0.155 A 
HETATM    4  C8  UNK     1      -1.219  -0.666  -0.158  1.00  0.00     0.123 A 
HETATM    5  C9  UNK     1      -2.292  -0.554   2.413  1.00  0.00     0.051 A 
HETATM    6  C10 UNK     1      -0.858  -0.288   2.221  1.00  0.00     0.221 A 
HETATM    7  C11 UNK     1      -3.077  -0.848   1.300  1.00  0.00     0.090 A 
HETATM    8  C13 UNK     1      -2.862  -0.512   3.688  1.00  0.00     0.018 A 
HETATM    9  C14 UNK     1      -4.440  -1.103   1.456  1.00  0.00     0.038 A 
HETATM   10  C17 UNK     1      -4.225  -0.768   3.841  1.00  0.00     0.001 A 
HETATM   11  C18 UNK     1      -5.013  -1.062   2.727  1.00  0.00     0.003 A 
ENDROOT
BRANCH   3  12
HETATM   12  O1  UNK     1       0.980  -0.101   0.605  1.00  0.00    -0.335 OA
BRANCH  12  13
HETATM   13  C6  UNK     1       1.225   1.264   0.369  1.00  0.00     0.278 C 
BRANCH  13  14
HETATM   14  C5  UNK     1       2.384   1.333  -0.592  1.00  0.00     0.244 C 
HETATM   15  O2  UNK     1       2.936   0.302  -0.981  1.00  0.00    -0.271 OA
HETATM   16  N1  UNK     1       2.763   2.606  -0.979  1.00  0.00    -0.350 N 
HETATM   17  C3  UNK     1       3.867   2.843  -1.897  1.00  0.00     0.126 C 
HETATM   18  C4  UNK     1       2.151   3.863  -0.560  1.00  0.00     0.126 C 
HETATM   19  C1  UNK     1       3.726   4.304  -2.293  1.00  0.00     0.021 C 
HETATM   20  C2  UNK     1       3.115   4.935  -1.048  1.00  0.00     0.021 C 
ENDBRANCH  13  14
ENDBRANCH  12  13
ENDBRANCH   3  12
BRANCH   4  21
HETATM   21  C12 UNK     1      -0.808  -0.756  -1.570  1.00  0.00     0.001 A 
HETATM   22  C15 UNK     1      -0.367  -1.972  -2.093  1.00  0.00     0.014 A 
HETATM   23  C19 UNK     1       0.022  -2.056  -3.430  1.00  0.00     0.001 A 
HETATM   24  C21 UNK     1      -0.028  -0.925  -4.244  1.00  0.00     0.000 A 
HETATM   25  C20 UNK     1      -0.468   0.291  -3.721  1.00  0.00     0.001 A 
HETATM   26  C16 UNK     1      -0.858   0.376  -2.385  1.00  0.00     0.014 A 
ENDBRANCH   4  21
TORSDOF 4
