REMARK  6 active torsions:
REMARK  status: ('A' for Active; 'I' for Inactive)
REMARK    1  A    between atoms: C20_26  and  O3_3 
REMARK    2  A    between atoms: C21_27  and  O3_3 
REMARK    3  A    between atoms: C13_19  and  O4_4 
REMARK    4  A    between atoms: C3_9  and  N1_6 
REMARK    5  A    between atoms: C3_9  and  C7_13 
REMARK    6  A    between atoms: C4_10  and  C8_14 
ROOT
HETATM    1  O2  UNK     1      -2.183   0.464   0.828  1.00  0.00    -0.318 OA
HETATM    2  O5  UNK     1      -0.382   0.665  -2.832  1.00  0.00    -0.284 OA
HETATM    3  C7  UNK     1      -3.194  -1.604   0.294  1.00  0.00     0.038 A 
HETATM    4  C9  UNK     1      -2.374  -0.542  -0.088  1.00  0.00     0.100 A 
HETATM    5  C13 UNK     1      -3.425  -2.655  -0.594  1.00  0.00     0.076 A 
HETATM    6  C14 UNK     1      -1.787  -0.533  -1.355  1.00  0.00     0.051 A 
HETATM    7  C17 UNK     1      -2.838  -2.645  -1.860  1.00  0.00     0.038 A 
HETATM    8  C18 UNK     1      -2.017  -1.584  -2.246  1.00  0.00     0.021 A 
HETATM    9  C19 UNK     1      -0.925   0.601  -1.737  1.00  0.00     0.220 A 
HETATM   10  C21 UNK     1      -0.753   1.657  -0.715  1.00  0.00     0.149 A 
HETATM   11  C24 UNK     1      -1.377   1.514   0.458  1.00  0.00     0.184 A 
ENDROOT
BRANCH  10  12
HETATM   12  O3  UNK     1       0.037   2.747  -0.993  1.00  0.00    -0.305 OA
BRANCH  12  13
HETATM   13  C20 UNK     1       1.351   2.504  -1.287  1.00  0.00     0.076 A 
HETATM   14  C22 UNK     1       1.949   3.151  -2.364  1.00  0.00     0.038 A 
HETATM   15  C15 UNK     1       3.289   2.905  -2.662  1.00  0.00     0.011 A 
HETATM   16  C8  UNK     1       4.024   2.012  -1.883  1.00  0.00    -0.050 A 
HETATM   17  C16 UNK     1       3.420   1.366  -0.804  1.00  0.00     0.011 A 
HETATM   18  C23 UNK     1       2.080   1.613  -0.505  1.00  0.00     0.038 A 
BRANCH  16  19
HETATM   19  C4  UNK     1       5.456   1.748  -2.203  1.00  0.00    -0.024 C 
HETATM   20  C10 UNK     1       6.304   3.055  -2.126  1.00  0.00     0.019 C 
HETATM   21  C11 UNK     1       6.178   0.728  -1.261  1.00  0.00     0.019 C 
HETATM   22  C12 UNK     1       5.617   1.168  -3.642  1.00  0.00     0.019 C 
ENDBRANCH  16  19
ENDBRANCH  12  13
ENDBRANCH  10  12
BRANCH   3  23
HETATM   23  C3  UNK     1      -3.826  -1.624   1.649  1.00  0.00     0.317 C 
BRANCH  23  24
HETATM   24  N1  UNK     1      -2.839  -1.248   2.659  1.00  0.00     0.097 N 
HETATM   25  C1  UNK     1      -3.450  -1.203   3.995  1.00  0.00     0.299 C 
HETATM   26  C5  UNK     1      -2.398  -0.822   5.032  1.00  0.00     0.198 C 
HETATM   27  O1  UNK     1      -1.316  -1.754   5.010  1.00  0.00    -0.388 OA
HETATM   28  C6  UNK     1      -0.696  -1.781   3.724  1.00  0.00     0.198 C 
HETATM   29  C2  UNK     1      -1.706  -2.185   2.654  1.00  0.00     0.299 C 
ENDBRANCH  23  24
ENDBRANCH   3  23
BRANCH   5  30
HETATM   30  O4  UNK     1      -4.222  -3.703  -0.241  1.00  0.00    -0.360 OA
HETATM   31  H27 UNK     1      -4.265  -4.333  -0.981  1.00  0.00     0.217 HD
ENDBRANCH   5  30
TORSDOF 6
