REMARK  7 active torsions:
REMARK  status: ('A' for Active; 'I' for Inactive)
REMARK    1  A    between atoms: C10_19  and  O2_5 
REMARK    2  A    between atoms: C16_25  and  O3_6 
REMARK    3  A    between atoms: C18_27  and  O3_6 
REMARK    4  A    between atoms: C23_32  and  O5_8 
REMARK    5  A    between atoms: C7_16  and  N1_9 
REMARK    6  A    between atoms: C7_16  and  C8_17 
REMARK    7  A    between atoms: C15_24  and  C17_26 
ROOT
HETATM    1  O1  UNK     1       0.656   1.515  -0.622  1.00  0.00    -0.301 OA
HETATM    2  O4  UNK     1      -0.873   0.284   2.947  1.00  0.00    -0.284 OA
HETATM    3  C8  UNK     1       2.856   1.449   0.230  1.00  0.00     0.038 A 
HETATM    4  C9  UNK     1       1.494   1.264   0.434  1.00  0.00     0.101 A 
HETATM    5  C10 UNK     1       3.763   1.215   1.257  1.00  0.00     0.076 A 
HETATM    6  C11 UNK     1       1.035   0.842   1.679  1.00  0.00     0.052 A 
HETATM    7  C12 UNK     1       3.302   0.791   2.504  1.00  0.00     0.038 A 
HETATM    8  C13 UNK     1       1.936   0.603   2.720  1.00  0.00     0.021 A 
HETATM    9  C14 UNK     1      -0.409   0.652   1.876  1.00  0.00     0.221 A 
HETATM   10  C15 UNK     1      -0.709   1.338  -0.445  1.00  0.00     0.197 A 
HETATM   11  C16 UNK     1      -1.273   0.933   0.706  1.00  0.00     0.165 A 
ENDROOT
BRANCH  11  12
HETATM   12  O3  UNK     1      -2.634   0.768   0.846  1.00  0.00    -0.304 OA
BRANCH  12  13
HETATM   13  C18 UNK     1      -3.074  -0.482   1.181  1.00  0.00     0.076 A 
HETATM   14  C19 UNK     1      -2.552  -1.597   0.530  1.00  0.00     0.040 A 
HETATM   15  C21 UNK     1      -3.001  -2.872   0.872  1.00  0.00     0.039 A 
HETATM   16  C23 UNK     1      -3.970  -3.028   1.864  1.00  0.00     0.068 A 
HETATM   17  C22 UNK     1      -4.490  -1.908   2.513  1.00  0.00     0.039 A 
HETATM   18  C20 UNK     1      -4.041  -0.633   2.171  1.00  0.00     0.040 A 
BRANCH  16  19
HETATM   19  O5  UNK     1      -4.408  -4.273   2.198  1.00  0.00    -0.356 OA
HETATM   20  C24 UNK     1      -3.835  -5.374   1.495  1.00  0.00     0.210 C 
ENDBRANCH  16  19
ENDBRANCH  12  13
ENDBRANCH  11  12
BRANCH  10  21
HETATM   21  C17 UNK     1      -1.493   1.648  -1.686  1.00  0.00     0.442 C 
HETATM   22  F1  UNK     1      -2.812   1.465  -1.479  1.00  0.00    -0.164 F 
HETATM   23  F2  UNK     1      -1.306   2.927  -2.067  1.00  0.00    -0.164 F 
HETATM   24  F3  UNK     1      -1.119   0.851  -2.707  1.00  0.00    -0.164 F 
ENDBRANCH  10  21
BRANCH   3  25
HETATM   25  C7  UNK     1       3.363   1.905  -1.112  1.00  0.00     0.316 C 
BRANCH  25  26
HETATM   26  N1  UNK     1       2.727   1.177  -2.212  1.00  0.00     0.092 N 
HETATM   27  C1  UNK     1       3.005  -0.258  -2.085  1.00  0.00     0.272 C 
HETATM   28  C3  UNK     1       2.651  -1.150  -3.279  1.00  0.00     0.030 C 
HETATM   29  C5  UNK     1       1.353  -0.780  -3.990  1.00  0.00     0.002 C 
HETATM   30  C6  UNK     1       1.562   0.314  -5.034  1.00  0.00     0.002 C 
HETATM   31  C4  UNK     1       1.901   1.692  -4.474  1.00  0.00     0.030 C 
HETATM   32  C2  UNK     1       3.089   1.749  -3.510  1.00  0.00     0.272 C 
ENDBRANCH  25  26
ENDBRANCH   3  25
BRANCH   5  33
HETATM   33  O2  UNK     1       5.101   1.392   1.070  1.00  0.00    -0.360 OA
HETATM   34  H17 UNK     1       5.569   1.180   1.897  1.00  0.00     0.217 HD
ENDBRANCH   5  33
TORSDOF 7
