REMARK  1 active torsions:
REMARK  status: ('A' for Active; 'I' for Inactive)
REMARK    1  A    between atoms: C9_17  and  N2_7 
ROOT
HETATM    1  F1  UNK     1      -0.424  -3.736   2.904  1.00  0.00    -0.206 F 
HETATM    2  O1  UNK     1       0.504  -0.086  -2.545  1.00  0.00    -0.291 OA
HETATM    3  O2  UNK     1       2.179   1.967   0.683  1.00  0.00    -0.274 OA
HETATM    4  O3  UNK     1      -2.305   2.268  -0.565  1.00  0.00    -0.271 OA
HETATM    5  O4  UNK     1       0.298   1.646   1.911  1.00  0.00    -0.259 OA
HETATM    6  N1  UNK     1      -2.742   0.960   1.337  1.00  0.00    -0.325 N 
HETATM    7  N3  UNK     1      -3.957  -1.577  -1.557  1.00  0.00    -0.191 NA
HETATM    8  C1  UNK     1      -1.101   0.128  -0.177  1.00  0.00     0.147 A 
HETATM    9  C2  UNK     1      -1.279  -0.769   1.032  1.00  0.00    -0.000 A 
HETATM   10  C3  UNK     1       0.294   0.720  -0.294  1.00  0.00     0.080 A 
HETATM   11  C4  UNK     1      -2.107   1.280   0.127  1.00  0.00     0.246 A 
HETATM   12  C5  UNK     1      -1.576  -0.547  -1.463  1.00  0.00     0.100 A 
HETATM   13  C6  UNK     1      -2.261  -0.233   1.868  1.00  0.00     0.043 A 
HETATM   14  C7  UNK     1       0.991   0.578  -1.435  1.00  0.00     0.105 A 
HETATM   15  C8  UNK     1      -0.645  -1.954   1.364  1.00  0.00     0.053 A 
HETATM   16  C9  UNK     1      -0.778  -0.623  -2.552  1.00  0.00     0.160 A 
HETATM   17  C10 UNK     1       0.892   1.466   0.854  1.00  0.00     0.299 A 
HETATM   18  C11 UNK     1       2.339   1.124  -1.586  1.00  0.00     0.033 A 
HETATM   19  C12 UNK     1      -2.645  -0.841   3.046  1.00  0.00     0.033 A 
HETATM   20  C13 UNK     1       2.898   1.806  -0.513  1.00  0.00     0.092 A 
HETATM   21  C14 UNK     1      -1.017  -2.587   2.553  1.00  0.00     0.117 A 
HETATM   22  C15 UNK     1      -2.008  -2.036   3.386  1.00  0.00     0.044 A 
HETATM   23  C16 UNK     1      -2.893  -1.117  -1.515  1.00  0.00     0.101 C 
HETATM   24  C17 UNK     1       3.102   0.997  -2.754  1.00  0.00     0.017 A 
HETATM   25  C18 UNK     1       4.178   2.357  -0.567  1.00  0.00     0.038 A 
HETATM   26  C19 UNK     1       4.387   1.544  -2.826  1.00  0.00     0.001 A 
HETATM   27  C20 UNK     1       4.925   2.223  -1.734  1.00  0.00     0.003 A 
HETATM   28  H1  UNK     1      -3.455   1.525   1.784  1.00  0.00     0.169 HD
ENDROOT
BRANCH  16  29
HETATM   29  N2  UNK     1      -1.117  -1.211  -3.739  1.00  0.00    -0.379 N 
HETATM   30  H6  UNK     1      -0.440  -1.213  -4.492  1.00  0.00     0.158 HD
HETATM   31  H7  UNK     1      -2.024  -1.640  -3.870  1.00  0.00     0.158 HD
ENDBRANCH  16  29
TORSDOF 1
