REMARK  6 active torsions:
REMARK  status: ('A' for Active; 'I' for Inactive)
REMARK    1  A    between atoms: C11_17  and  O2_3 
REMARK    2  A    between atoms: C6_12  and  O2_3 
REMARK    3  A    between atoms: C15_21  and  O4_5 
REMARK    4  A    between atoms: C16_22  and  O5_6 
REMARK    5  A    between atoms: C10_16  and  C8_14 
REMARK    6  A    between atoms: C11_17  and  C14_20 
ROOT
HETATM    1  O1  UNK     1      -1.242  -0.722  -0.227  1.00  0.00    -0.306 OA
HETATM    2  O3  UNK     1      -2.763  -2.582  -2.827  1.00  0.00    -0.284 OA
HETATM    3  C1  UNK     1      -0.953  -1.043  -2.496  1.00  0.00     0.051 A 
HETATM    4  C2  UNK     1      -0.506  -0.400  -1.344  1.00  0.00     0.093 A 
HETATM    5  C3  UNK     1      -2.215  -1.614  -0.661  1.00  0.00     0.127 A 
HETATM    6  C4  UNK     1      -2.092  -1.869  -2.117  1.00  0.00     0.218 A 
HETATM    7  C5  UNK     1       0.571   0.460  -1.378  1.00  0.00     0.075 A 
HETATM    8  C6  UNK     1       1.195   0.662  -2.614  1.00  0.00     0.071 A 
HETATM    9  C7  UNK     1      -0.357  -0.861  -3.726  1.00  0.00     0.021 A 
HETATM   10  C8  UNK     1      -3.139  -2.168   0.125  1.00  0.00     0.053 C 
HETATM   11  C9  UNK     1       0.736   0.008  -3.775  1.00  0.00     0.038 A 
ENDROOT
BRANCH  10  12
HETATM   12  C10 UNK     1      -3.293  -1.939   1.574  1.00  0.00    -0.031 A 
HETATM   13  C12 UNK     1      -4.090  -0.896   2.014  1.00  0.00     0.051 A 
HETATM   14  C15 UNK     1      -4.235  -0.679   3.384  1.00  0.00     0.102 A 
HETATM   15  C16 UNK     1      -3.580  -1.508   4.294  1.00  0.00     0.101 A 
HETATM   16  C17 UNK     1      -2.780  -2.554   3.834  1.00  0.00     0.040 A 
HETATM   17  C13 UNK     1      -2.636  -2.771   2.464  1.00  0.00     0.014 A 
BRANCH  14  18
HETATM   18  O4  UNK     1      -5.019   0.346   3.821  1.00  0.00    -0.353 OA
HETATM   19  C23 UNK     1      -4.386   1.610   4.012  1.00  0.00     0.210 C 
ENDBRANCH  14  18
BRANCH  15  20
HETATM   20  O5  UNK     1      -3.714  -1.307   5.635  1.00  0.00    -0.353 OA
HETATM   21  C24 UNK     1      -4.783  -1.988   6.289  1.00  0.00     0.210 C 
ENDBRANCH  15  20
ENDBRANCH  10  12
BRANCH   8  22
HETATM   22  O2  UNK     1       2.264   1.504  -2.697  1.00  0.00    -0.347 OA
BRANCH  22  23
HETATM   23  C11 UNK     1       2.684   2.138  -1.492  1.00  0.00     0.214 C 
BRANCH  23  24
HETATM   24  C14 UNK     1       3.843   3.020  -1.841  1.00  0.00    -0.034 A 
HETATM   25  C18 UNK     1       5.139   2.514  -1.787  1.00  0.00     0.011 A 
HETATM   26  C20 UNK     1       6.217   3.337  -2.113  1.00  0.00     0.019 A 
HETATM   27  C22 UNK     1       5.995   4.661  -2.490  1.00  0.00     0.011 A 
HETATM   28 Br1  UNK     1       7.456   5.776  -2.930  1.00  0.00    -0.051 Br
HETATM   29  C21 UNK     1       4.695   5.163  -2.542  1.00  0.00     0.019 A 
HETATM   30  C19 UNK     1       3.616   4.341  -2.217  1.00  0.00     0.011 A 
ENDBRANCH  23  24
ENDBRANCH  22  23
ENDBRANCH   8  22
TORSDOF 6
