REMARK  8 active torsions:
REMARK  status: ('A' for Active; 'I' for Inactive)
REMARK    1  A    between atoms: C1_12  and  N1_8 
REMARK    2  A    between atoms: C11_22  and  N3_10 
REMARK    3  A    between atoms: C3_14  and  N3_10 
REMARK    4  A    between atoms: C11_22  and  N4_11 
REMARK    5  A    between atoms: C9_20  and  N4_11 
REMARK    6  A    between atoms: C1_12  and  C2_13 
REMARK    7  A    between atoms: C2_13  and  C3_14 
REMARK    8  A    between atoms: C12_23  and  C6_17 
ROOT
HETATM    1  N3  UNK     1       1.307   0.741   2.315  1.00  0.00    -0.367 N 
HETATM    2  H7  UNK     1       2.173   0.445   2.754  1.00  0.00     0.161 HD
ENDROOT
BRANCH   1   3
HETATM    3  C11 UNK     1       0.278  -0.192   2.291  1.00  0.00     0.172 C 
HETATM    4  S1  UNK     1       0.599  -1.695   2.969  1.00  0.00    -0.041 SA
BRANCH   3   5
HETATM    5  N4  UNK     1      -0.906   0.233   1.662  1.00  0.00    -0.333 N 
HETATM    6  H12 UNK     1      -0.783   1.048   1.069  1.00  0.00     0.168 HD
BRANCH   5   7
HETATM    7  C9  UNK     1      -2.133  -0.392   1.438  1.00  0.00     0.036 A 
HETATM    8  C14 UNK     1      -2.649  -1.276   2.379  1.00  0.00     0.067 A 
HETATM    9  C10 UNK     1      -3.879  -1.889   2.135  1.00  0.00     0.092 A 
HETATM   10  O1  UNK     1      -4.350  -2.775   3.125  1.00  0.00    -0.275 OA
HETATM   11  C8  UNK     1      -4.615  -1.647   0.975  1.00  0.00     0.004 A 
HETATM   12  C19 UNK     1      -5.559  -3.439   2.988  1.00  0.00     0.288 A 
HETATM   13  C17 UNK     1      -6.324  -3.173   1.759  1.00  0.00     0.090 A 
HETATM   14  O2  UNK     1      -5.978  -4.211   3.843  1.00  0.00    -0.260 OA
HETATM   15  C13 UNK     1      -5.901  -2.337   0.800  1.00  0.00    -0.043 A 
HETATM   16  C18 UNK     1      -6.717  -2.098  -0.437  1.00  0.00     0.049 C 
HETATM   17  C15 UNK     1      -4.078  -0.753   0.039  1.00  0.00     0.017 A 
HETATM   18  C16 UNK     1      -2.846  -0.130   0.269  1.00  0.00     0.030 A 
ENDBRANCH   5   7
ENDBRANCH   3   5
ENDBRANCH   1   3
BRANCH   1  19
HETATM   19  C3  UNK     1       1.283   2.084   1.767  1.00  0.00     0.123 C 
BRANCH  19  20
HETATM   20  C2  UNK     1       1.680   2.116   0.295  1.00  0.00     0.041 C 
BRANCH  20  21
HETATM   21  C1  UNK     1       3.102   1.603   0.063  1.00  0.00     0.152 C 
BRANCH  21  22
HETATM   22  N1  UNK     1       3.476   1.647  -1.348  1.00  0.00    -0.272 N 
HETATM   23  C4  UNK     1       3.296   0.660  -2.259  1.00  0.00     0.051 A 
HETATM   24  C7  UNK     1       2.673  -0.637  -1.933  1.00  0.00     0.072 C 
HETATM   25  C5  UNK     1       3.800   1.156  -3.436  1.00  0.00     0.093 A 
HETATM   26 Cl1  UNK     1       3.870   0.409  -4.953  1.00  0.00    -0.080 Cl
HETATM   27  C6  UNK     1       4.255   2.447  -3.108  1.00  0.00     0.184 A 
HETATM   28  N2  UNK     1       4.057   2.753  -1.823  1.00  0.00    -0.166 NA
BRANCH  27  29
HETATM   29  C12 UNK     1       4.892   3.439  -3.993  1.00  0.00     0.438 C 
HETATM   30  F1  UNK     1       5.030   2.995  -5.274  1.00  0.00    -0.164 F 
HETATM   31  F2  UNK     1       4.195   4.607  -4.080  1.00  0.00    -0.164 F 
HETATM   32  F3  UNK     1       6.142   3.772  -3.568  1.00  0.00    -0.164 F 
ENDBRANCH  27  29
ENDBRANCH  21  22
ENDBRANCH  20  21
ENDBRANCH  19  20
ENDBRANCH   1  19
TORSDOF 8
