REMARK  5 active torsions:
REMARK  status: ('A' for Active; 'I' for Inactive)
REMARK    1  A    between atoms: C5_13  and  N1_6 
REMARK    2  A    between atoms: C6_14  and  N2_7 
REMARK    3  A    between atoms: C10_18  and  N3_8 
REMARK    4  A    between atoms: C6_14  and  N3_8 
REMARK    5  A    between atoms: C5_13  and  C7_15 
ROOT
HETATM    1  S1  UNK     1      -2.948  -0.725  -4.285  1.00  0.00    -0.041 SA
HETATM    2  C6  UNK     1      -2.414  -0.415  -2.725  1.00  0.00     0.174 C 
ENDROOT
BRANCH   2   3
HETATM    3  N2  UNK     1      -1.086  -0.393  -2.455  1.00  0.00    -0.355 N 
HETATM    4  C3  UNK     1      -0.523   0.490  -1.444  1.00  0.00     0.155 C 
HETATM    5  C1  UNK     1       0.748   1.167  -1.958  1.00  0.00     0.292 C 
HETATM    6  N1  UNK     1       1.704   0.169  -2.466  1.00  0.00     0.095 N 
HETATM    7  C2  UNK     1       1.102  -0.619  -3.554  1.00  0.00     0.292 C 
HETATM    8  C4  UNK     1      -0.162  -1.332  -3.075  1.00  0.00     0.155 C 
BRANCH   6   9
HETATM    9  C5  UNK     1       2.931   0.820  -2.923  1.00  0.00     0.312 C 
BRANCH   9  10
HETATM   10  C7  UNK     1       3.609   1.578  -1.818  1.00  0.00    -0.008 A 
HETATM   11  C8  UNK     1       4.103   2.863  -2.018  1.00  0.00     0.045 A 
HETATM   12  C12 UNK     1       4.727   3.536  -0.968  1.00  0.00     0.066 A 
HETATM   13 Cl1  UNK     1       3.966   3.656  -3.545  1.00  0.00    -0.084 Cl
HETATM   14  C17 UNK     1       4.853   2.921   0.278  1.00  0.00     0.118 A 
HETATM   15  C13 UNK     1       4.356   1.632   0.473  1.00  0.00     0.043 A 
HETATM   16  F1  UNK     1       5.452   3.567   1.287  1.00  0.00    -0.206 F 
HETATM   17  C9  UNK     1       3.732   0.959  -0.578  1.00  0.00     0.013 A 
ENDBRANCH   9  10
ENDBRANCH   6   9
ENDBRANCH   2   3
BRANCH   2  18
HETATM   18  N3  UNK     1      -3.317  -0.123  -1.736  1.00  0.00    -0.333 N 
HETATM   19  H11 UNK     1      -4.184   0.302  -2.059  1.00  0.00     0.168 HD
BRANCH  18  20
HETATM   20  C10 UNK     1      -3.267  -0.330  -0.336  1.00  0.00     0.036 A 
HETATM   21  C11 UNK     1      -2.528  -1.382   0.167  1.00  0.00     0.067 A 
HETATM   22  C16 UNK     1      -2.491  -1.566   1.551  1.00  0.00     0.092 A 
HETATM   23  C14 UNK     1      -3.171  -0.726   2.433  1.00  0.00     0.004 A 
HETATM   24  O1  UNK     1      -1.726  -2.652   2.022  1.00  0.00    -0.275 OA
HETATM   25  C18 UNK     1      -3.910   0.331   1.885  1.00  0.00     0.017 A 
HETATM   26  C19 UNK     1      -3.076  -0.995   3.875  1.00  0.00    -0.043 A 
HETATM   27  C15 UNK     1      -3.957   0.529   0.501  1.00  0.00     0.030 A 
HETATM   28  C20 UNK     1      -2.341  -2.034   4.294  1.00  0.00     0.090 A 
HETATM   29  C21 UNK     1      -3.796  -0.110   4.850  1.00  0.00     0.049 C 
HETATM   30  C22 UNK     1      -1.618  -2.929   3.376  1.00  0.00     0.288 A 
HETATM   31  O2  UNK     1      -0.955  -3.871   3.796  1.00  0.00    -0.260 OA
ENDBRANCH  18  20
ENDBRANCH   2  18
TORSDOF 5
