REMARK  3 active torsions:
REMARK  status: ('A' for Active; 'I' for Inactive)
REMARK    1  A    between atoms: C5_9  and  O2_2 
REMARK    2  A    between atoms: C11_15  and  O3_3 
REMARK    3  A    between atoms: C1_5  and  C4_8 
ROOT
HETATM    1  O1  UNK     1      -0.488   0.498   1.217  1.00  0.00    -0.306 OA
HETATM    2  O4  UNK     1      -2.770  -2.170  -0.852  1.00  0.00    -0.284 OA
HETATM    3  C1  UNK     1      -0.145   0.093  -0.064  1.00  0.00     0.123 A 
HETATM    4  C2  UNK     1      -2.454  -0.923   1.125  1.00  0.00     0.051 A 
HETATM    5  C3  UNK     1      -1.630  -0.010   1.780  1.00  0.00     0.090 A 
HETATM    6  C5  UNK     1      -0.848  -0.787  -0.799  1.00  0.00     0.154 A 
HETATM    7  C6  UNK     1      -2.089  -1.366  -0.229  1.00  0.00     0.221 A 
HETATM    8  C8  UNK     1      -3.606  -1.407   1.749  1.00  0.00     0.018 A 
HETATM    9  C9  UNK     1      -1.954   0.425   3.065  1.00  0.00     0.038 A 
HETATM   10  C12 UNK     1      -3.928  -0.971   3.034  1.00  0.00     0.001 A 
HETATM   11  C13 UNK     1      -3.104  -0.057   3.691  1.00  0.00     0.003 A 
ENDROOT
BRANCH   3  12
HETATM   12  C4  UNK     1       1.102   0.712  -0.548  1.00  0.00     0.003 A 
HETATM   13  C10 UNK     1       2.328   0.096  -0.298  1.00  0.00     0.014 A 
HETATM   14  C14 UNK     1       3.509   0.681  -0.756  1.00  0.00     0.004 A 
HETATM   15  C15 UNK     1       3.463   1.882  -1.465  1.00  0.00     0.037 A 
HETATM   16  C11 UNK     1       2.237   2.498  -1.715  1.00  0.00     0.069 A 
HETATM   17  C7  UNK     1       1.056   1.913  -1.256  1.00  0.00     0.051 A 
BRANCH  16  18
HETATM   18  O3  UNK     1       2.192   3.669  -2.406  1.00  0.00    -0.356 OA
HETATM   19  C17 UNK     1       3.437   4.212  -2.845  1.00  0.00     0.210 C 
ENDBRANCH  16  18
ENDBRANCH   3  12
BRANCH   6  20
HETATM   20  O2  UNK     1      -0.462  -1.193  -2.058  1.00  0.00    -0.350 OA
HETATM   21  C16 UNK     1      -1.010  -0.347  -3.051  1.00  0.00     0.210 C 
ENDBRANCH   6  20
TORSDOF 3
