REMARK  3 active torsions:
REMARK  status: ('A' for Active; 'I' for Inactive)
REMARK    1  A    between atoms: C13_21  and  O4_4 
REMARK       I    between atoms: C5_13  and  N1_5 
REMARK    2  A    between atoms: C6_14  and  N2_6 
REMARK    3  A    between atoms: C5_13  and  C7_15 
ROOT
HETATM    1  O1  UNK     1       2.002  -0.567   2.252  1.00  0.00    -0.267 OA
HETATM    2  N1  UNK     1      -0.157   0.018   1.626  1.00  0.00    -0.345 N 
HETATM    3  N2  UNK     1      -2.783  -1.013   1.574  1.00  0.00    -0.211 N 
HETATM    4  C1  UNK     1      -1.137   0.591   0.698  1.00  0.00     0.146 C 
HETATM    5  C2  UNK     1      -0.756  -0.466   2.868  1.00  0.00     0.146 C 
HETATM    6  C3  UNK     1      -2.205  -0.444   0.348  1.00  0.00     0.161 C 
HETATM    7  C4  UNK     1      -1.824  -1.518   2.571  1.00  0.00     0.161 C 
HETATM    8  C5  UNK     1       1.217  -0.076   1.440  1.00  0.00     0.260 C 
ENDROOT
BRANCH   8   9
HETATM    9  C7  UNK     1       1.777   0.445   0.177  1.00  0.00     0.108 A 
HETATM   10  C10 UNK     1       1.926  -0.405  -1.026  1.00  0.00     0.304 A 
HETATM   11  O2  UNK     1       2.467   0.202  -2.156  1.00  0.00    -0.271 OA
HETATM   12  O3  UNK     1       1.591  -1.584  -1.032  1.00  0.00    -0.259 OA
HETATM   13  C11 UNK     1       2.855   1.555  -2.160  1.00  0.00     0.123 A 
HETATM   14  C9  UNK     1       2.708   2.336  -1.018  1.00  0.00     0.002 A 
HETATM   15  C13 UNK     1       3.387   2.073  -3.339  1.00  0.00     0.102 A 
HETATM   16  C12 UNK     1       3.105   3.675  -1.060  1.00  0.00     0.014 A 
HETATM   17  C8  UNK     1       2.144   1.732   0.179  1.00  0.00     0.037 A 
HETATM   18  C16 UNK     1       3.641   4.208  -2.236  1.00  0.00     0.004 A 
HETATM   19  C17 UNK     1       3.781   3.409  -3.373  1.00  0.00     0.040 A 
BRANCH  15  20
HETATM   20  O4  UNK     1       3.526   1.299  -4.448  1.00  0.00    -0.353 OA
HETATM   21  C19 UNK     1       2.427   1.263  -5.358  1.00  0.00     0.210 C 
ENDBRANCH  15  20
ENDBRANCH   8   9
BRANCH   3  22
HETATM   22  C6  UNK     1      -4.047  -1.614   1.526  1.00  0.00     0.724 A 
HETATM   23  N3  UNK     1      -4.698  -1.646   0.327  1.00  0.00    -0.075 NA
HETATM   24  C14 UNK     1      -5.913  -2.233   0.316  1.00  0.00     0.138 A 
HETATM   25  C18 UNK     1      -6.507  -2.785   1.433  1.00  0.00     0.040 A 
HETATM   26  C15 UNK     1      -5.775  -2.705   2.600  1.00  0.00     0.138 A 
HETATM   27  N4  UNK     1      -4.556  -2.134   2.682  1.00  0.00    -0.075 NA
ENDBRANCH   3  22
TORSDOF 3
