REMARK  7 active torsions:
REMARK  status: ('A' for Active; 'I' for Inactive)
REMARK    1  A    between atoms: C11_16  and  O2_2 
REMARK    2  A    between atoms: C13_18  and  O2_2 
REMARK    3  A    between atoms: C19_24  and  O4_4 
REMARK    4  A    between atoms: C21_26  and  O4_4 
REMARK    5  A    between atoms: C2_7  and  C4_9 
REMARK    6  A    between atoms: C4_9  and  C8_13 
REMARK    7  A    between atoms: C13_18  and  C19_24 
ROOT
HETATM    1  O1  UNK     1      -1.000   0.236  -0.793  1.00  0.00    -0.274 OA
HETATM    2  O3  UNK     1      -3.241  -0.107  -0.904  1.00  0.00    -0.259 OA
HETATM    3  C1  UNK     1      -1.180   0.116   2.030  1.00  0.00    -0.036 A 
HETATM    4  C2  UNK     1      -2.297  -0.005   1.281  1.00  0.00     0.029 A 
HETATM    5  C3  UNK     1       0.119   0.349   1.364  1.00  0.00     0.005 A 
HETATM    6  C5  UNK     1       0.163   0.399  -0.026  1.00  0.00     0.092 A 
HETATM    7  C6  UNK     1       1.329   0.536   2.050  1.00  0.00     0.017 A 
HETATM    8  C7  UNK     1      -2.240   0.036  -0.209  1.00  0.00     0.295 A 
HETATM    9  C9  UNK     1       1.349   0.614  -0.733  1.00  0.00     0.075 A 
HETATM   10  C10 UNK     1      -1.166   0.013   3.535  1.00  0.00     0.050 C 
HETATM   11  C11 UNK     1       2.537   0.791  -0.034  1.00  0.00     0.072 A 
HETATM   12  C12 UNK     1       2.527   0.754   1.358  1.00  0.00     0.038 A 
ENDROOT
BRANCH  11  13
HETATM   13  O2  UNK     1       3.701   1.003  -0.703  1.00  0.00    -0.336 OA
BRANCH  13  14
HETATM   14  C13 UNK     1       3.766   2.151  -1.549  1.00  0.00     0.224 C 
HETATM   15  C16 UNK     1       4.898   3.036  -1.057  1.00  0.00     0.051 C 
BRANCH  14  16
HETATM   16  C19 UNK     1       4.002   1.692  -2.973  1.00  0.00     0.288 C 
HETATM   17  O5  UNK     1       4.153   0.525  -3.310  1.00  0.00    -0.262 OA
BRANCH  16  18
HETATM   18  O4  UNK     1       3.992   2.770  -3.811  1.00  0.00    -0.320 OA
BRANCH  18  19
HETATM   19  C21 UNK     1       4.176   2.474  -5.199  1.00  0.00     0.174 C 
HETATM   20  C22 UNK     1       4.139   3.766  -5.988  1.00  0.00     0.034 C 
ENDBRANCH  18  19
ENDBRANCH  16  18
ENDBRANCH  14  16
ENDBRANCH  13  14
ENDBRANCH  11  13
BRANCH   4  21
HETATM   21  C4  UNK     1      -3.689  -0.181   1.831  1.00  0.00     0.084 C 
BRANCH  21  22
HETATM   22  C8  UNK     1      -4.183  -1.589   1.681  1.00  0.00    -0.054 A 
HETATM   23  C14 UNK     1      -3.346  -2.651   2.005  1.00  0.00     0.007 A 
HETATM   24  C17 UNK     1      -3.805  -3.961   1.865  1.00  0.00     0.001 A 
HETATM   25  C20 UNK     1      -5.099  -4.200   1.403  1.00  0.00     0.000 A 
HETATM   26  C18 UNK     1      -5.934  -3.130   1.080  1.00  0.00     0.001 A 
HETATM   27  C15 UNK     1      -5.474  -1.821   1.219  1.00  0.00     0.007 A 
ENDBRANCH  21  22
ENDBRANCH   4  21
TORSDOF 7
