REMARK  2 active torsions:
REMARK  status: ('A' for Active; 'I' for Inactive)
REMARK    1  A    between atoms: C12_16  and  O2_2 
REMARK    2  A    between atoms: C5_9  and  O2_2 
ROOT
HETATM    1  O1  UNK     1      -2.000  -0.630  -0.793  1.00  0.00    -0.274 OA
HETATM    2  O3  UNK     1      -3.887  -1.899  -0.548  1.00  0.00    -0.260 OA
HETATM    3  C1  UNK     1      -0.609  -0.168   1.161  1.00  0.00     0.005 A 
HETATM    4  C2  UNK     1      -0.868  -0.032  -0.203  1.00  0.00     0.099 A 
HETATM    5  C3  UNK     1      -0.031   0.693  -1.053  1.00  0.00     0.007 A 
HETATM    6  C4  UNK     1      -1.544  -0.951   1.981  1.00  0.00    -0.043 A 
HETATM    7  C5  UNK     1       1.102   1.305  -0.528  1.00  0.00     0.087 A 
HETATM    8  C6  UNK     1       0.538   0.456   1.670  1.00  0.00     0.017 A 
HETATM    9  C7  UNK     1       1.386   1.187   0.831  1.00  0.00     0.039 A 
HETATM   10  C8  UNK     1      -0.343   0.815  -2.509  1.00  0.00     0.054 C 
HETATM   11  C9  UNK     1      -2.613  -1.507   1.393  1.00  0.00     0.090 A 
HETATM   12  C10 UNK     1      -1.294  -1.116   3.451  1.00  0.00     0.049 C 
HETATM   13  C11 UNK     1      -2.900  -1.374  -0.045  1.00  0.00     0.288 A 
ENDROOT
BRANCH   7  14
HETATM   14  O2  UNK     1       1.943   2.023  -1.325  1.00  0.00    -0.279 OA
BRANCH  14  15
HETATM   15  C12 UNK     1       2.978   1.265  -1.894  1.00  0.00     0.260 C 
HETATM   16  O4  UNK     1       3.164   0.067  -1.728  1.00  0.00    -0.265 OA
HETATM   17  C13 UNK     1       3.845   2.141  -2.750  1.00  0.00     0.126 C 
ENDBRANCH  14  15
ENDBRANCH   7  14
TORSDOF 2
