REMARK  6 active torsions:
REMARK  status: ('A' for Active; 'I' for Inactive)
REMARK    1  A    between atoms: C15_18  and  O1_1 
REMARK    2  A    between atoms: C26_29  and  O1_1 
REMARK    3  A    between atoms: C3_6  and  C8_11 
REMARK    4  A    between atoms: C12_15  and  C14_17 
REMARK    5  A    between atoms: C13_16  and  C14_17 
REMARK    6  A    between atoms: C16_19  and  C26_29 
ROOT
HETATM    1  C12 UNK     1      -0.391   0.807   1.342  1.00  0.00     0.014 A 
HETATM    2  C15 UNK     1       1.657   1.768  -0.290  1.00  0.00     0.079 A 
HETATM    3  C17 UNK     1       0.677  -0.023   1.003  1.00  0.00     0.018 A 
HETATM    4  C18 UNK     1      -0.436   2.117   0.865  1.00  0.00     0.018 A 
HETATM    5  C20 UNK     1       1.701   0.458   0.187  1.00  0.00     0.038 A 
HETATM    6  C21 UNK     1       0.588   2.597   0.049  1.00  0.00     0.038 A 
ENDROOT
BRANCH   1   7
HETATM    7  C14 UNK     1      -1.480   0.296   2.210  1.00  0.00     0.182 C 
HETATM    8  O2  UNK     1      -2.611   0.756   2.100  1.00  0.00    -0.288 OA
BRANCH   7   9
HETATM    9  C13 UNK     1      -1.132  -0.748   3.214  1.00  0.00     0.056 C 
HETATM   10  C8  UNK     1      -2.061  -1.640   3.611  1.00  0.00     0.016 C 
BRANCH  10  11
HETATM   11  C3  UNK     1      -3.440  -1.683   3.129  1.00  0.00    -0.025 A 
HETATM   12  C1  UNK     1      -3.830  -2.416   1.996  1.00  0.00    -0.016 A 
HETATM   13  C2  UNK     1      -5.188  -2.403   1.598  1.00  0.00    -0.025 A 
HETATM   14  C4  UNK     1      -2.902  -3.161   1.251  1.00  0.00     0.013 A 
HETATM   15  C5  UNK     1      -6.116  -1.658   2.343  1.00  0.00     0.012 A 
HETATM   16  C7  UNK     1      -5.578  -3.136   0.465  1.00  0.00     0.012 A 
HETATM   17  C9  UNK     1      -5.711  -0.936   3.466  1.00  0.00     0.002 A 
HETATM   18  C6  UNK     1      -4.375  -0.948   3.858  1.00  0.00     0.012 A 
HETATM   19  C11 UNK     1      -4.642  -3.870  -0.265  1.00  0.00     0.001 A 
HETATM   20  C10 UNK     1      -3.307  -3.883   0.128  1.00  0.00     0.001 A 
ENDBRANCH  10  11
ENDBRANCH   7   9
ENDBRANCH   1   7
BRANCH   2  21
HETATM   21  O1  UNK     1       2.656   2.236  -1.086  1.00  0.00    -0.275 OA
BRANCH  21  22
HETATM   22  C26 UNK     1       2.443   2.038  -2.453  1.00  0.00     0.298 C 
HETATM   23  O3  UNK     1       1.473   1.487  -2.950  1.00  0.00    -0.259 OA
BRANCH  22  24
HETATM   24  C16 UNK     1       3.573   2.574  -3.254  1.00  0.00     0.040 A 
HETATM   25  C22 UNK     1       3.558   2.460  -4.644  1.00  0.00     0.018 A 
HETATM   26  C24 UNK     1       4.619   2.964  -5.396  1.00  0.00     0.007 A 
HETATM   27  C19 UNK     1       5.694   3.582  -4.759  1.00  0.00    -0.062 A 
HETATM   28  C25 UNK     1       5.710   3.695  -3.369  1.00  0.00     0.007 A 
HETATM   29  C27 UNK     1       6.830   4.119  -5.563  1.00  0.00     0.048 C 
HETATM   30  C23 UNK     1       4.649   3.192  -2.616  1.00  0.00     0.018 A 
ENDBRANCH  22  24
ENDBRANCH  21  22
ENDBRANCH   2  21
TORSDOF 6
