REMARK  5 active torsions:
REMARK  status: ('A' for Active; 'I' for Inactive)
REMARK    1  A    between atoms: C11_15  and  O2_3 
REMARK    2  A    between atoms: C14_18  and  O2_3 
REMARK    3  A    between atoms: C1_5  and  C3_7 
REMARK    4  A    between atoms: C3_7  and  C6_10 
REMARK    5  A    between atoms: C14_18  and  C15_19 
ROOT
HETATM    1  O1  UNK     1      -1.025  -0.844   2.049  1.00  0.00    -0.274 OA
HETATM    2  O3  UNK     1      -2.050  -1.674   3.896  1.00  0.00    -0.259 OA
HETATM    3  C1  UNK     1      -3.237  -1.894   1.843  1.00  0.00     0.024 A 
HETATM    4  C2  UNK     1      -3.270  -1.636   0.518  1.00  0.00    -0.037 A 
HETATM    5  C4  UNK     1      -2.114  -0.976  -0.122  1.00  0.00     0.005 A 
HETATM    6  C5  UNK     1      -1.031  -0.601   0.667  1.00  0.00     0.092 A 
HETATM    7  C7  UNK     1      -2.079  -1.477   2.685  1.00  0.00     0.295 A 
HETATM    8  C8  UNK     1      -2.027  -0.705  -1.497  1.00  0.00     0.017 A 
HETATM    9  C9  UNK     1      -4.443  -1.970  -0.371  1.00  0.00     0.050 C 
HETATM   10  C10 UNK     1       0.102   0.028   0.142  1.00  0.00     0.075 A 
HETATM   11  C11 UNK     1       0.163   0.291  -1.221  1.00  0.00     0.071 A 
HETATM   12  C12 UNK     1      -0.900  -0.077  -2.041  1.00  0.00     0.038 A 
ENDROOT
BRANCH  11  13
HETATM   13  O2  UNK     1       1.257   0.901  -1.752  1.00  0.00    -0.347 OA
BRANCH  13  14
HETATM   14  C14 UNK     1       2.308   1.250  -0.852  1.00  0.00     0.214 C 
BRANCH  14  15
HETATM   15  C15 UNK     1       3.401   1.935  -1.618  1.00  0.00    -0.034 A 
HETATM   16  C16 UNK     1       4.431   1.183  -2.172  1.00  0.00     0.012 A 
HETATM   17  C18 UNK     1       5.446   1.821  -2.884  1.00  0.00     0.043 A 
HETATM   18  C20 UNK     1       5.426   3.208  -3.036  1.00  0.00     0.116 A 
HETATM   19  C19 UNK     1       4.390   3.956  -2.477  1.00  0.00     0.043 A 
HETATM   20  F1  UNK     1       6.401   3.820  -3.720  1.00  0.00    -0.206 F 
HETATM   21  C17 UNK     1       3.374   3.317  -1.765  1.00  0.00     0.012 A 
ENDBRANCH  14  15
ENDBRANCH  13  14
ENDBRANCH  11  13
BRANCH   3  22
HETATM   22  C3  UNK     1      -4.317  -2.615   2.608  1.00  0.00     0.045 C 
BRANCH  22  23
HETATM   23  C6  UNK     1      -5.357  -1.644   3.146  1.00  0.00     0.000 C 
HETATM   24  C13 UNK     1      -6.454  -2.384   3.896  1.00  0.00     0.005 C 
ENDBRANCH  22  23
ENDBRANCH   3  22
TORSDOF 5
