REMARK  3 active torsions:
REMARK  status: ('A' for Active; 'I' for Inactive)
REMARK    1  A    between atoms: C9_13  and  O2_2 
REMARK    2  A    between atoms: C13_17  and  O3_3 
REMARK    3  A    between atoms: C3_7  and  C4_8 
ROOT
HETATM    1  O1  UNK     1      -0.451  -0.017  -0.152  1.00  0.00    -0.309 OA
HETATM    2  O4  UNK     1      -1.151   1.699   3.476  1.00  0.00    -0.287 OA
HETATM    3  C1  UNK     1      -1.783   0.079   1.877  1.00  0.00     0.048 A 
HETATM    4  C2  UNK     1      -1.488  -0.464   0.627  1.00  0.00     0.093 A 
HETATM    5  C3  UNK     1       0.330   1.025   0.323  1.00  0.00     0.090 A 
HETATM    6  C5  UNK     1      -0.951   1.178   2.387  1.00  0.00     0.187 A 
HETATM    7  C6  UNK     1       0.150   1.625   1.510  1.00  0.00     0.093 A 
HETATM    8  C7  UNK     1      -2.261  -1.509   0.120  1.00  0.00     0.075 A 
HETATM    9  C8  UNK     1      -2.852  -0.417   2.627  1.00  0.00     0.021 A 
HETATM   10  C9  UNK     1      -3.329  -2.006   0.867  1.00  0.00     0.070 A 
HETATM   11  C11 UNK     1      -3.624  -1.461   2.117  1.00  0.00     0.038 A 
ENDROOT
BRANCH   5  12
HETATM   12  C4  UNK     1       1.420   1.423  -0.591  1.00  0.00     0.001 A 
HETATM   13  C10 UNK     1       1.260   1.292  -1.973  1.00  0.00     0.051 A 
HETATM   14  C13 UNK     1       2.290   1.668  -2.836  1.00  0.00     0.069 A 
HETATM   15  C15 UNK     1       3.482   2.175  -2.320  1.00  0.00     0.037 A 
HETATM   16  C14 UNK     1       3.645   2.308  -0.941  1.00  0.00     0.004 A 
HETATM   17  C12 UNK     1       2.615   1.932  -0.078  1.00  0.00     0.014 A 
BRANCH  14  18
HETATM   18  O3  UNK     1       2.131   1.539  -4.182  1.00  0.00    -0.356 OA
HETATM   19  C17 UNK     1       3.224   1.943  -5.006  1.00  0.00     0.210 C 
ENDBRANCH  14  18
ENDBRANCH   5  12
BRANCH  10  20
HETATM   20  O2  UNK     1      -4.087  -3.026   0.376  1.00  0.00    -0.356 OA
HETATM   21  C16 UNK     1      -3.732  -3.537  -0.908  1.00  0.00     0.210 C 
ENDBRANCH  10  20
TORSDOF 3
