REMARK  7 active torsions:
REMARK  status: ('A' for Active; 'I' for Inactive)
REMARK    1  A    between atoms: C3_9  and  O1_1 
REMARK    2  A    between atoms: C5_11  and  O1_1 
REMARK       I    between atoms: C20_26  and  N1_5 
REMARK    3  A    between atoms: N1_5  and  N2_6 
REMARK    4  A    between atoms: C1_7  and  C2_8 
REMARK    5  A    between atoms: C1_7  and  C3_9 
REMARK    6  A    between atoms: C20_26  and  C8_14 
REMARK    7  A    between atoms: C12_18  and  C21_27 
ROOT
HETATM    1  O4  UNK     1      -0.774   0.000  -2.663  1.00  0.00    -0.266 OA
HETATM    2  N1  UNK     1      -0.118   0.310  -0.464  1.00  0.00    -0.243 N 
HETATM    3  C20 UNK     1       0.022   0.434  -1.834  1.00  0.00     0.271 C 
HETATM    4  H20 UNK     1       0.574   0.623   0.208  1.00  0.00     0.192 HD
ENDROOT
BRANCH   2   5
HETATM    5  N2  UNK     1      -1.208  -0.333   0.019  1.00  0.00    -0.183 NA
HETATM    6  C21 UNK     1      -1.235  -0.428   1.309  1.00  0.00     0.156 C 
BRANCH   6   7
HETATM    7  C12 UNK     1      -2.327  -1.087   2.025  1.00  0.00     0.056 A 
HETATM    8  C9  UNK     1      -3.492  -1.704   1.354  1.00  0.00     0.198 A 
HETATM    9  C6  UNK     1      -4.494  -2.324   2.241  1.00  0.00     0.049 A 
HETATM   10  O3  UNK     1      -3.620  -1.700   0.137  1.00  0.00    -0.286 OA
HETATM   11  C15 UNK     1      -5.633  -2.934   1.710  1.00  0.00     0.018 A 
HETATM   12  C7  UNK     1      -4.291  -2.293   3.621  1.00  0.00     0.089 A 
HETATM   13  C18 UNK     1      -6.567  -3.513   2.571  1.00  0.00     0.001 A 
HETATM   14  C19 UNK     1      -6.365  -3.482   3.951  1.00  0.00     0.003 A 
HETATM   15  C16 UNK     1      -5.226  -2.872   4.479  1.00  0.00     0.038 A 
HETATM   16  O2  UNK     1      -3.190  -1.707   4.198  1.00  0.00    -0.321 OA
HETATM   17  C17 UNK     1      -2.263  -1.133   3.360  1.00  0.00     0.159 A 
ENDBRANCH   6   7
ENDBRANCH   2   5
BRANCH   3  18
HETATM   18  C8  UNK     1       1.250   1.131  -2.298  1.00  0.00     0.033 A 
HETATM   19  C13 UNK     1       1.758   0.827  -3.543  1.00  0.00     0.020 A 
HETATM   20  C10 UNK     1       2.911   1.482  -3.978  1.00  0.00     0.038 A 
HETATM   21  C5  UNK     1       3.529   2.425  -3.157  1.00  0.00     0.068 A 
HETATM   22  C11 UNK     1       2.994   2.714  -1.902  1.00  0.00     0.038 A 
HETATM   23  C14 UNK     1       1.841   2.060  -1.467  1.00  0.00     0.020 A 
BRANCH  21  24
HETATM   24  O1  UNK     1       4.653   3.063  -3.582  1.00  0.00    -0.351 OA
BRANCH  24  25
HETATM   25  C3  UNK     1       5.585   3.472  -2.581  1.00  0.00     0.175 C 
BRANCH  25  26
HETATM   26  C1  UNK     1       6.983   3.473  -3.183  1.00  0.00     0.026 C 
BRANCH  26  27
HETATM   27  C2  UNK     1       8.037   3.887  -2.159  1.00  0.00    -0.002 C 
HETATM   28  C4  UNK     1       9.436   3.845  -2.751  1.00  0.00     0.005 C 
ENDBRANCH  26  27
ENDBRANCH  25  26
ENDBRANCH  24  25
ENDBRANCH  21  24
ENDBRANCH   3  18
TORSDOF 7
