REMARK  3 active torsions:
REMARK  status: ('A' for Active; 'I' for Inactive)
REMARK       I    between atoms: C8_13  and  N1_5 
REMARK    1  A    between atoms: C1_6  and  C6_11 
REMARK    2  A    between atoms: C6_11  and  C7_12 
REMARK    3  A    between atoms: C8_13  and  C9_14 
ROOT
HETATM    1  O1  UNK     1      -0.319  -0.183  -3.761  1.00  0.00    -0.267 OA
HETATM    2  N1  UNK     1      -0.714  -0.805  -1.554  1.00  0.00    -0.348 N 
HETATM    3  C1  UNK     1      -2.811  -1.566   0.314  1.00  0.00    -0.007 C 
HETATM    4  C2  UNK     1      -3.018  -1.628  -1.205  1.00  0.00     0.025 C 
HETATM    5  C3  UNK     1      -1.776  -0.486   0.658  1.00  0.00     0.025 C 
HETATM    6  C4  UNK     1      -1.691  -1.831  -1.930  1.00  0.00     0.126 C 
HETATM    7  C5  UNK     1      -0.469  -0.692  -0.109  1.00  0.00     0.126 C 
HETATM    8  C8  UNK     1      -0.091  -0.064  -2.556  1.00  0.00     0.259 C 
ENDROOT
BRANCH   8   9
HETATM    9  C9  UNK     1       0.920   0.931  -2.148  1.00  0.00     0.108 A 
HETATM   10  C12 UNK     1       2.183   0.494  -2.069  1.00  0.00     0.037 A 
HETATM   11  C16 UNK     1       3.250   1.401  -1.675  1.00  0.00     0.001 A 
HETATM   12  C18 UNK     1       2.934   2.725  -1.384  1.00  0.00     0.089 A 
HETATM   13  C19 UNK     1       4.581   0.988  -1.579  1.00  0.00     0.038 A 
HETATM   14  O2  UNK     1       1.604   3.179  -1.470  1.00  0.00    -0.274 OA
HETATM   15  C20 UNK     1       3.909   3.644  -1.000  1.00  0.00     0.040 A 
HETATM   16  C15 UNK     1       0.562   2.335  -1.843  1.00  0.00     0.304 A 
HETATM   17  O3  UNK     1      -0.593   2.739  -1.915  1.00  0.00    -0.259 OA
HETATM   18  C22 UNK     1       5.234   3.224  -0.907  1.00  0.00     0.026 A 
HETATM   19  C21 UNK     1       5.570   1.899  -1.196  1.00  0.00     0.035 A 
HETATM   20 Cl1  UNK     1       7.209   1.386  -1.079  1.00  0.00    -0.084 Cl
ENDBRANCH   8   9
BRANCH   3  21
HETATM   21  C6  UNK     1      -4.132  -1.302   1.033  1.00  0.00     0.043 C 
BRANCH  21  22
HETATM   22  C7  UNK     1      -4.076  -1.733   2.473  1.00  0.00    -0.058 A 
HETATM   23  C10 UNK     1      -4.441  -3.028   2.814  1.00  0.00     0.007 A 
HETATM   24  C13 UNK     1      -4.389  -3.428   4.150  1.00  0.00     0.001 A 
HETATM   25  C17 UNK     1      -3.973  -2.529   5.131  1.00  0.00     0.000 A 
HETATM   26  C14 UNK     1      -3.608  -1.229   4.777  1.00  0.00     0.001 A 
HETATM   27  C11 UNK     1      -3.659  -0.830   3.442  1.00  0.00     0.007 A 
ENDBRANCH  21  22
ENDBRANCH   3  21
TORSDOF 3
