REMARK  7 active torsions:
REMARK  status: ('A' for Active; 'I' for Inactive)
REMARK    1  A    between atoms: C13_21  and  O4_4 
REMARK    2  A    between atoms: C24_32  and  O4_4 
REMARK    3  A    between atoms: C32_40  and  O7_7 
REMARK    4  A    between atoms: C1_9  and  C10_18 
REMARK    5  A    between atoms: C11_19  and  C4_12 
REMARK    6  A    between atoms: C13_21  and  C8_16 
REMARK    7  A    between atoms: C24_32  and  C26_34 
ROOT
HETATM    1  O2  UNK     1      -1.327  -3.656   1.417  1.00  0.00    -0.293 OA
HETATM    2  N1  UNK     1      -1.571   0.739   3.161  1.00  0.00    -0.362 N 
HETATM    3  C1  UNK     1      -4.313  -1.776   2.422  1.00  0.00     0.056 C 
HETATM    4  C2  UNK     1      -3.600  -0.635   3.158  1.00  0.00     0.069 C 
HETATM    5  C3  UNK     1      -1.404  -1.423   2.207  1.00  0.00     0.024 C 
HETATM    6  C4  UNK     1       0.058  -1.173   1.845  1.00  0.00     0.104 C 
HETATM    7  C5  UNK     1      -2.144  -0.470   2.811  1.00  0.00     0.021 C 
HETATM    8  C6  UNK     1      -3.441  -3.026   2.318  1.00  0.00     0.095 C 
HETATM    9  C7  UNK     1      -2.006  -2.760   1.918  1.00  0.00     0.159 C 
HETATM   10  C8  UNK     1       0.594   0.138   2.421  1.00  0.00     0.052 C 
HETATM   11  C9  UNK     1      -0.225   1.034   3.018  1.00  0.00     0.018 C 
HETATM   12  C12 UNK     1       0.196   2.370   3.567  1.00  0.00     0.069 C 
HETATM   13  H7  UNK     1      -2.159   1.427   3.617  1.00  0.00     0.165 HD
ENDROOT
BRANCH   6  14
HETATM   14  C11 UNK     1       0.236  -1.193   0.350  1.00  0.00     0.029 A 
HETATM   15  C14 UNK     1      -0.476  -0.175  -0.463  1.00  0.00     0.194 A 
HETATM   16  O6  UNK     1      -1.199   0.672   0.044  1.00  0.00    -0.287 OA
HETATM   17  C17 UNK     1      -0.267  -0.240  -1.921  1.00  0.00     0.049 A 
HETATM   18  C19 UNK     1       0.568  -1.229  -2.443  1.00  0.00     0.089 A 
HETATM   19  C21 UNK     1      -0.893   0.673  -2.772  1.00  0.00     0.025 A 
HETATM   20  O3  UNK     1       1.208  -2.151  -1.654  1.00  0.00    -0.321 OA
HETATM   21  C22 UNK     1       0.780  -1.309  -3.820  1.00  0.00     0.039 A 
HETATM   22  C16 UNK     1       1.004  -2.078  -0.298  1.00  0.00     0.154 A 
HETATM   23  C25 UNK     1       0.156  -0.398  -4.672  1.00  0.00     0.009 A 
HETATM   24  C23 UNK     1      -0.679   0.591  -4.149  1.00  0.00    -0.061 A 
HETATM   25  C27 UNK     1      -1.344   1.563  -5.065  1.00  0.00     0.048 C 
ENDBRANCH   6  14
BRANCH  10  26
HETATM   26  C13 UNK     1       2.049   0.348   2.335  1.00  0.00     0.292 C 
HETATM   27  O5  UNK     1       2.831  -0.037   3.185  1.00  0.00    -0.259 OA
BRANCH  26  28
HETATM   28  O4  UNK     1       2.317   1.016   1.188  1.00  0.00    -0.313 OA
BRANCH  28  29
HETATM   29  C24 UNK     1       3.702   1.298   0.960  1.00  0.00     0.217 C 
BRANCH  29  30
HETATM   30  C26 UNK     1       3.844   2.036  -0.339  1.00  0.00    -0.034 A 
HETATM   31  C28 UNK     1       3.792   3.425  -0.351  1.00  0.00     0.012 A 
HETATM   32  C30 UNK     1       3.923   4.111  -1.558  1.00  0.00     0.037 A 
HETATM   33  C32 UNK     1       4.105   3.402  -2.746  1.00  0.00     0.068 A 
HETATM   34  C31 UNK     1       4.157   2.009  -2.727  1.00  0.00     0.037 A 
HETATM   35  C29 UNK     1       4.025   1.323  -1.519  1.00  0.00     0.012 A 
BRANCH  33  36
HETATM   36  O7  UNK     1       4.234   4.073  -3.924  1.00  0.00    -0.356 OA
HETATM   37  C33 UNK     1       4.418   3.287  -5.101  1.00  0.00     0.210 C 
ENDBRANCH  33  36
ENDBRANCH  29  30
ENDBRANCH  28  29
ENDBRANCH  26  28
ENDBRANCH  10  26
BRANCH   3  38
HETATM   38  C10 UNK     1      -4.918  -1.334   1.088  1.00  0.00     0.057 A 
HETATM   39  O1  UNK     1      -4.034  -0.940   0.144  1.00  0.00    -0.327 OA
HETATM   40  C20 UNK     1      -4.773  -0.595  -0.943  1.00  0.00     0.142 A 
HETATM   41  C18 UNK     1      -6.114  -0.769  -0.691  1.00  0.00     0.027 A 
HETATM   42  C15 UNK     1      -6.205  -1.252   0.636  1.00  0.00     0.035 A 
ENDBRANCH   3  38
TORSDOF 7
