REMARK  7 active torsions:
REMARK  status: ('A' for Active; 'I' for Inactive)
REMARK    1  A    between atoms: C15_23  and  O3_4 
REMARK    2  A    between atoms: C23_31  and  O3_4 
REMARK    3  A    between atoms: C5_13  and  N1_6 
REMARK    4  A    between atoms: C6_14  and  N2_7 
REMARK    5  A    between atoms: C17_25  and  N3_8 
REMARK       I    between atoms: C9_17  and  N3_8 
REMARK    6  A    between atoms: C5_13  and  C7_15 
REMARK    7  A    between atoms: C6_14  and  C9_17 
ROOT
HETATM    1  N1  UNK     1       1.713   0.264  -0.128  1.00  0.00     0.096 N 
HETATM    2  N2  UNK     1      -0.414  -0.350   1.731  1.00  0.00     0.100 N 
HETATM    3  C1  UNK     1       1.895   0.427   1.320  1.00  0.00     0.303 C 
HETATM    4  C2  UNK     1       0.741  -0.801  -0.407  1.00  0.00     0.303 C 
HETATM    5  C3  UNK     1       0.557   0.715   2.008  1.00  0.00     0.303 C 
HETATM    6  C4  UNK     1      -0.597  -0.512   0.283  1.00  0.00     0.303 C 
ENDROOT
BRANCH   1   7
HETATM    7  C5  UNK     1       2.990  -0.015  -0.783  1.00  0.00     0.312 C 
BRANCH   7   8
HETATM    8  C7  UNK     1       3.792   1.221  -0.999  1.00  0.00    -0.011 A 
HETATM    9  C10 UNK     1       4.660   1.654  -0.073  1.00  0.00     0.092 A 
HETATM   10  C13 UNK     1       5.474   2.869  -0.240  1.00  0.00     0.288 A 
HETATM   11  O1  UNK     1       5.309   3.572  -1.423  1.00  0.00    -0.275 OA
HETATM   12  O4  UNK     1       6.258   3.234   0.629  1.00  0.00    -0.260 OA
HETATM   13  C11 UNK     1       4.404   3.142  -2.415  1.00  0.00     0.090 A 
HETATM   14  C8  UNK     1       3.638   1.989  -2.242  1.00  0.00     0.009 A 
HETATM   15  C14 UNK     1       4.319   3.929  -3.566  1.00  0.00     0.041 A 
HETATM   16  C12 UNK     1       2.761   1.630  -3.275  1.00  0.00     0.051 A 
HETATM   17  C15 UNK     1       2.664   2.408  -4.434  1.00  0.00     0.069 A 
HETATM   18  C16 UNK     1       3.442   3.556  -4.579  1.00  0.00     0.039 A 
BRANCH  17  19
HETATM   19  O3  UNK     1       1.806   2.042  -5.425  1.00  0.00    -0.351 OA
BRANCH  19  20
HETATM   20  C23 UNK     1       1.546   0.648  -5.576  1.00  0.00     0.171 C 
HETATM   21  C25 UNK     1       1.228   0.360  -7.028  1.00  0.00     0.034 C 
ENDBRANCH  19  20
ENDBRANCH  17  19
ENDBRANCH   7   8
ENDBRANCH   1   7
BRANCH   2  22
HETATM   22  C6  UNK     1      -1.690  -0.074   2.387  1.00  0.00     0.375 C 
BRANCH  22  23
HETATM   23  C9  UNK     1      -2.485  -1.362   2.510  1.00  0.00     0.250 C 
HETATM   24  O2  UNK     1      -1.950  -2.460   2.628  1.00  0.00    -0.271 OA
HETATM   25  N3  UNK     1      -3.851  -1.091   2.474  1.00  0.00    -0.324 N 
HETATM   26  H15 UNK     1      -4.142  -0.120   2.380  1.00  0.00     0.169 HD
BRANCH  25  27
HETATM   27  C17 UNK     1      -4.918  -2.017   2.559  1.00  0.00     0.056 A 
HETATM   28  C18 UNK     1      -6.249  -1.602   2.506  1.00  0.00     0.061 A 
HETATM   29 Cl1  UNK     1      -6.668   0.066   2.338  1.00  0.00    -0.082 Cl
HETATM   30  C20 UNK     1      -7.276  -2.541   2.591  1.00  0.00     0.033 A 
HETATM   31  C22 UNK     1      -6.974  -3.896   2.728  1.00  0.00    -0.060 A 
HETATM   32  C21 UNK     1      -5.643  -4.311   2.781  1.00  0.00     0.009 A 
HETATM   33  C24 UNK     1      -8.072  -4.901   2.818  1.00  0.00     0.048 C 
HETATM   34  C19 UNK     1      -4.615  -3.372   2.696  1.00  0.00     0.032 A 
ENDBRANCH  25  27
ENDBRANCH  22  23
ENDBRANCH   2  22
TORSDOF 7
