REMARK  3 active torsions:
REMARK  status: ('A' for Active; 'I' for Inactive)
REMARK    1  A    between atoms: C7_13  and  O2_3 
REMARK    2  A    between atoms: C11_17  and  N1_6 
REMARK       I    between atoms: C9_15  and  N1_6 
REMARK    3  A    between atoms: C3_9  and  C9_15 
ROOT
HETATM    1  O1  UNK     1       0.668   0.495  -2.749  1.00  0.00    -0.274 OA
HETATM    2  O3  UNK     1      -1.171  -0.712  -2.132  1.00  0.00    -0.259 OA
HETATM    3  C1  UNK     1       2.224   1.266  -1.047  1.00  0.00     0.002 A 
HETATM    4  C2  UNK     1       1.843   1.181  -2.382  1.00  0.00     0.089 A 
HETATM    5  C3  UNK     1       0.275  -0.014  -0.389  1.00  0.00     0.108 A 
HETATM    6  C4  UNK     1       1.390   0.636  -0.035  1.00  0.00     0.037 A 
HETATM    7  C5  UNK     1       3.395   1.955  -0.723  1.00  0.00     0.051 A 
HETATM    8  C6  UNK     1       2.597   1.763  -3.399  1.00  0.00     0.041 A 
HETATM    9  C7  UNK     1       4.162   2.544  -1.733  1.00  0.00     0.069 A 
HETATM   10  C8  UNK     1      -0.150  -0.118  -1.803  1.00  0.00     0.304 A 
HETATM   11  C10 UNK     1       3.764   2.448  -3.068  1.00  0.00     0.039 A 
ENDROOT
BRANCH   5  12
HETATM   12  C9  UNK     1      -0.500  -0.616   0.703  1.00  0.00     0.262 C 
HETATM   13  O4  UNK     1       0.121  -0.988   1.696  1.00  0.00    -0.267 OA
HETATM   14  N1  UNK     1      -1.859  -0.675   0.439  1.00  0.00    -0.323 N 
HETATM   15  H5  UNK     1      -2.193  -0.295  -0.444  1.00  0.00     0.169 HD
BRANCH  14  16
HETATM   16  C11 UNK     1      -2.881  -1.189   1.271  1.00  0.00     0.035 A 
HETATM   17  C12 UNK     1      -2.547  -1.711   2.510  1.00  0.00     0.031 A 
HETATM   18  C14 UNK     1      -3.554  -2.218   3.331  1.00  0.00     0.020 A 
HETATM   19  C16 UNK     1      -4.881  -2.195   2.901  1.00  0.00     0.006 A 
HETATM   20  C15 UNK     1      -5.201  -1.667   1.651  1.00  0.00     0.020 A 
HETATM   21  I1  UNK     1      -6.381  -2.951   4.124  1.00  0.00    -0.045 I 
HETATM   22  C13 UNK     1      -4.194  -1.160   0.830  1.00  0.00     0.031 A 
ENDBRANCH  14  16
ENDBRANCH   5  12
BRANCH   9  23
HETATM   23  O2  UNK     1       5.304   3.214  -1.413  1.00  0.00    -0.356 OA
HETATM   24  C17 UNK     1       6.041   3.791  -2.490  1.00  0.00     0.210 C 
ENDBRANCH   9  23
TORSDOF 3
