REMARK  3 active torsions:
REMARK  status: ('A' for Active; 'I' for Inactive)
REMARK    1  A    between atoms: C16_24  and  O2_4 
REMARK       I    between atoms: C11_19  and  N1_7 
REMARK    2  A    between atoms: C5_13  and  N1_7 
REMARK    3  A    between atoms: C11_19  and  C6_14 
ROOT
HETATM    1  S1  UNK     1      -1.729  -1.722  -1.962  1.00  0.00    -0.075 SA
HETATM    2  N2  UNK     1      -0.929   1.001   2.264  1.00  0.00    -0.191 NA
HETATM    3  C1  UNK     1      -2.706  -1.528   0.406  1.00  0.00     0.011 A 
HETATM    4  C2  UNK     1      -2.858  -2.221  -0.775  1.00  0.00    -0.006 A 
HETATM    5  C3  UNK     1      -3.563  -1.801   1.534  1.00  0.00    -0.023 A 
HETATM    6  C4  UNK     1      -1.650  -0.575   0.335  1.00  0.00     0.090 A 
HETATM    7  C5  UNK     1      -1.056  -0.591  -0.887  1.00  0.00     0.099 A 
HETATM    8  C8  UNK     1      -4.753  -1.097   1.684  1.00  0.00     0.015 A 
HETATM    9  C9  UNK     1      -3.192  -2.768   2.465  1.00  0.00     0.015 A 
HETATM   10  C10 UNK     1      -3.825  -3.288  -1.124  1.00  0.00     0.057 C 
HETATM   11  C14 UNK     1      -5.581  -1.361   2.775  1.00  0.00     0.037 A 
HETATM   12  C15 UNK     1      -4.021  -3.032   3.555  1.00  0.00     0.037 A 
HETATM   13  C16 UNK     1      -5.215  -2.328   3.711  1.00  0.00     0.068 A 
HETATM   14  C20 UNK     1      -1.252   0.295   1.400  1.00  0.00     0.103 C 
ENDROOT
BRANCH   7  15
HETATM   15  N1  UNK     1       0.006   0.165  -1.392  1.00  0.00    -0.316 N 
HETATM   16  C11 UNK     1       1.063   0.684  -0.658  1.00  0.00     0.262 C 
HETATM   17  O3  UNK     1       1.278   0.590   0.549  1.00  0.00    -0.267 OA
HETATM   18  H1  UNK     1       0.086   0.132  -2.406  1.00  0.00     0.170 HD
BRANCH  16  19
HETATM   19  C6  UNK     1       2.004   1.428  -1.504  1.00  0.00     0.108 A 
HETATM   20  C12 UNK     1       3.282   1.432  -1.107  1.00  0.00     0.037 A 
HETATM   21  C7  UNK     1       4.288   2.143  -1.881  1.00  0.00     0.000 A 
HETATM   22  C13 UNK     1       3.899   2.814  -3.036  1.00  0.00     0.089 A 
HETATM   23  C18 UNK     1       5.633   2.174  -1.504  1.00  0.00     0.033 A 
HETATM   24  O1  UNK     1       2.552   2.806  -3.449  1.00  0.00    -0.274 OA
HETATM   25  C19 UNK     1       4.813   3.514  -3.821  1.00  0.00     0.039 A 
HETATM   26  C17 UNK     1       1.567   2.136  -2.729  1.00  0.00     0.304 A 
HETATM   27  O4  UNK     1       0.397   2.134  -3.097  1.00  0.00    -0.259 OA
HETATM   28  C22 UNK     1       6.152   3.540  -3.438  1.00  0.00     0.022 A 
HETATM   29  C21 UNK     1       6.561   2.872  -2.282  1.00  0.00     0.011 A 
HETATM   30 Br1  UNK     1       8.381   2.910  -1.768  1.00  0.00    -0.051 Br
ENDBRANCH  16  19
ENDBRANCH   7  15
BRANCH  13  31
HETATM   31  O2  UNK     1      -6.024  -2.587   4.775  1.00  0.00    -0.356 OA
HETATM   32  C23 UNK     1      -5.589  -3.588   5.693  1.00  0.00     0.210 C 
ENDBRANCH  13  31
TORSDOF 3
