REMARK  3 active torsions:
REMARK  status: ('A' for Active; 'I' for Inactive)
REMARK    1  A    between atoms: C13_17  and  O2_2 
REMARK    2  A    between atoms: C6_10  and  O2_2 
REMARK    3  A    between atoms: C1_5  and  C5_9 
ROOT
HETATM    1  O1  UNK     1      -2.556  -0.502  -0.632  1.00  0.00    -0.275 OA
HETATM    2  O3  UNK     1      -4.483  -1.589  -0.052  1.00  0.00    -0.260 OA
HETATM    3  C1  UNK     1       1.319   0.748   0.276  1.00  0.00    -0.024 A 
HETATM    4  C2  UNK     1      -0.704  -0.422   0.958  1.00  0.00     0.005 A 
HETATM    5  C3  UNK     1       0.600   0.015   1.227  1.00  0.00     0.024 A 
HETATM    6  C4  UNK     1      -1.251  -0.099  -0.284  1.00  0.00     0.093 A 
HETATM    7  C6  UNK     1       0.747   1.056  -0.957  1.00  0.00     0.088 A 
HETATM    8  C7  UNK     1      -1.518  -1.195   1.906  1.00  0.00    -0.043 A 
HETATM    9  C8  UNK     1      -0.547   0.631  -1.243  1.00  0.00     0.076 A 
HETATM   10  C9  UNK     1      -2.756  -1.564   1.549  1.00  0.00     0.090 A 
HETATM   11  C11 UNK     1      -0.957  -1.559   3.250  1.00  0.00     0.049 C 
HETATM   12  C12 UNK     1      -3.347  -1.232   0.242  1.00  0.00     0.288 A 
ENDROOT
BRANCH   7  13
HETATM   13  O2  UNK     1       1.437   1.769  -1.889  1.00  0.00    -0.279 OA
BRANCH  13  14
HETATM   14  C13 UNK     1       2.194   0.979  -2.770  1.00  0.00     0.260 C 
HETATM   15  O4  UNK     1       2.268  -0.243  -2.752  1.00  0.00    -0.265 OA
HETATM   16  C14 UNK     1       2.914   1.853  -3.753  1.00  0.00     0.126 C 
ENDBRANCH  13  14
ENDBRANCH   7  13
BRANCH   3  17
HETATM   17  C5  UNK     1       2.707   1.196   0.602  1.00  0.00     0.037 C 
HETATM   18  C10 UNK     1       2.730   2.570   1.265  1.00  0.00     0.010 C 
ENDBRANCH   3  17
TORSDOF 3
