REMARK  6 active torsions:
REMARK  status: ('A' for Active; 'I' for Inactive)
REMARK    1  A    between atoms: C5_11  and  N1_4 
REMARK    2  A    between atoms: C6_12  and  N2_5 
REMARK    3  A    between atoms: C5_11  and  C7_13 
REMARK    4  A    between atoms: C6_12  and  C8_14 
REMARK    5  A    between atoms: C14_20  and  C20_26 
REMARK    6  A    between atoms: C16_22  and  C21_27 
ROOT
HETATM    1  N1  UNK     1      -0.766  -0.820   1.071  1.00  0.00     0.096 N 
HETATM    2  N2  UNK     1       1.246   1.231   0.750  1.00  0.00     0.097 N 
HETATM    3  C1  UNK     1       0.077  -0.761  -0.129  1.00  0.00     0.303 C 
HETATM    4  C2  UNK     1      -0.051  -0.267   2.227  1.00  0.00     0.303 C 
HETATM    5  C3  UNK     1       0.531   0.677  -0.406  1.00  0.00     0.303 C 
HETATM    6  C4  UNK     1       0.404   1.170   1.951  1.00  0.00     0.303 C 
ENDROOT
BRANCH   1   7
HETATM    7  C5  UNK     1      -1.198  -2.191   1.335  1.00  0.00     0.312 C 
BRANCH   7   8
HETATM    8  C7  UNK     1      -2.439  -2.242   2.157  1.00  0.00    -0.011 A 
HETATM    9  C10 UNK     1      -2.381  -2.280   3.496  1.00  0.00     0.092 A 
HETATM   10  C15 UNK     1      -3.579  -2.331   4.351  1.00  0.00     0.288 A 
HETATM   11  O2  UNK     1      -4.805  -2.336   3.705  1.00  0.00    -0.275 OA
HETATM   12  O3  UNK     1      -3.486  -2.363   5.573  1.00  0.00    -0.260 OA
HETATM   13  C12 UNK     1      -4.898  -2.296   2.299  1.00  0.00     0.090 A 
HETATM   14  C9  UNK     1      -3.754  -2.249   1.502  1.00  0.00     0.007 A 
HETATM   15  C17 UNK     1      -6.184  -2.306   1.757  1.00  0.00     0.039 A 
HETATM   16  C13 UNK     1      -3.931  -2.212   0.112  1.00  0.00     0.022 A 
HETATM   17  C14 UNK     1      -5.214  -2.221  -0.446  1.00  0.00    -0.058 A 
HETATM   18  C19 UNK     1      -6.339  -2.268   0.376  1.00  0.00     0.010 A 
BRANCH  17  19
HETATM   19  C20 UNK     1      -5.379  -2.181  -1.928  1.00  0.00     0.034 C 
HETATM   20  C22 UNK     1      -5.472  -0.754  -2.463  1.00  0.00     0.010 C 
ENDBRANCH  17  19
ENDBRANCH   7   8
ENDBRANCH   1   7
BRANCH   2  21
HETATM   21  C6  UNK     1       1.676   2.602   0.486  1.00  0.00     0.334 C 
BRANCH  21  22
HETATM   22  C8  UNK     1       2.879   2.580  -0.401  1.00  0.00     0.095 A 
HETATM   23  C11 UNK     1       4.206   2.533  -0.056  1.00  0.00     0.078 A 
HETATM   24  O1  UNK     1       4.939   2.529  -1.204  1.00  0.00    -0.294 OA
HETATM   25  C18 UNK     1       4.948   2.491   1.209  1.00  0.00     0.079 C 
HETATM   26  C16 UNK     1       3.995   2.573  -2.184  1.00  0.00     0.180 A 
HETATM   27  N3  UNK     1       2.749   2.605  -1.766  1.00  0.00    -0.224 NA
BRANCH  26  28
HETATM   28  C21 UNK     1       4.506   2.578  -3.526  1.00  0.00     0.017 A 
HETATM   29  C23 UNK     1       5.883   2.540  -3.748  1.00  0.00     0.016 A 
HETATM   30  C25 UNK     1       6.380   2.546  -5.051  1.00  0.00     0.001 A 
HETATM   31  C27 UNK     1       5.501   2.590  -6.133  1.00  0.00     0.000 A 
HETATM   32  C26 UNK     1       4.124   2.629  -5.911  1.00  0.00     0.001 A 
HETATM   33  C24 UNK     1       3.627   2.623  -4.608  1.00  0.00     0.016 A 
ENDBRANCH  26  28
ENDBRANCH  21  22
ENDBRANCH   2  21
TORSDOF 6
