REMARK  4 active torsions:
REMARK  status: ('A' for Active; 'I' for Inactive)
REMARK    1  A    between atoms: C16_22  and  O2_3 
REMARK    2  A    between atoms: C5_11  and  O2_3 
REMARK    3  A    between atoms: C6_12  and  N1_6 
REMARK       I    between atoms: C8_14  and  N1_6 
REMARK    4  A    between atoms: C3_9  and  C8_14 
ROOT
HETATM    1  O1  UNK     1       1.451   0.452  -1.886  1.00  0.00    -0.271 OA
HETATM    2  O4  UNK     1      -0.406  -0.868  -1.708  1.00  0.00    -0.259 OA
HETATM    3  C1  UNK     1       2.397   1.468   0.109  1.00  0.00     0.002 A 
HETATM    4  C2  UNK     1       2.423   1.260  -1.266  1.00  0.00     0.123 A 
HETATM    5  C3  UNK     1       0.427   0.071   0.302  1.00  0.00     0.108 A 
HETATM    6  C4  UNK     1       1.348   0.838   0.896  1.00  0.00     0.037 A 
HETATM    7  C5  UNK     1       3.400   1.835  -2.077  1.00  0.00     0.103 A 
HETATM    8  C7  UNK     1       3.379   2.276   0.687  1.00  0.00     0.014 A 
HETATM    9  C10 UNK     1       0.436  -0.165  -1.160  1.00  0.00     0.304 A 
HETATM   10  C11 UNK     1       4.376   2.639  -1.492  1.00  0.00     0.040 A 
HETATM   11  C12 UNK     1       4.366   2.859  -0.113  1.00  0.00     0.004 A 
ENDROOT
BRANCH   5  12
HETATM   12  C8  UNK     1      -0.589  -0.521   1.180  1.00  0.00     0.262 C 
HETATM   13  O3  UNK     1      -0.306  -0.788   2.347  1.00  0.00    -0.267 OA
HETATM   14  N1  UNK     1      -1.800  -0.707   0.528  1.00  0.00    -0.322 N 
HETATM   15  H4  UNK     1      -1.864  -0.405  -0.439  1.00  0.00     0.169 HD
BRANCH  14  16
HETATM   16  C6  UNK     1      -2.994  -1.251   1.062  1.00  0.00     0.043 A 
HETATM   17  C13 UNK     1      -2.999  -1.658   2.386  1.00  0.00     0.072 A 
HETATM   18  C17 UNK     1      -4.165  -2.196   2.931  1.00  0.00     0.118 A 
HETATM   19  F1  UNK     1      -4.185  -2.595   4.210  1.00  0.00    -0.206 F 
HETATM   20  C18 UNK     1      -5.311  -2.318   2.144  1.00  0.00     0.043 A 
HETATM   21  C14 UNK     1      -5.289  -1.904   0.812  1.00  0.00     0.012 A 
HETATM   22  C9  UNK     1      -4.123  -1.366   0.268  1.00  0.00    -0.035 A 
HETATM   23  C15 UNK     1      -4.130  -0.929  -1.161  1.00  0.00     0.050 C 
ENDBRANCH  14  16
ENDBRANCH   5  12
BRANCH   7  24
HETATM   24  O2  UNK     1       3.414   1.623  -3.420  1.00  0.00    -0.349 OA
BRANCH  24  25
HETATM   25  C16 UNK     1       3.945   2.666  -4.237  1.00  0.00     0.171 C 
HETATM   26  C19 UNK     1       3.265   2.627  -5.589  1.00  0.00     0.034 C 
ENDBRANCH  24  25
ENDBRANCH   7  24
TORSDOF 4
