REMARK  1 active torsions:
REMARK  status: ('A' for Active; 'I' for Inactive)
REMARK    1  A    between atoms: C11_15  and  N2_4 
ROOT
HETATM    1  O1  UNK     1       0.827   0.408   1.703  1.00  0.00    -0.273 OA
HETATM    2  O2  UNK     1       2.849   1.340   1.214  1.00  0.00    -0.257 OA
HETATM    3  N1  UNK     1       2.387   1.337  -1.493  1.00  0.00    -0.385 N 
HETATM    4  C1  UNK     1      -0.085   0.395  -2.532  1.00  0.00     0.043 C 
HETATM    5  C2  UNK     1       0.248   0.369  -1.053  1.00  0.00    -0.012 A 
HETATM    6  C3  UNK     1       0.814   1.350  -3.336  1.00  0.00     0.024 C 
HETATM    7  C4  UNK     1       2.280   1.219  -2.932  1.00  0.00     0.120 C 
HETATM    8  C5  UNK     1       1.429   0.855  -0.625  1.00  0.00     0.112 A 
HETATM    9  C6  UNK     1      -0.714  -0.182  -0.091  1.00  0.00     0.009 A 
HETATM   10  C7  UNK     1      -0.393  -0.138   1.264  1.00  0.00     0.090 A 
HETATM   11  C8  UNK     1       1.777   0.894   0.816  1.00  0.00     0.315 A 
HETATM   12  C9  UNK     1      -1.938  -0.762  -0.450  1.00  0.00     0.043 A 
HETATM   13  C10 UNK     1      -1.248  -0.634   2.251  1.00  0.00     0.040 A 
HETATM   14  C11 UNK     1      -2.805  -1.265   0.527  1.00  0.00     0.026 A 
HETATM   15  C12 UNK     1      -2.462  -1.199   1.875  1.00  0.00     0.032 A 
HETATM   16  H7  UNK     1       3.263   1.657  -1.093  1.00  0.00     0.159 HD
ENDROOT
BRANCH  14  17
HETATM   17  N2  UNK     1      -4.034  -1.844   0.143  1.00  0.00    -0.399 N 
HETATM   18  H11 UNK     1      -4.288  -1.891  -0.835  1.00  0.00     0.156 HD
HETATM   19  H12 UNK     1      -4.665  -2.206   0.846  1.00  0.00     0.156 HD
ENDBRANCH  14  17
TORSDOF 1
