REMARK  6 active torsions:
REMARK  status: ('A' for Active; 'I' for Inactive)
REMARK    1  A    between atoms: C1_8  and  O1_2 
REMARK    2  A    between atoms: C13_20  and  O1_2 
REMARK    3  A    between atoms: C2_9  and  O3_4 
REMARK    4  A    between atoms: C1_8  and  C2_9 
REMARK    5  A    between atoms: C6_13  and  C9_16 
REMARK    6  A    between atoms: C12_19  and  C13_20 
ROOT
HETATM    1  N1  UNK     1       5.263   1.209  -1.188  1.00  0.00    -0.191 NA
HETATM    2  C9  UNK     1       2.433   0.219   0.620  1.00  0.00     0.046 C 
HETATM    3  C12 UNK     1       2.813   1.053  -0.367  1.00  0.00     0.120 C 
HETATM    4  C17 UNK     1       4.165   1.137  -0.818  1.00  0.00     0.105 C 
ENDROOT
BRANCH   3   5
HETATM    5  C13 UNK     1       1.747   1.901  -0.981  1.00  0.00     0.304 C 
HETATM    6  O5  UNK     1       1.431   3.015  -0.588  1.00  0.00    -0.258 OA
BRANCH   5   7
HETATM    7  O1  UNK     1       1.189   1.241  -2.034  1.00  0.00    -0.310 OA
BRANCH   7   8
HETATM    8  C1  UNK     1       0.145   1.939  -2.722  1.00  0.00     0.152 C 
HETATM    9  C4  UNK     1      -0.979   2.234  -1.740  1.00  0.00     0.042 C 
BRANCH   8  10
HETATM   10  C2  UNK     1      -0.336   1.067  -3.874  1.00  0.00     0.199 C 
BRANCH  10  11
HETATM   11  O3  UNK     1      -0.847  -0.153  -3.348  1.00  0.00    -0.393 OA
HETATM   12  C16 UNK     1      -1.294  -1.018  -4.382  1.00  0.00     0.201 C 
ENDBRANCH  10  11
ENDBRANCH   8  10
ENDBRANCH   7   8
ENDBRANCH   5   7
ENDBRANCH   3   5
BRANCH   2  13
HETATM   13  C6  UNK     1       1.102   0.063   1.142  1.00  0.00     0.039 A 
HETATM   14  C10 UNK     1       0.647   0.796   2.167  1.00  0.00     0.158 A 
HETATM   15  O2  UNK     1      -0.599   0.727   2.741  1.00  0.00    -0.321 OA
HETATM   16  C5  UNK     1      -1.487  -0.182   2.225  1.00  0.00     0.089 A 
HETATM   17  C11 UNK     1      -2.750  -0.245   2.813  1.00  0.00     0.040 A 
HETATM   18  C3  UNK     1      -1.170  -1.021   1.157  1.00  0.00     0.050 A 
HETATM   19  C15 UNK     1      -3.695  -1.151   2.331  1.00  0.00     0.026 A 
HETATM   20  C14 UNK     1      -3.378  -1.991   1.263  1.00  0.00     0.035 A 
HETATM   21 Cl1  UNK     1      -4.549  -3.106   0.672  1.00  0.00    -0.084 Cl
HETATM   22  C8  UNK     1      -2.115  -1.929   0.672  1.00  0.00     0.042 A 
HETATM   23  C7  UNK     1       0.172  -0.936   0.551  1.00  0.00     0.197 A 
HETATM   24  O4  UNK     1       0.490  -1.656  -0.388  1.00  0.00    -0.286 OA
ENDBRANCH   2  13
TORSDOF 6
