REMARK  4 active torsions:
REMARK  status: ('A' for Active; 'I' for Inactive)
REMARK       I    between atoms: C12_19  and  N1_6 
REMARK    1  A    between atoms: C9_16  and  N1_6 
REMARK       I    between atoms: C11_18  and  N2_7 
REMARK    2  A    between atoms: C1_8  and  C7_14 
REMARK    3  A    between atoms: C11_18  and  C8_15 
REMARK    4  A    between atoms: C12_19  and  C13_20 
ROOT
HETATM    1  S1  UNK     1      -2.276  -0.745  -0.526  1.00  0.00    -0.075 SA
HETATM    2  C1  UNK     1      -5.219  -2.309   1.880  1.00  0.00    -0.010 C 
HETATM    3  C2  UNK     1      -4.253  -2.940   2.905  1.00  0.00     0.009 C 
HETATM    4  C3  UNK     1      -4.512  -2.065   0.527  1.00  0.00     0.051 C 
HETATM    5  C4  UNK     1      -3.054  -2.024   3.195  1.00  0.00     0.041 C 
HETATM    6  C5  UNK     1      -2.469  -1.458   1.939  1.00  0.00    -0.026 A 
HETATM    7  C6  UNK     1      -3.156  -1.466   0.740  1.00  0.00    -0.008 A 
HETATM    8  C8  UNK     1      -1.193  -0.835   1.803  1.00  0.00     0.073 A 
HETATM    9  C9  UNK     1      -0.960  -0.402   0.515  1.00  0.00     0.093 A 
ENDROOT
BRANCH   9  10
HETATM   10  N1  UNK     1       0.114   0.235  -0.045  1.00  0.00    -0.316 N 
HETATM   11  C12 UNK     1       0.295   0.656  -1.382  1.00  0.00     0.262 C 
HETATM   12  O2  UNK     1      -0.491   0.529  -2.314  1.00  0.00    -0.267 OA
HETATM   13  H13 UNK     1       0.877   0.404   0.606  1.00  0.00     0.169 HD
BRANCH  11  14
HETATM   14  C13 UNK     1       1.595   1.317  -1.617  1.00  0.00     0.108 A 
HETATM   15  C14 UNK     1       2.112   1.188  -2.844  1.00  0.00     0.037 A 
HETATM   16  C15 UNK     1       3.389   1.803  -3.171  1.00  0.00    -0.001 A 
HETATM   17  C17 UNK     1       4.059   2.524  -2.189  1.00  0.00     0.089 A 
HETATM   18  C18 UNK     1       3.965   1.694  -4.439  1.00  0.00     0.014 A 
HETATM   19  O3  UNK     1       3.511   2.657  -0.899  1.00  0.00    -0.274 OA
HETATM   20  C19 UNK     1       5.286   3.137  -2.437  1.00  0.00     0.038 A 
HETATM   21  C16 UNK     1       2.291   2.080  -0.556  1.00  0.00     0.304 A 
HETATM   22  O4  UNK     1       1.821   2.200   0.570  1.00  0.00    -0.259 OA
HETATM   23  C21 UNK     1       5.854   3.024  -3.704  1.00  0.00     0.003 A 
HETATM   24  C20 UNK     1       5.195   2.304  -4.704  1.00  0.00     0.001 A 
ENDBRANCH  11  14
ENDBRANCH   9  10
BRANCH   8  25
HETATM   25  C11 UNK     1      -0.232  -0.655   2.863  1.00  0.00     0.252 C 
HETATM   26  O1  UNK     1       0.660  -1.484   3.121  1.00  0.00    -0.268 OA
HETATM   27  N2  UNK     1      -0.311   0.521   3.606  1.00  0.00    -0.366 N 
HETATM   28  H14 UNK     1      -1.017   1.227   3.424  1.00  0.00     0.159 HD
HETATM   29  H15 UNK     1       0.342   0.706   4.359  1.00  0.00     0.159 HD
ENDBRANCH   8  25
BRANCH   2  30
HETATM   30  C7  UNK     1      -6.454  -3.186   1.686  1.00  0.00     0.000 C 
HETATM   31  C10 UNK     1      -7.437  -2.552   0.720  1.00  0.00     0.005 C 
ENDBRANCH   2  30
TORSDOF 4
