REMARK  3 active torsions:
REMARK  status: ('A' for Active; 'I' for Inactive)
REMARK    1  A    between atoms: C16_21  and  O3_3 
REMARK    2  A    between atoms: C6_11  and  O3_3 
REMARK    3  A    between atoms: C16_21  and  C9_14 
ROOT
HETATM    1  O2  UNK     1      -3.832  -1.855   0.054  1.00  0.00    -0.275 OA
HETATM    2  O5  UNK     1      -5.998  -2.588   0.107  1.00  0.00    -0.260 OA
HETATM    3  C1  UNK     1      -2.662  -1.430   2.156  1.00  0.00     0.004 A 
HETATM    4  C2  UNK     1      -2.680  -1.456   0.760  1.00  0.00     0.092 A 
HETATM    5  C3  UNK     1      -3.875  -1.830   2.882  1.00  0.00    -0.043 A 
HETATM    6  C5  UNK     1      -1.478  -1.021   2.783  1.00  0.00     0.017 A 
HETATM    7  C6  UNK     1      -0.406  -0.688   0.635  1.00  0.00     0.082 A 
HETATM    8  C7  UNK     1      -1.572  -1.091  -0.007  1.00  0.00     0.075 A 
HETATM    9  C10 UNK     1      -0.359  -0.653   2.028  1.00  0.00     0.038 A 
HETATM   10  C12 UNK     1      -4.956  -2.206   2.184  1.00  0.00     0.090 A 
HETATM   11  C13 UNK     1      -3.888  -1.814   4.383  1.00  0.00     0.049 C 
HETATM   12  C17 UNK     1      -4.990  -2.238   0.712  1.00  0.00     0.288 A 
ENDROOT
BRANCH   7  13
HETATM   13  O3  UNK     1       0.686  -0.329  -0.093  1.00  0.00    -0.273 OA
BRANCH  13  14
HETATM   14  C16 UNK     1       0.758   1.039  -0.431  1.00  0.00     0.322 C 
HETATM   15  O4  UNK     1      -0.093   1.858  -0.099  1.00  0.00    -0.257 OA
BRANCH  14  16
HETATM   16  C9  UNK     1       1.957   1.347  -1.213  1.00  0.00     0.152 A 
HETATM   17  C11 UNK     1       2.952   0.539  -1.634  1.00  0.00     0.058 A 
HETATM   18  C4  UNK     1       3.840   1.387  -2.346  1.00  0.00     0.001 A 
HETATM   19  C14 UNK     1       5.054   1.221  -3.035  1.00  0.00     0.014 A 
HETATM   20  C8  UNK     1       3.279   2.659  -2.284  1.00  0.00     0.086 A 
HETATM   21  C18 UNK     1       5.648   2.343  -3.631  1.00  0.00     0.001 A 
HETATM   22  C19 UNK     1       5.053   3.604  -3.545  1.00  0.00     0.003 A 
HETATM   23  C15 UNK     1       3.846   3.792  -2.865  1.00  0.00     0.038 A 
HETATM   24  O1  UNK     1       2.113   2.626  -1.580  1.00  0.00    -0.304 OA
ENDBRANCH  14  16
ENDBRANCH  13  14
ENDBRANCH   7  13
TORSDOF 3
