REMARK  5 active torsions:
REMARK  status: ('A' for Active; 'I' for Inactive)
REMARK    1  A    between atoms: C12_20  and  O3_3 
REMARK    2  A    between atoms: C13_21  and  O4_4 
REMARK    3  A    between atoms: C14_22  and  O6_6 
REMARK    4  A    between atoms: C7_15  and  N1_7 
REMARK    5  A    between atoms: C1_9  and  C3_11 
ROOT
HETATM    1  O1  UNK     1       1.059   0.437  -2.789  1.00  0.00    -0.291 OA
HETATM    2  O2  UNK     1       2.258   2.445   0.679  1.00  0.00    -0.274 OA
HETATM    3  O5  UNK     1       0.091   2.527   1.385  1.00  0.00    -0.259 OA
HETATM    4  N2  UNK     1      -3.752   0.237  -2.936  1.00  0.00    -0.191 NA
HETATM    5  C1  UNK     1      -0.966   1.051  -0.850  1.00  0.00     0.109 C 
HETATM    6  C2  UNK     1       0.497   1.415  -0.678  1.00  0.00     0.066 A 
HETATM    7  C4  UNK     1       1.397   1.090  -1.618  1.00  0.00     0.104 A 
HETATM    8  C5  UNK     1      -1.270   0.530  -2.251  1.00  0.00     0.086 C 
HETATM    9  C6  UNK     1       2.812   1.407  -1.450  1.00  0.00     0.033 A 
HETATM   10  C7  UNK     1      -0.280   0.246  -3.128  1.00  0.00     0.159 C 
HETATM   11  C8  UNK     1       0.903   2.167   0.538  1.00  0.00     0.298 A 
HETATM   12  C11 UNK     1       3.205   2.076  -0.295  1.00  0.00     0.092 A 
HETATM   13  C15 UNK     1       3.798   1.073  -2.387  1.00  0.00     0.017 A 
HETATM   14  C16 UNK     1       4.536   2.416  -0.050  1.00  0.00     0.038 A 
HETATM   15  C17 UNK     1      -2.641   0.368  -2.629  1.00  0.00     0.100 C 
HETATM   16  C18 UNK     1       5.137   1.406  -2.156  1.00  0.00     0.001 A 
HETATM   17  C19 UNK     1       5.505   2.076  -0.989  1.00  0.00     0.003 A 
ENDROOT
BRANCH   5  18
HETATM   18  C3  UNK     1      -1.380   0.038   0.178  1.00  0.00    -0.039 A 
HETATM   19  C10 UNK     1      -0.771  -1.211   0.196  1.00  0.00     0.048 A 
HETATM   20  C12 UNK     1      -1.157  -2.153   1.150  1.00  0.00     0.104 A 
HETATM   21  C14 UNK     1      -2.148  -1.839   2.079  1.00  0.00     0.135 A 
HETATM   22  C13 UNK     1      -2.755  -0.583   2.054  1.00  0.00     0.104 A 
HETATM   23  C9  UNK     1      -2.369   0.359   1.100  1.00  0.00     0.048 A 
BRANCH  20  24
HETATM   24  O3  UNK     1      -0.558  -3.376   1.162  1.00  0.00    -0.353 OA
HETATM   25  C20 UNK     1       0.446  -3.616   0.178  1.00  0.00     0.210 C 
ENDBRANCH  20  24
BRANCH  21  26
HETATM   26  O6  UNK     1      -2.526  -2.760   3.011  1.00  0.00    -0.351 OA
HETATM   27  C22 UNK     1      -3.590  -3.640   2.657  1.00  0.00     0.210 C 
ENDBRANCH  21  26
BRANCH  22  28
HETATM   28  O4  UNK     1      -3.724  -0.264   2.957  1.00  0.00    -0.353 OA
HETATM   29  C21 UNK     1      -3.299   0.332   4.181  1.00  0.00     0.210 C 
ENDBRANCH  22  28
ENDBRANCH   5  18
BRANCH  10  30
HETATM   30  N1  UNK     1      -0.463  -0.237  -4.394  1.00  0.00    -0.379 N 
HETATM   31  H7  UNK     1       0.349  -0.416  -4.971  1.00  0.00     0.158 HD
HETATM   32  H8  UNK     1      -1.391  -0.418  -4.754  1.00  0.00     0.158 HD
ENDBRANCH  10  30
TORSDOF 5
