REMARK  3 active torsions:
REMARK  status: ('A' for Active; 'I' for Inactive)
REMARK       I    between atoms: C12_17  and  N1_5 
REMARK    1  A    between atoms: C3_8  and  N1_5 
REMARK    2  A    between atoms: C1_6  and  C4_9 
REMARK    3  A    between atoms: C12_17  and  C5_10 
ROOT
HETATM    1 Br1  UNK     1       4.797   2.359  -5.283  1.00  0.00    -0.051 Br
HETATM    2  O1  UNK     1       2.738   1.527   0.363  1.00  0.00    -0.274 OA
HETATM    3  O3  UNK     1       1.061   0.931   1.796  1.00  0.00    -0.259 OA
HETATM    4  C2  UNK     1       2.348   1.458  -2.036  1.00  0.00     0.000 A 
HETATM    5  C5  UNK     1       0.568   0.825  -0.519  1.00  0.00     0.108 A 
HETATM    6  C6  UNK     1       3.190   1.712  -0.958  1.00  0.00     0.089 A 
HETATM    7  C7  UNK     1       0.992   0.999  -1.776  1.00  0.00     0.037 A 
HETATM    8  C13 UNK     1       2.833   1.653  -3.331  1.00  0.00     0.033 A 
HETATM    9  C14 UNK     1       1.447   1.089   0.642  1.00  0.00     0.304 A 
HETATM   10  C15 UNK     1       4.500   2.153  -1.139  1.00  0.00     0.039 A 
HETATM   11  C17 UNK     1       4.145   2.096  -3.528  1.00  0.00     0.011 A 
HETATM   12  C18 UNK     1       4.976   2.345  -2.434  1.00  0.00     0.022 A 
ENDROOT
BRANCH   5  13
HETATM   13  C12 UNK     1      -0.815   0.360  -0.360  1.00  0.00     0.262 C 
HETATM   14  O2  UNK     1      -1.661   0.663  -1.199  1.00  0.00    -0.267 OA
HETATM   15  N1  UNK     1      -0.982  -0.403   0.788  1.00  0.00    -0.323 N 
HETATM   16  H8  UNK     1      -0.168  -0.582   1.372  1.00  0.00     0.169 HD
BRANCH  15  17
HETATM   17  C3  UNK     1      -2.173  -1.010   1.256  1.00  0.00     0.035 A 
HETATM   18  C10 UNK     1      -2.142  -1.739   2.433  1.00  0.00     0.030 A 
HETATM   19  C8  UNK     1      -3.315  -2.337   2.894  1.00  0.00     0.009 A 
HETATM   20  C1  UNK     1      -4.500  -2.196   2.173  1.00  0.00    -0.058 A 
HETATM   21  C9  UNK     1      -4.513  -1.458   0.990  1.00  0.00     0.009 A 
HETATM   22  C11 UNK     1      -3.340  -0.860   0.528  1.00  0.00     0.030 A 
BRANCH  20  23
HETATM   23  C4  UNK     1      -5.754  -2.835   2.666  1.00  0.00     0.034 C 
HETATM   24  C16 UNK     1      -5.936  -4.251   2.126  1.00  0.00     0.010 C 
ENDBRANCH  20  23
ENDBRANCH  15  17
ENDBRANCH   5  13
TORSDOF 3
