REMARK  3 active torsions:
REMARK  status: ('A' for Active; 'I' for Inactive)
REMARK    1  A    between atoms: C1_5  and  N1_3 
REMARK    2  A    between atoms: C11_15  and  N2_4 
REMARK    3  A    between atoms: C11_15  and  C12_16 
ROOT
HETATM    1  C11 UNK     1      -0.334   2.195  -0.807  1.00  0.00     0.312 C 
ENDROOT
BRANCH   1   2
HETATM    2  N2  UNK     1      -0.809   1.018  -0.080  1.00  0.00     0.092 N 
HETATM    3  C4  UNK     1      -1.454   1.417   1.178  1.00  0.00     0.275 C 
HETATM    4  C2  UNK     1      -1.910   0.195   1.977  1.00  0.00     0.066 C 
HETATM    5  C1  UNK     1      -2.838  -0.694   1.149  1.00  0.00     0.226 C 
HETATM    6  C3  UNK     1      -2.187  -1.033  -0.192  1.00  0.00     0.066 C 
HETATM    7  C5  UNK     1      -1.723   0.230  -0.919  1.00  0.00     0.275 C 
BRANCH   5   8
HETATM    8  N1  UNK     1      -3.191  -1.907   1.886  1.00  0.00     0.093 N 
HETATM    9  C6  UNK     1      -3.740  -1.566   3.206  1.00  0.00     0.273 C 
HETATM   10  C8  UNK     1      -4.068  -2.826   4.009  1.00  0.00     0.030 C 
HETATM   11  C10 UNK     1      -5.019  -3.739   3.243  1.00  0.00     0.003 C 
HETATM   12  C9  UNK     1      -4.479  -4.019   1.846  1.00  0.00     0.030 C 
HETATM   13  C7  UNK     1      -4.137  -2.722   1.111  1.00  0.00     0.273 C 
ENDBRANCH   5   8
ENDBRANCH   1   2
BRANCH   1  14
HETATM   14  C12 UNK     1       0.756   1.722  -1.701  1.00  0.00    -0.011 A 
HETATM   15  C14 UNK     1       0.496   1.300  -2.946  1.00  0.00     0.092 A 
HETATM   16  C17 UNK     1       1.541   0.823  -3.867  1.00  0.00     0.288 A 
HETATM   17  O1  UNK     1       2.842   0.826  -3.389  1.00  0.00    -0.275 OA
HETATM   18  O2  UNK     1       1.266   0.444  -5.001  1.00  0.00    -0.260 OA
HETATM   19  C15 UNK     1       3.146   1.265  -2.084  1.00  0.00     0.090 A 
HETATM   20  C13 UNK     1       2.145   1.714  -1.222  1.00  0.00     0.006 A 
HETATM   21  C18 UNK     1       4.490   1.224  -1.709  1.00  0.00     0.045 A 
HETATM   22  C16 UNK     1       2.529   2.132   0.059  1.00  0.00     0.015 A 
HETATM   23  C19 UNK     1       3.873   2.097   0.449  1.00  0.00     0.007 A 
HETATM   24  C20 UNK     1       4.852   1.643  -0.433  1.00  0.00    -0.059 A 
HETATM   25  C21 UNK     1       6.281   1.608  -0.010  1.00  0.00     0.048 C 
ENDBRANCH   1  14
TORSDOF 3
