REMARK  4 active torsions:
REMARK  status: ('A' for Active; 'I' for Inactive)
REMARK    1  A    between atoms: C7_15  and  S1_1 
REMARK    2  A    between atoms: N1_7  and  S1_1 
REMARK    3  A    between atoms: C14_22  and  N2_8 
REMARK       I    between atoms: C15_23  and  N2_8 
REMARK    4  A    between atoms: C15_23  and  C16_24 
ROOT
HETATM    1  C7  UNK     1       2.620   1.964  -0.078  1.00  0.00     0.075 A 
HETATM    2  C10 UNK     1       1.356   2.316  -0.517  1.00  0.00     0.027 A 
HETATM    3  C11 UNK     1       2.827   0.856   0.726  1.00  0.00     0.027 A 
HETATM    4  C12 UNK     1       0.263   1.535  -0.140  1.00  0.00     0.031 A 
HETATM    5  C13 UNK     1       1.733   0.076   1.103  1.00  0.00     0.031 A 
HETATM    6  C14 UNK     1       0.451   0.415   0.670  1.00  0.00     0.035 A 
ENDROOT
BRANCH   6   7
HETATM    7  N2  UNK     1      -0.642  -0.366   1.047  1.00  0.00    -0.323 N 
HETATM    8  C15 UNK     1      -1.985  -0.180   0.712  1.00  0.00     0.262 C 
HETATM    9  O4  UNK     1      -2.478   0.703   0.021  1.00  0.00    -0.267 OA
HETATM   10  H13 UNK     1      -0.408  -1.148   1.653  1.00  0.00     0.169 HD
BRANCH   8  11
HETATM   11  C16 UNK     1      -2.862  -1.215   1.297  1.00  0.00     0.108 A 
HETATM   12  C18 UNK     1      -4.115  -0.839   1.580  1.00  0.00     0.037 A 
HETATM   13  C17 UNK     1      -5.052  -1.788   2.160  1.00  0.00    -0.001 A 
HETATM   14  C19 UNK     1      -4.625  -3.087   2.414  1.00  0.00     0.089 A 
HETATM   15  C21 UNK     1      -6.369  -1.439   2.469  1.00  0.00     0.014 A 
HETATM   16  C22 UNK     1      -5.473  -4.044   2.968  1.00  0.00     0.038 A 
HETATM   17  O3  UNK     1      -3.305  -3.477   2.114  1.00  0.00    -0.274 OA
HETATM   18  C24 UNK     1      -6.784  -3.687   3.274  1.00  0.00     0.003 A 
HETATM   19  C23 UNK     1      -7.232  -2.388   3.026  1.00  0.00     0.001 A 
HETATM   20  C20 UNK     1      -2.385  -2.592   1.559  1.00  0.00     0.304 A 
HETATM   21  O5  UNK     1      -1.238  -2.941   1.302  1.00  0.00    -0.259 OA
ENDBRANCH   8  11
ENDBRANCH   6   7
BRANCH   1  22
HETATM   22  S1  UNK     1       4.006   2.953  -0.556  1.00  0.00     0.248 S 
HETATM   23  O1  UNK     1       3.508   4.285  -0.852  1.00  0.00    -0.205 OA
HETATM   24  O2  UNK     1       5.044   2.763   0.441  1.00  0.00    -0.205 OA
BRANCH  22  25
HETATM   25  N1  UNK     1       4.456   2.180  -1.998  1.00  0.00    -0.171 NA
HETATM   26  C1  UNK     1       5.061   0.808  -1.897  1.00  0.00     0.118 C 
HETATM   27  C2  UNK     1       4.774   0.124  -3.245  1.00  0.00     0.056 C 
HETATM   28  C4  UNK     1       3.655   0.950  -3.791  1.00  0.00    -0.035 A 
HETATM   29  C3  UNK     1       3.491   2.124  -3.057  1.00  0.00     0.031 A 
HETATM   30  C6  UNK     1       2.875   0.695  -4.907  1.00  0.00     0.009 A 
HETATM   31  C5  UNK     1       2.581   3.094  -3.440  1.00  0.00     0.025 A 
HETATM   32  C8  UNK     1       1.783   2.840  -4.558  1.00  0.00     0.002 A 
HETATM   33  C9  UNK     1       1.925   1.647  -5.284  1.00  0.00     0.001 A 
ENDBRANCH  22  25
ENDBRANCH   1  22
TORSDOF 4
