REMARK  6 active torsions:
REMARK  status: ('A' for Active; 'I' for Inactive)
REMARK    1  A    between atoms: C15_22  and  O3_3 
REMARK    2  A    between atoms: C17_24  and  O3_3 
REMARK    3  A    between atoms: C5_12  and  N1_5 
REMARK    4  A    between atoms: C6_13  and  N2_6 
REMARK       I    between atoms: C10_17  and  N3_7 
REMARK    5  A    between atoms: C5_12  and  C7_14 
REMARK    6  A    between atoms: C10_17  and  C6_13 
ROOT
HETATM    1  O1  UNK     1       4.014   1.326   0.102  1.00  0.00    -0.275 OA
HETATM    2  O4  UNK     1       4.231   1.436   2.376  1.00  0.00    -0.260 OA
HETATM    3  C7  UNK     1       1.212   1.486   0.462  1.00  0.00    -0.011 A 
HETATM    4  C8  UNK     1       1.782   1.387  -0.889  1.00  0.00     0.009 A 
HETATM    5  C9  UNK     1       2.040   1.501   1.516  1.00  0.00     0.092 A 
HETATM    6  C11 UNK     1       3.169   1.309  -1.025  1.00  0.00     0.090 A 
HETATM    7  C12 UNK     1       1.012   1.365  -2.059  1.00  0.00     0.051 A 
HETATM    8  C13 UNK     1       3.505   1.420   1.388  1.00  0.00     0.288 A 
HETATM    9  C14 UNK     1       3.791   1.212  -2.271  1.00  0.00     0.041 A 
HETATM   10  C15 UNK     1       1.622   1.268  -3.316  1.00  0.00     0.069 A 
HETATM   11  C16 UNK     1       3.009   1.191  -3.421  1.00  0.00     0.039 A 
ENDROOT
BRANCH   3  12
HETATM   12  C5  UNK     1      -0.264   1.571   0.641  1.00  0.00     0.312 C 
BRANCH  12  13
HETATM   13  N1  UNK     1      -0.879   0.253   0.778  1.00  0.00     0.096 N 
HETATM   14  C1  UNK     1      -2.300   0.300   0.412  1.00  0.00     0.303 C 
HETATM   15  C3  UNK     1      -2.948  -1.082   0.559  1.00  0.00     0.303 C 
HETATM   16  N2  UNK     1      -2.788  -1.591   1.926  1.00  0.00     0.100 N 
HETATM   17  C4  UNK     1      -1.367  -1.639   2.292  1.00  0.00     0.303 C 
HETATM   18  C2  UNK     1      -0.719  -0.258   2.145  1.00  0.00     0.303 C 
BRANCH  16  19
HETATM   19  C6  UNK     1      -3.405  -2.909   2.065  1.00  0.00     0.374 C 
BRANCH  19  20
HETATM   20  C10 UNK     1      -4.901  -2.719   2.167  1.00  0.00     0.243 C 
HETATM   21  O2  UNK     1      -5.420  -1.715   2.650  1.00  0.00    -0.272 OA
HETATM   22  N3  UNK     1      -5.619  -3.788   1.681  1.00  0.00    -0.369 N 
HETATM   23  H17 UNK     1      -5.174  -4.614   1.295  1.00  0.00     0.159 HD
HETATM   24  H18 UNK     1      -6.634  -3.785   1.697  1.00  0.00     0.159 HD
ENDBRANCH  19  20
ENDBRANCH  16  19
ENDBRANCH  12  13
ENDBRANCH   3  12
BRANCH  10  25
HETATM   25  O3  UNK     1       0.855   1.249  -4.441  1.00  0.00    -0.351 OA
BRANCH  25  26
HETATM   26  C17 UNK     1      -0.451   0.685  -4.326  1.00  0.00     0.171 C 
HETATM   27  C18 UNK     1      -0.849   0.090  -5.660  1.00  0.00     0.034 C 
ENDBRANCH  25  26
ENDBRANCH  10  25
TORSDOF 6
