REMARK  5 active torsions:
REMARK  status: ('A' for Active; 'I' for Inactive)
REMARK    1  A    between atoms: C17_26  and  O2_6 
REMARK    2  A    between atoms: C5_14  and  O2_6 
REMARK    3  A    between atoms: C7_16  and  N1_9 
REMARK       I    between atoms: C8_17  and  N1_9 
REMARK    4  A    between atoms: C3_12  and  C8_17 
REMARK    5  A    between atoms: C12_21  and  C18_27 
ROOT
HETATM    1  O3  UNK     1       0.968  -0.169   2.332  1.00  0.00    -0.267 OA
HETATM    2  N1  UNK     1      -0.742  -0.392   0.728  1.00  0.00    -0.323 N 
HETATM    3  C8  UNK     1       0.521  -0.052   1.192  1.00  0.00     0.262 C 
HETATM    4  H4  UNK     1      -0.963  -0.211  -0.248  1.00  0.00     0.169 HD
ENDROOT
BRANCH   3   5
HETATM    5  C3  UNK     1       1.369   0.507   0.132  1.00  0.00     0.108 A 
HETATM    6  C9  UNK     1       1.215   0.112  -1.286  1.00  0.00     0.304 A 
HETATM    7  O1  UNK     1       2.077   0.713  -2.199  1.00  0.00    -0.271 OA
HETATM    8  O4  UNK     1       0.372  -0.704  -1.645  1.00  0.00    -0.259 OA
HETATM    9  C2  UNK     1       3.049   1.650  -1.798  1.00  0.00     0.123 A 
HETATM   10  C1  UNK     1       3.177   2.006  -0.460  1.00  0.00     0.002 A 
HETATM   11  C5  UNK     1       3.867   2.197  -2.785  1.00  0.00     0.103 A 
HETATM   12  C4  UNK     1       2.290   1.397   0.519  1.00  0.00     0.037 A 
HETATM   13  C6  UNK     1       4.154   2.939  -0.101  1.00  0.00     0.014 A 
HETATM   14  C11 UNK     1       4.982   3.496  -1.080  1.00  0.00     0.004 A 
HETATM   15  C10 UNK     1       4.839   3.126  -2.418  1.00  0.00     0.040 A 
BRANCH  11  16
HETATM   16  O2  UNK     1       3.732   1.839  -4.090  1.00  0.00    -0.349 OA
BRANCH  16  17
HETATM   17  C17 UNK     1       4.070   2.819  -5.071  1.00  0.00     0.171 C 
HETATM   18  C19 UNK     1       3.233   2.584  -6.311  1.00  0.00     0.034 C 
ENDBRANCH  16  17
ENDBRANCH  11  16
ENDBRANCH   3   5
BRANCH   2  19
HETATM   19  C7  UNK     1      -1.811  -0.954   1.468  1.00  0.00     0.035 A 
HETATM   20  C13 UNK     1      -3.007  -1.227   0.827  1.00  0.00     0.047 A 
HETATM   21  C12 UNK     1      -4.060  -1.781   1.555  1.00  0.00     0.071 A 
HETATM   22  C15 UNK     1      -3.901  -2.054   2.914  1.00  0.00     0.049 A 
HETATM   23 Cl1  UNK     1      -5.181  -2.738   3.848  1.00  0.00    -0.083 Cl
HETATM   24  C16 UNK     1      -2.688  -1.772   3.544  1.00  0.00     0.027 A 
HETATM   25  C14 UNK     1      -1.636  -1.219   2.815  1.00  0.00     0.031 A 
BRANCH  21  26
HETATM   26  C18 UNK     1      -5.343  -2.068   0.843  1.00  0.00     0.419 C 
HETATM   27  F1  UNK     1      -5.317  -1.737  -0.480  1.00  0.00    -0.166 F 
HETATM   28  F2  UNK     1      -5.701  -3.384   0.877  1.00  0.00    -0.166 F 
HETATM   29  F3  UNK     1      -6.398  -1.385   1.373  1.00  0.00    -0.166 F 
ENDBRANCH  21  26
ENDBRANCH   2  19
TORSDOF 5
