REMARK  1 active torsions:
REMARK  status: ('A' for Active; 'I' for Inactive)
REMARK       I    between atoms: C5_10  and  N1_5 
REMARK    1  A    between atoms: C5_10  and  C8_13 
ROOT
HETATM    1 Br1  UNK     1      -3.882  -1.596   5.010  1.00  0.00    -0.051 Br
HETATM    2  O1  UNK     1      -2.473  -1.626  -0.891  1.00  0.00    -0.274 OA
HETATM    3  O3  UNK     1      -1.301  -0.770  -2.655  1.00  0.00    -0.259 OA
HETATM    4  C8  UNK     1      -0.935   0.243  -0.545  1.00  0.00     0.108 A 
HETATM    5  C11 UNK     1      -1.225   0.276   0.761  1.00  0.00     0.037 A 
HETATM    6  C12 UNK     1      -2.179  -0.667   1.324  1.00  0.00     0.000 A 
HETATM    7  C13 UNK     1      -1.564  -0.737  -1.458  1.00  0.00     0.304 A 
HETATM    8  C14 UNK     1      -2.782  -1.597   0.483  1.00  0.00     0.089 A 
HETATM    9  C15 UNK     1      -2.511  -0.670   2.681  1.00  0.00     0.033 A 
HETATM   10  C16 UNK     1      -3.703  -2.528   0.959  1.00  0.00     0.039 A 
HETATM   11  C17 UNK     1      -3.434  -1.597   3.173  1.00  0.00     0.011 A 
HETATM   12  C18 UNK     1      -4.029  -2.524   2.314  1.00  0.00     0.022 A 
ENDROOT
BRANCH   4  13
HETATM   13  C5  UNK     1       0.047   1.242  -1.022  1.00  0.00     0.264 C 
HETATM   14  O2  UNK     1      -0.387   2.328  -1.402  1.00  0.00    -0.267 OA
HETATM   15  N1  UNK     1       1.375   0.850  -0.992  1.00  0.00    -0.313 N 
HETATM   16  C1  UNK     1       1.902  -0.456  -0.535  1.00  0.00     0.137 A 
HETATM   17  C4  UNK     1       2.470   1.644  -1.401  1.00  0.00     0.043 A 
HETATM   18  C2  UNK     1       3.427  -0.428  -0.686  1.00  0.00     0.061 A 
HETATM   19  C3  UNK     1       3.664   0.939  -1.238  1.00  0.00    -0.030 A 
HETATM   20  C6  UNK     1       4.887   1.502  -1.569  1.00  0.00     0.009 A 
HETATM   21  C9  UNK     1       4.905   2.801  -2.074  1.00  0.00     0.001 A 
HETATM   22  C10 UNK     1       3.710   3.513  -2.240  1.00  0.00     0.002 A 
HETATM   23  C7  UNK     1       2.481   2.938  -1.904  1.00  0.00     0.030 A 
ENDBRANCH   4  13
TORSDOF 1
