REMARK  4 active torsions:
REMARK  status: ('A' for Active; 'I' for Inactive)
REMARK    1  A    between atoms: C8_14  and  O2_2 
REMARK    2  A    between atoms: C12_18  and  O3_3 
REMARK    3  A    between atoms: C10_16  and  N1_6 
REMARK       I    between atoms: C7_13  and  N1_6 
REMARK    4  A    between atoms: C3_9  and  C7_13 
ROOT
HETATM    1  O1  UNK     1       2.192   0.679   0.067  1.00  0.00    -0.274 OA
HETATM    2  O5  UNK     1       0.781  -0.521   1.406  1.00  0.00    -0.259 OA
HETATM    3  C1  UNK     1       1.514   1.229  -2.202  1.00  0.00    -0.001 A 
HETATM    4  C2  UNK     1       2.453   1.286  -1.177  1.00  0.00     0.092 A 
HETATM    5  C3  UNK     1       0.016  -0.043  -0.785  1.00  0.00     0.108 A 
HETATM    6  C4  UNK     1       0.258   0.532  -1.969  1.00  0.00     0.037 A 
HETATM    7  C5  UNK     1       1.810   1.842  -3.422  1.00  0.00     0.017 A 
HETATM    8  C6  UNK     1       3.674   1.937  -1.336  1.00  0.00     0.075 A 
HETATM    9  C8  UNK     1       3.961   2.547  -2.555  1.00  0.00     0.070 A 
HETATM   10  C9  UNK     1       1.000   0.005   0.320  1.00  0.00     0.304 A 
HETATM   11  C11 UNK     1       3.031   2.500  -3.596  1.00  0.00     0.038 A 
ENDROOT
BRANCH   5  12
HETATM   12  C7  UNK     1      -1.278  -0.722  -0.646  1.00  0.00     0.262 C 
HETATM   13  O4  UNK     1      -1.812  -1.225  -1.634  1.00  0.00    -0.267 OA
HETATM   14  N1  UNK     1      -1.746  -0.697   0.660  1.00  0.00    -0.320 N 
HETATM   15  H5  UNK     1      -1.192  -0.215   1.364  1.00  0.00     0.169 HD
BRANCH  14  16
HETATM   16  C10 UNK     1      -2.951  -1.249   1.157  1.00  0.00     0.068 A 
HETATM   17  C12 UNK     1      -3.265  -1.131   2.501  1.00  0.00     0.095 A 
HETATM   18  C14 UNK     1      -4.456  -1.679   2.975  1.00  0.00     0.039 A 
HETATM   19  C16 UNK     1      -5.318  -2.338   2.098  1.00  0.00     0.003 A 
HETATM   20  C15 UNK     1      -4.989  -2.449   0.748  1.00  0.00     0.002 A 
HETATM   21  C13 UNK     1      -3.797  -1.901   0.273  1.00  0.00     0.032 A 
BRANCH  17  22
HETATM   22  O3  UNK     1      -2.435  -0.492   3.374  1.00  0.00    -0.354 OA
HETATM   23  C18 UNK     1      -1.444  -1.285   4.024  1.00  0.00     0.210 C 
ENDBRANCH  17  22
ENDBRANCH  14  16
ENDBRANCH   5  12
BRANCH   9  24
HETATM   24  O2  UNK     1       5.147   3.189  -2.732  1.00  0.00    -0.356 OA
HETATM   25  C17 UNK     1       6.051   3.200  -1.628  1.00  0.00     0.210 C 
ENDBRANCH   9  24
TORSDOF 4
