REMARK  5 active torsions:
REMARK  status: ('A' for Active; 'I' for Inactive)
REMARK    1  A    between atoms: C4_10  and  N1_5 
REMARK    2  A    between atoms: C7_13  and  N2_6 
REMARK       I    between atoms: C8_14  and  N2_6 
REMARK    3  A    between atoms: C4_10  and  C6_12 
REMARK    4  A    between atoms: C6_12  and  C7_13 
REMARK    5  A    between atoms: C8_14  and  C9_15 
ROOT
HETATM    1  O3  UNK     1      -1.022  -0.094  -2.960  1.00  0.00    -0.267 OA
HETATM    2  N2  UNK     1      -1.525  -0.003  -0.685  1.00  0.00    -0.357 N 
HETATM    3  C8  UNK     1      -0.709   0.136  -1.793  1.00  0.00     0.257 C 
HETATM    4  H13 UNK     1      -1.179   0.236   0.238  1.00  0.00     0.162 HD
ENDROOT
BRANCH   3   5
HETATM    5  C9  UNK     1       0.639   0.608  -1.454  1.00  0.00     0.108 A 
HETATM    6  C11 UNK     1       1.262   1.338  -2.387  1.00  0.00     0.037 A 
HETATM    7  C10 UNK     1       2.601   1.850  -2.143  1.00  0.00    -0.001 A 
HETATM    8  C12 UNK     1       3.219   1.569  -0.928  1.00  0.00     0.089 A 
HETATM    9  C14 UNK     1       3.289   2.616  -3.087  1.00  0.00     0.014 A 
HETATM   10  O2  UNK     1       2.558   0.800   0.049  1.00  0.00    -0.274 OA
HETATM   11  C15 UNK     1       4.500   2.029  -0.633  1.00  0.00     0.038 A 
HETATM   12  C13 UNK     1       1.277   0.296  -0.155  1.00  0.00     0.304 A 
HETATM   13  O4  UNK     1       0.709  -0.373   0.702  1.00  0.00    -0.259 OA
HETATM   14  C17 UNK     1       5.179   2.792  -1.580  1.00  0.00     0.003 A 
HETATM   15  C16 UNK     1       4.575   3.086  -2.805  1.00  0.00     0.001 A 
ENDBRANCH   3   5
BRANCH   2  16
HETATM   16  C7  UNK     1      -2.897  -0.451  -0.768  1.00  0.00     0.124 C 
BRANCH  16  17
HETATM   17  C6  UNK     1      -3.025  -1.969  -0.653  1.00  0.00     0.039 C 
BRANCH  17  18
HETATM   18  C4  UNK     1      -2.467  -2.538   0.649  1.00  0.00     0.127 C 
BRANCH  18  19
HETATM   19  N1  UNK     1      -3.110  -1.981   1.819  1.00  0.00    -0.352 N 
HETATM   20  C1  UNK     1      -4.539  -2.061   2.007  1.00  0.00     0.126 C 
HETATM   21  C2  UNK     1      -4.715  -1.696   3.468  1.00  0.00     0.029 C 
HETATM   22  C3  UNK     1      -3.557  -0.746   3.749  1.00  0.00     0.104 C 
HETATM   23  C5  UNK     1      -2.481  -1.215   2.798  1.00  0.00     0.219 C 
HETATM   24  O1  UNK     1      -1.299  -0.916   2.883  1.00  0.00    -0.273 OA
ENDBRANCH  18  19
ENDBRANCH  17  18
ENDBRANCH  16  17
ENDBRANCH   2  16
TORSDOF 5
