REMARK  5 active torsions:
REMARK  status: ('A' for Active; 'I' for Inactive)
REMARK    1  A    between atoms: C5_11  and  N1_4 
REMARK    2  A    between atoms: C6_12  and  N2_5 
REMARK    3  A    between atoms: C5_11  and  C7_13 
REMARK    4  A    between atoms: C6_12  and  C8_14 
REMARK    5  A    between atoms: C14_20  and  C20_26 
ROOT
HETATM    1  N1  UNK     1      -1.863  -1.396  -0.346  1.00  0.00     0.096 N 
HETATM    2  N2  UNK     1      -0.462   0.226  -2.286  1.00  0.00     0.097 N 
HETATM    3  C1  UNK     1      -2.077  -1.576  -1.788  1.00  0.00     0.303 C 
HETATM    4  C2  UNK     1      -0.505  -0.902  -0.088  1.00  0.00     0.303 C 
HETATM    5  C3  UNK     1      -1.819  -0.269  -2.545  1.00  0.00     0.303 C 
HETATM    6  C4  UNK     1      -0.247   0.405  -0.845  1.00  0.00     0.303 C 
ENDROOT
BRANCH   2   7
HETATM    7  C6  UNK     1      -0.219   1.475  -3.007  1.00  0.00     0.334 C 
BRANCH   7   8
HETATM    8  C8  UNK     1       1.253   1.657  -3.194  1.00  0.00     0.095 A 
HETATM    9  C10 UNK     1       2.051   1.238  -4.229  1.00  0.00     0.078 A 
HETATM   10  O1  UNK     1       3.326   1.634  -3.962  1.00  0.00    -0.294 OA
HETATM   11  C16 UNK     1       1.827   0.501  -5.478  1.00  0.00     0.079 C 
HETATM   12  C14 UNK     1       3.217   2.276  -2.767  1.00  0.00     0.180 A 
HETATM   13  N3  UNK     1       2.006   2.322  -2.260  1.00  0.00    -0.224 NA
BRANCH  12  14
HETATM   14  C20 UNK     1       4.445   2.806  -2.243  1.00  0.00     0.017 A 
HETATM   15  C22 UNK     1       5.634   2.643  -2.953  1.00  0.00     0.016 A 
HETATM   16  C24 UNK     1       6.827   3.157  -2.444  1.00  0.00     0.007 A 
HETATM   17  C26 UNK     1       6.830   3.835  -1.225  1.00  0.00    -0.062 A 
HETATM   18  C25 UNK     1       5.641   3.997  -0.514  1.00  0.00     0.007 A 
HETATM   19  C27 UNK     1       8.105   4.385  -0.681  1.00  0.00     0.048 C 
HETATM   20  C23 UNK     1       4.448   3.483  -1.023  1.00  0.00     0.016 A 
ENDBRANCH  12  14
ENDBRANCH   7   8
ENDBRANCH   2   7
BRANCH   1  21
HETATM   21  C5  UNK     1      -2.108  -2.643   0.375  1.00  0.00     0.312 C 
BRANCH  21  22
HETATM   22  C7  UNK     1      -2.440  -2.409   1.808  1.00  0.00    -0.011 A 
HETATM   23  C11 UNK     1      -1.481  -2.362   2.743  1.00  0.00     0.092 A 
HETATM   24  C15 UNK     1      -1.761  -2.132   4.170  1.00  0.00     0.288 A 
HETATM   25  O2  UNK     1      -3.090  -1.961   4.524  1.00  0.00    -0.275 OA
HETATM   26  O3  UNK     1      -0.857  -2.096   4.998  1.00  0.00    -0.260 OA
HETATM   27  C12 UNK     1      -4.120  -2.004   3.563  1.00  0.00     0.090 A 
HETATM   28  C9  UNK     1      -3.839  -2.223   2.214  1.00  0.00     0.006 A 
HETATM   29  C17 UNK     1      -5.421  -1.819   4.034  1.00  0.00     0.045 A 
HETATM   30  C13 UNK     1      -4.920  -2.253   1.322  1.00  0.00     0.015 A 
HETATM   31  C18 UNK     1      -6.230  -2.069   1.778  1.00  0.00     0.007 A 
HETATM   32  C19 UNK     1      -6.480  -1.852   3.132  1.00  0.00    -0.059 A 
HETATM   33  C21 UNK     1      -7.878  -1.656   3.612  1.00  0.00     0.048 C 
ENDBRANCH  21  22
ENDBRANCH   1  21
TORSDOF 5
