REMARK  2 active torsions:
REMARK  status: ('A' for Active; 'I' for Inactive)
REMARK    1  A    between atoms: C16_22  and  N2_6 
REMARK       I    between atoms: C17_23  and  N2_6 
REMARK    2  A    between atoms: C11_17  and  C6_12 
ROOT
HETATM    1  O1  UNK     1       1.593   0.290   1.462  1.00  0.00    -0.274 OA
HETATM    2  O2  UNK     1      -0.107  -0.946   2.338  1.00  0.00    -0.259 OA
HETATM    3  C1  UNK     1       1.601   0.923  -0.897  1.00  0.00     0.010 A 
HETATM    4  C2  UNK     1       2.260   1.575  -1.979  1.00  0.00    -0.013 A 
HETATM    5  C3  UNK     1       3.511   2.208  -1.732  1.00  0.00    -0.025 A 
HETATM    6  C4  UNK     1       2.201   0.925   0.361  1.00  0.00     0.090 A 
HETATM    7  C5  UNK     1       0.312   0.239  -1.007  1.00  0.00     0.035 A 
HETATM    8  C6  UNK     1      -0.282  -0.372   0.032  1.00  0.00     0.070 A 
HETATM    9  C7  UNK     1       4.072   2.182  -0.446  1.00  0.00     0.015 A 
HETATM   10  C8  UNK     1       3.422   1.543   0.601  1.00  0.00     0.039 A 
HETATM   11  C9  UNK     1       1.756   1.642  -3.302  1.00  0.00     0.013 A 
HETATM   12  C10 UNK     1       4.192   2.862  -2.772  1.00  0.00     0.012 A 
HETATM   13  C12 UNK     1       0.380  -0.378   1.365  1.00  0.00     0.301 A 
HETATM   14  C13 UNK     1       2.448   2.297  -4.324  1.00  0.00     0.001 A 
HETATM   15  C14 UNK     1       3.665   2.906  -4.059  1.00  0.00     0.001 A 
ENDROOT
BRANCH   8  16
HETATM   16  C11 UNK     1      -1.556  -1.035  -0.100  1.00  0.00     0.082 A 
HETATM   17  N1  UNK     1      -2.399  -1.086   0.988  1.00  0.00    -0.223 NA
HETATM   18  C16 UNK     1      -3.491  -1.730   0.640  1.00  0.00     0.173 A 
HETATM   19  S1  UNK     1      -3.562  -2.295  -0.978  1.00  0.00    -0.061 SA
HETATM   20  C15 UNK     1      -2.006  -1.630  -1.254  1.00  0.00     0.086 A 
BRANCH  18  21
HETATM   21  N2  UNK     1      -4.584  -2.006   1.418  1.00  0.00    -0.306 N 
HETATM   22  C17 UNK     1      -4.816  -1.676   2.776  1.00  0.00     0.219 C 
HETATM   23  O3  UNK     1      -4.057  -1.064   3.522  1.00  0.00    -0.274 OA
HETATM   24  C18 UNK     1      -6.157  -2.160   3.269  1.00  0.00     0.117 C 
HETATM   25  H9  UNK     1      -5.319  -2.518   0.937  1.00  0.00     0.171 HD
ENDBRANCH  18  21
ENDBRANCH   8  16
TORSDOF 2
