REMARK  5 active torsions:
REMARK  status: ('A' for Active; 'I' for Inactive)
REMARK    1  A    between atoms: C5_12  and  N1_5 
REMARK    2  A    between atoms: C6_13  and  N2_6 
REMARK    3  A    between atoms: C17_24  and  N3_7 
REMARK       I    between atoms: C9_16  and  N3_7 
REMARK    4  A    between atoms: C5_12  and  C7_14 
REMARK    5  A    between atoms: C6_13  and  C9_16 
ROOT
HETATM    1  N1  UNK     1       1.430  -0.228  -1.774  1.00  0.00     0.096 N 
HETATM    2  N2  UNK     1      -1.147  -1.336  -1.074  1.00  0.00     0.100 N 
HETATM    3  C1  UNK     1       1.083  -0.528  -0.380  1.00  0.00     0.303 C 
HETATM    4  C2  UNK     1       0.714  -1.129  -2.686  1.00  0.00     0.303 C 
HETATM    5  C3  UNK     1      -0.432  -0.433  -0.163  1.00  0.00     0.303 C 
HETATM    6  C4  UNK     1      -0.800  -1.036  -2.468  1.00  0.00     0.303 C 
ENDROOT
BRANCH   1   7
HETATM    7  C5  UNK     1       2.874  -0.321  -1.980  1.00  0.00     0.312 C 
BRANCH   7   8
HETATM    8  C7  UNK     1       3.596   0.869  -1.450  1.00  0.00    -0.011 A 
HETATM    9  C10 UNK     1       4.043   0.903  -0.187  1.00  0.00     0.092 A 
HETATM   10  C13 UNK     1       4.761   2.057   0.380  1.00  0.00     0.288 A 
HETATM   11  O1  UNK     1       4.964   3.139  -0.462  1.00  0.00    -0.275 OA
HETATM   12  O3  UNK     1       5.156   2.052   1.541  1.00  0.00    -0.260 OA
HETATM   13  C11 UNK     1       4.505   3.133  -1.794  1.00  0.00     0.090 A 
HETATM   14  C8  UNK     1       3.826   2.032  -2.318  1.00  0.00     0.006 A 
HETATM   15  C14 UNK     1       4.766   4.277  -2.550  1.00  0.00     0.045 A 
HETATM   16  C12 UNK     1       3.402   2.104  -3.652  1.00  0.00     0.015 A 
HETATM   17  C16 UNK     1       3.656   3.245  -4.422  1.00  0.00     0.007 A 
HETATM   18  C15 UNK     1       4.337   4.330  -3.872  1.00  0.00    -0.059 A 
HETATM   19  C19 UNK     1       4.604   5.541  -4.699  1.00  0.00     0.048 C 
ENDBRANCH   7   8
ENDBRANCH   1   7
BRANCH   2  20
HETATM   20  C6  UNK     1      -2.591  -1.245  -0.867  1.00  0.00     0.375 C 
BRANCH  20  21
HETATM   21  C9  UNK     1      -2.971  -2.014   0.387  1.00  0.00     0.250 C 
HETATM   22  O2  UNK     1      -2.342  -2.992   0.779  1.00  0.00    -0.271 OA
HETATM   23  N3  UNK     1      -4.093  -1.440   0.982  1.00  0.00    -0.325 N 
HETATM   24  H15 UNK     1      -4.494  -0.629   0.519  1.00  0.00     0.169 HD
BRANCH  23  25
HETATM   25  C17 UNK     1      -4.755  -1.860   2.160  1.00  0.00     0.041 A 
HETATM   26  C18 UNK     1      -5.874  -1.175   2.633  1.00  0.00    -0.032 A 
HETATM   27  C21 UNK     1      -6.513  -1.604   3.798  1.00  0.00     0.051 A 
HETATM   28  C22 UNK     1      -6.410   0.020   1.915  1.00  0.00     0.050 C 
HETATM   29  C24 UNK     1      -6.031  -2.716   4.488  1.00  0.00     0.117 A 
HETATM   30  C23 UNK     1      -4.912  -3.400   4.015  1.00  0.00     0.044 A 
HETATM   31  F1  UNK     1      -6.644  -3.126   5.606  1.00  0.00    -0.206 F 
HETATM   32  C20 UNK     1      -4.273  -2.972   2.851  1.00  0.00     0.033 A 
ENDBRANCH  23  25
ENDBRANCH  20  21
ENDBRANCH   2  20
TORSDOF 5
