REMARK  4 active torsions:
REMARK  status: ('A' for Active; 'I' for Inactive)
REMARK    1  A    between atoms: C5_11  and  N1_3 
REMARK    2  A    between atoms: C8_14  and  N2_4 
REMARK    3  A    between atoms: C5_11  and  C6_12 
REMARK    4  A    between atoms: C12_18  and  C16_22 
ROOT
HETATM    1  O1  UNK     1       2.488   0.808  -3.755  1.00  0.00    -0.275 OA
HETATM    2  O2  UNK     1       0.755   0.543  -5.223  1.00  0.00    -0.260 OA
HETATM    3  C6  UNK     1       0.596   1.645  -1.825  1.00  0.00    -0.011 A 
HETATM    4  C7  UNK     1       2.025   1.585  -1.486  1.00  0.00     0.007 A 
HETATM    5  C9  UNK     1       0.208   1.297  -3.060  1.00  0.00     0.092 A 
HETATM    6  C10 UNK     1       2.927   1.167  -2.465  1.00  0.00     0.090 A 
HETATM    7  C11 UNK     1       2.541   1.924  -0.228  1.00  0.00     0.022 A 
HETATM    8  C12 UNK     1       3.915   1.843   0.027  1.00  0.00    -0.058 A 
HETATM    9  C13 UNK     1       1.148   0.854  -4.104  1.00  0.00     0.288 A 
HETATM   10  C14 UNK     1       4.300   1.081  -2.226  1.00  0.00     0.039 A 
HETATM   11  C15 UNK     1       4.793   1.422  -0.970  1.00  0.00     0.010 A 
ENDROOT
BRANCH   3  12
HETATM   12  C5  UNK     1      -0.400   2.090  -0.795  1.00  0.00     0.312 C 
BRANCH  12  13
HETATM   13  N1  UNK     1      -0.821   0.876  -0.098  1.00  0.00     0.095 N 
HETATM   14  C1  UNK     1      -1.825   0.151  -0.886  1.00  0.00     0.293 C 
HETATM   15  C3  UNK     1      -2.233  -1.152  -0.194  1.00  0.00     0.171 C 
HETATM   16  N2  UNK     1      -2.667  -0.889   1.182  1.00  0.00    -0.211 N 
HETATM   17  C4  UNK     1      -1.758  -0.063   1.988  1.00  0.00     0.171 C 
HETATM   18  C2  UNK     1      -1.367   1.205   1.225  1.00  0.00     0.293 C 
BRANCH  16  19
HETATM   19  C8  UNK     1      -3.470  -1.822   1.847  1.00  0.00     0.724 A 
HETATM   20  N3  UNK     1      -3.830  -1.516   3.108  1.00  0.00    -0.075 NA
HETATM   21  C17 UNK     1      -4.604  -2.437   3.718  1.00  0.00     0.138 A 
HETATM   22  C20 UNK     1      -5.011  -3.613   3.122  1.00  0.00     0.040 A 
HETATM   23  C18 UNK     1      -4.575  -3.809   1.828  1.00  0.00     0.138 A 
HETATM   24  N4  UNK     1      -3.801  -2.931   1.157  1.00  0.00    -0.075 NA
ENDBRANCH  16  19
ENDBRANCH  12  13
ENDBRANCH   3  12
BRANCH   8  25
HETATM   25  C16 UNK     1       4.442   2.209   1.374  1.00  0.00     0.034 C 
HETATM   26  C19 UNK     1       4.489   1.014   2.322  1.00  0.00     0.010 C 
ENDBRANCH   8  25
TORSDOF 4
