REMARK  4 active torsions:
REMARK  status: ('A' for Active; 'I' for Inactive)
REMARK    1  A    between atoms: C6_14  and  O2_4 
REMARK    2  A    between atoms: C13_21  and  O3_5 
REMARK    3  A    between atoms: C3_11  and  N1_8 
REMARK       I    between atoms: C7_15  and  N1_8 
REMARK    4  A    between atoms: C2_10  and  C7_15 
ROOT
HETATM    1  O4  UNK     1      -1.278   0.440  -1.709  1.00  0.00    -0.267 OA
HETATM    2  N1  UNK     1      -0.673  -0.326   0.434  1.00  0.00    -0.320 N 
HETATM    3  C7  UNK     1      -0.486   0.329  -0.775  1.00  0.00     0.262 C 
HETATM    4  H2  UNK     1       0.097  -0.347   1.098  1.00  0.00     0.169 HD
ENDROOT
BRANCH   3   5
HETATM    5  C2  UNK     1       0.846   0.939  -0.874  1.00  0.00     0.108 A 
HETATM    6  C10 UNK     1       1.578   1.425   0.317  1.00  0.00     0.304 A 
HETATM    7  O1  UNK     1       2.833   1.985   0.095  1.00  0.00    -0.274 OA
HETATM    8  O5  UNK     1       1.106   1.342   1.446  1.00  0.00    -0.259 OA
HETATM    9  C4  UNK     1       3.383   2.086  -1.198  1.00  0.00     0.089 A 
HETATM   10  C1  UNK     1       2.679   1.622  -2.304  1.00  0.00     0.000 A 
HETATM   11  C12 UNK     1       4.647   2.660  -1.320  1.00  0.00     0.039 A 
HETATM   12  C5  UNK     1       1.364   1.032  -2.105  1.00  0.00     0.037 A 
HETATM   13  C8  UNK     1       3.259   1.739  -3.570  1.00  0.00     0.033 A 
HETATM   14  C15 UNK     1       4.525   2.314  -3.708  1.00  0.00     0.011 A 
HETATM   15 Br1  UNK     1       5.305   2.471  -5.424  1.00  0.00    -0.051 Br
HETATM   16  C16 UNK     1       5.218   2.773  -2.586  1.00  0.00     0.022 A 
ENDBRANCH   3   5
BRANCH   2  17
HETATM   17  C3  UNK     1      -1.828  -1.020   0.870  1.00  0.00     0.070 A 
HETATM   18  C6  UNK     1      -1.843  -1.621   2.119  1.00  0.00     0.097 A 
HETATM   19  C11 UNK     1      -2.987  -2.301   2.535  1.00  0.00     0.077 A 
HETATM   20  C13 UNK     1      -4.100  -2.371   1.697  1.00  0.00     0.092 A 
HETATM   21  C14 UNK     1      -4.069  -1.761   0.443  1.00  0.00     0.069 A 
HETATM   22 Cl1  UNK     1      -5.432  -1.833  -0.613  1.00  0.00    -0.081 Cl
HETATM   23  C9  UNK     1      -2.925  -1.081   0.027  1.00  0.00     0.059 A 
BRANCH  18  24
HETATM   24  O2  UNK     1      -0.766  -1.564   2.952  1.00  0.00    -0.354 OA
HETATM   25  C17 UNK     1      -0.706  -0.465   3.858  1.00  0.00     0.210 C 
ENDBRANCH  18  24
BRANCH  20  26
HETATM   26  O3  UNK     1      -5.205  -3.044   2.129  1.00  0.00    -0.354 OA
HETATM   27  C18 UNK     1      -6.182  -2.291   2.845  1.00  0.00     0.210 C 
ENDBRANCH  20  26
ENDBRANCH   2  17
TORSDOF 4
