REMARK  3 active torsions:
REMARK  status: ('A' for Active; 'I' for Inactive)
REMARK    1  A    between atoms: C5_10  and  S1_1 
REMARK    2  A    between atoms: C5_10  and  N1_5 
REMARK    3  A    between atoms: C9_14  and  N1_5 
ROOT
HETATM    1  O1  UNK     1       0.858   0.721  -2.695  1.00  0.00    -0.274 OA
HETATM    2  O2  UNK     1       1.806   1.224   1.266  1.00  0.00    -0.286 OA
HETATM    3  O3  UNK     1      -1.206  -0.109  -2.186  1.00  0.00    -0.259 OA
HETATM    4  C1  UNK     1       2.461   1.427  -0.979  1.00  0.00     0.049 A 
HETATM    5  C2  UNK     1       0.216   0.527  -0.375  1.00  0.00     0.124 A 
HETATM    6  C3  UNK     1       2.107   1.243  -2.309  1.00  0.00     0.093 A 
HETATM    7  C4  UNK     1       1.515   1.072   0.087  1.00  0.00     0.203 A 
HETATM    8  C5  UNK     1      -0.691   0.183   0.550  1.00  0.00     0.088 C 
HETATM    9  C6  UNK     1       3.719   1.950  -0.666  1.00  0.00     0.018 A 
HETATM   10  C7  UNK     1      -0.134   0.342  -1.799  1.00  0.00     0.305 A 
HETATM   11  C8  UNK     1       2.989   1.573  -3.339  1.00  0.00     0.038 A 
HETATM   12  C10 UNK     1       4.607   2.283  -1.692  1.00  0.00     0.001 A 
HETATM   13  C11 UNK     1       4.243   2.094  -3.026  1.00  0.00     0.003 A 
ENDROOT
BRANCH   8  14
HETATM   14  S1  UNK     1      -0.230   0.546   2.225  1.00  0.00    -0.124 SA
HETATM   15  H11 UNK     1      -1.442   0.435   2.787  1.00  0.00     0.108 HD
ENDBRANCH   8  14
BRANCH   8  16
HETATM   16  N1  UNK     1      -1.953  -0.341   0.301  1.00  0.00    -0.350 N 
HETATM   17  H3  UNK     1      -2.329  -0.135  -0.620  1.00  0.00     0.166 HD
BRANCH  16  18
HETATM   18  C9  UNK     1      -2.789  -1.167   1.076  1.00  0.00     0.032 A 
HETATM   19  C12 UNK     1      -4.176  -1.022   1.007  1.00  0.00     0.029 A 
HETATM   20  C14 UNK     1      -5.004  -1.840   1.775  1.00  0.00     0.002 A 
HETATM   21  C16 UNK     1      -4.446  -2.806   2.613  1.00  0.00     0.000 A 
HETATM   22  C15 UNK     1      -3.061  -2.953   2.683  1.00  0.00     0.002 A 
HETATM   23  C13 UNK     1      -2.233  -2.135   1.915  1.00  0.00     0.029 A 
ENDBRANCH  16  18
ENDBRANCH   8  16
TORSDOF 3
