REMARK  6 active torsions:
REMARK  status: ('A' for Active; 'I' for Inactive)
REMARK    1  A    between atoms: C3_9  and  O1_1 
REMARK    2  A    between atoms: C7_13  and  O1_1 
REMARK       I    between atoms: C20_26  and  N1_5 
REMARK    3  A    between atoms: N1_5  and  N2_6 
REMARK    4  A    between atoms: C3_9  and  C4_10 
REMARK    5  A    between atoms: C19_25  and  C6_12 
REMARK    6  A    between atoms: C20_26  and  C9_15 
ROOT
HETATM    1  O4  UNK     1      -0.382   0.308  -2.758  1.00  0.00    -0.266 OA
HETATM    2  N1  UNK     1       0.266   0.460  -0.540  1.00  0.00    -0.243 N 
HETATM    3  C20 UNK     1       0.424   0.656  -1.899  1.00  0.00     0.271 C 
HETATM    4  H18 UNK     1       0.965   0.702   0.154  1.00  0.00     0.192 HD
ENDROOT
BRANCH   2   5
HETATM    5  N2  UNK     1      -0.856  -0.161  -0.103  1.00  0.00    -0.183 NA
HETATM    6  C19 UNK     1      -0.900  -0.328   1.179  1.00  0.00     0.156 C 
BRANCH   6   7
HETATM    7  C6  UNK     1      -2.027  -0.978   1.848  1.00  0.00     0.056 A 
HETATM    8  C15 UNK     1      -1.978  -1.104   3.178  1.00  0.00     0.159 A 
HETATM    9  O2  UNK     1      -2.938  -1.683   3.974  1.00  0.00    -0.321 OA
HETATM   10  C2  UNK     1      -4.058  -2.184   3.357  1.00  0.00     0.089 A 
HETATM   11  C1  UNK     1      -4.249  -2.126   1.976  1.00  0.00     0.049 A 
HETATM   12  C10 UNK     1      -5.027  -2.770   4.173  1.00  0.00     0.038 A 
HETATM   13  C5  UNK     1      -3.212  -1.502   1.134  1.00  0.00     0.198 A 
HETATM   14  C8  UNK     1      -5.409  -2.653   1.403  1.00  0.00     0.018 A 
HETATM   15  O3  UNK     1      -3.328  -1.422  -0.082  1.00  0.00    -0.286 OA
HETATM   16  C17 UNK     1      -6.376  -3.238   2.221  1.00  0.00     0.001 A 
HETATM   17  C18 UNK     1      -6.186  -3.296   3.603  1.00  0.00     0.003 A 
ENDBRANCH   6   7
ENDBRANCH   2   5
BRANCH   3  18
HETATM   18  C9  UNK     1       1.686   1.323  -2.313  1.00  0.00     0.033 A 
HETATM   19  C13 UNK     1       2.191   1.069  -3.571  1.00  0.00     0.020 A 
HETATM   20  C11 UNK     1       3.376   1.696  -3.960  1.00  0.00     0.038 A 
HETATM   21  C7  UNK     1       4.028   2.562  -3.083  1.00  0.00     0.068 A 
HETATM   22  C12 UNK     1       3.496   2.801  -1.816  1.00  0.00     0.038 A 
HETATM   23  C14 UNK     1       2.312   2.175  -1.426  1.00  0.00     0.020 A 
BRANCH  21  24
HETATM   24  O1  UNK     1       5.182   3.174  -3.463  1.00  0.00    -0.351 OA
BRANCH  24  25
HETATM   25  C3  UNK     1       6.123   3.482  -2.435  1.00  0.00     0.175 C 
BRANCH  25  26
HETATM   26  C4  UNK     1       7.524   3.458  -3.028  1.00  0.00     0.022 C 
HETATM   27  C16 UNK     1       8.584   3.764  -1.985  1.00  0.00     0.007 C 
ENDBRANCH  25  26
ENDBRANCH  24  25
ENDBRANCH  21  24
ENDBRANCH   3  18
TORSDOF 6
