REMARK  1 active torsions:
REMARK  status: ('A' for Active; 'I' for Inactive)
REMARK       I    between atoms: C10_14  and  N1_4 
REMARK    1  A    between atoms: C10_14  and  C4_8 
ROOT
HETATM    1  O1  UNK     1      -0.584   0.071  -1.755  1.00  0.00    -0.274 OA
HETATM    2  O2  UNK     1      -2.573  -0.905  -1.197  1.00  0.00    -0.259 OA
HETATM    3  C1  UNK     1       1.010   0.633  -0.007  1.00  0.00    -0.001 A 
HETATM    4  C2  UNK     1       0.656   0.605  -1.353  1.00  0.00     0.089 A 
HETATM    5  C3  UNK     1       0.079   0.102   0.977  1.00  0.00     0.037 A 
HETATM    6  C4  UNK     1      -1.098  -0.403   0.588  1.00  0.00     0.108 A 
HETATM    7  C5  UNK     1       2.248   1.170   0.353  1.00  0.00     0.014 A 
HETATM    8  C6  UNK     1       1.501   1.097  -2.344  1.00  0.00     0.038 A 
HETATM    9  C7  UNK     1      -1.496  -0.444  -0.837  1.00  0.00     0.304 A 
HETATM   10  C8  UNK     1       3.107   1.667  -0.631  1.00  0.00     0.001 A 
HETATM   11  C9  UNK     1       2.734   1.631  -1.977  1.00  0.00     0.003 A 
ENDROOT
BRANCH   6  12
HETATM   12  C10 UNK     1      -1.968  -0.913   1.654  1.00  0.00     0.255 C 
HETATM   13  O3  UNK     1      -2.787  -0.192   2.217  1.00  0.00    -0.268 OA
HETATM   14  N1  UNK     1      -1.763  -2.243   1.935  1.00  0.00    -0.366 N 
HETATM   15  H6  UNK     1      -2.304  -2.712   2.654  1.00  0.00     0.159 HD
HETATM   16  H7  UNK     1      -1.075  -2.806   1.445  1.00  0.00     0.159 HD
ENDBRANCH   6  12
TORSDOF 1
