REMARK  4 active torsions:
REMARK  status: ('A' for Active; 'I' for Inactive)
REMARK    1  A    between atoms: C7_12  and  O2_2 
REMARK    2  A    between atoms: C9_14  and  O4_4 
REMARK    3  A    between atoms: C15_20  and  O5_5 
REMARK    4  A    between atoms: C3_8  and  C4_9 
ROOT
HETATM    1  O1  UNK     1      -0.395   0.649   0.596  1.00  0.00    -0.309 OA
HETATM    2  O3  UNK     1      -2.407  -2.358  -1.278  1.00  0.00    -0.287 OA
HETATM    3  C1  UNK     1      -2.145  -1.034   0.662  1.00  0.00     0.081 A 
HETATM    4  C2  UNK     1      -1.417   0.003   1.243  1.00  0.00     0.095 A 
HETATM    5  C3  UNK     1      -0.069   0.247  -0.691  1.00  0.00     0.090 A 
HETATM    6  C5  UNK     1      -1.808  -1.458  -0.706  1.00  0.00     0.190 A 
HETATM    7  C6  UNK     1      -0.699  -0.732  -1.359  1.00  0.00     0.094 A 
HETATM    8  C7  UNK     1      -3.177  -1.657   1.369  1.00  0.00     0.085 A 
HETATM    9  C8  UNK     1      -1.718   0.424   2.539  1.00  0.00     0.075 A 
HETATM   10  C9  UNK     1      -2.748  -0.195   3.248  1.00  0.00     0.071 A 
HETATM   11  C10 UNK     1      -3.475  -1.233   2.664  1.00  0.00     0.074 A 
ENDROOT
BRANCH   5  12
HETATM   12  C4  UNK     1       1.039   1.012  -1.296  1.00  0.00    -0.002 A 
HETATM   13  C11 UNK     1       1.080   1.216  -2.677  1.00  0.00     0.017 A 
HETATM   14  C13 UNK     1       2.127   1.939  -3.249  1.00  0.00     0.037 A 
HETATM   15  C15 UNK     1       3.138   2.459  -2.440  1.00  0.00     0.068 A 
HETATM   16  C14 UNK     1       3.101   2.257  -1.061  1.00  0.00     0.037 A 
HETATM   17  C12 UNK     1       2.053   1.535  -0.489  1.00  0.00     0.017 A 
BRANCH  15  18
HETATM   18  O5  UNK     1       4.160   3.164  -2.998  1.00  0.00    -0.356 OA
HETATM   19  C16 UNK     1       5.160   3.668  -2.113  1.00  0.00     0.210 C 
ENDBRANCH  15  18
ENDBRANCH   5  12
BRANCH   8  20
HETATM   20  O2  UNK     1      -3.916  -2.673   0.844  1.00  0.00    -0.360 OA
HETATM   21  H8  UNK     1      -3.619  -2.882  -0.054  1.00  0.00     0.217 HD
ENDBRANCH   8  20
BRANCH  10  22
HETATM   22  O4  UNK     1      -3.044   0.215   4.512  1.00  0.00    -0.361 OA
HETATM   23  H9  UNK     1      -3.780  -0.320   4.853  1.00  0.00     0.217 HD
ENDBRANCH  10  22
TORSDOF 4
