REMARK  3 active torsions:
REMARK  status: ('A' for Active; 'I' for Inactive)
REMARK    1  A    between atoms: C1_9  and  N1_7 
REMARK       I    between atoms: C7_15  and  N1_7 
REMARK    2  A    between atoms: C10_18  and  N2_8 
REMARK    3  A    between atoms: C4_12  and  C7_15 
ROOT
HETATM    1  O2  UNK     1       0.294   0.945   1.581  1.00  0.00    -0.267 OA
HETATM    2  N1  UNK     1      -0.958  -0.280   0.007  1.00  0.00    -0.322 N 
HETATM    3  C7  UNK     1       0.059   0.562   0.436  1.00  0.00     0.262 C 
HETATM    4  H2  UNK     1      -0.989  -0.511  -0.981  1.00  0.00     0.169 HD
ENDROOT
BRANCH   3   5
HETATM    5  C4  UNK     1       0.915   1.005  -0.670  1.00  0.00     0.108 A 
HETATM    6  C12 UNK     1       0.399   1.161  -2.049  1.00  0.00     0.304 A 
HETATM    7  O1  UNK     1       1.309   1.588  -3.012  1.00  0.00    -0.274 OA
HETATM    8  O3  UNK     1      -0.771   0.927  -2.334  1.00  0.00    -0.259 OA
HETATM    9  C5  UNK     1       2.654   1.859  -2.696  1.00  0.00     0.089 A 
HETATM   10  C15 UNK     1       3.489   2.282  -3.728  1.00  0.00     0.039 A 
HETATM   11  C3  UNK     1       3.118   1.706  -1.393  1.00  0.00     0.000 A 
HETATM   12  C17 UNK     1       4.825   2.559  -3.445  1.00  0.00     0.022 A 
HETATM   13  C16 UNK     1       5.310   2.410  -2.144  1.00  0.00     0.011 A 
HETATM   14 Br1  UNK     1       7.124   2.788  -1.766  1.00  0.00    -0.051 Br
HETATM   15  C11 UNK     1       4.459   1.985  -1.119  1.00  0.00     0.033 A 
HETATM   16  C6  UNK     1       2.192   1.261  -0.364  1.00  0.00     0.037 A 
ENDBRANCH   3   5
BRANCH   2  17
HETATM   17  C1  UNK     1      -1.962  -0.893   0.795  1.00  0.00     0.041 A 
HETATM   18  C2  UNK     1      -2.909  -1.712   0.203  1.00  0.00    -0.033 A 
HETATM   19  C14 UNK     1      -2.912  -1.979  -1.267  1.00  0.00     0.050 C 
HETATM   20  C9  UNK     1      -3.890  -2.307   0.997  1.00  0.00     0.045 A 
HETATM   21  C10 UNK     1      -3.910  -2.074   2.372  1.00  0.00     0.103 A 
HETATM   22  C13 UNK     1      -2.950  -1.247   2.954  1.00  0.00     0.038 A 
HETATM   23  C8  UNK     1      -1.969  -0.652   2.160  1.00  0.00     0.032 A 
BRANCH  21  24
HETATM   24  N2  UNK     1      -4.910  -2.678   3.181  1.00  0.00    -0.116 N 
HETATM   25  O4  UNK     1      -4.910  -2.454   4.415  1.00  0.00    -0.532 OA
HETATM   26  O5  UNK     1      -5.765  -3.418   2.638  1.00  0.00    -0.532 OA
ENDBRANCH  21  24
ENDBRANCH   2  17
TORSDOF 3
