REMARK  2 active torsions:
REMARK  status: ('A' for Active; 'I' for Inactive)
REMARK    1  A    between atoms: C1_5  and  N1_4 
REMARK       I    between atoms: C6_10  and  N1_4 
REMARK    2  A    between atoms: C6_10  and  C7_11 
ROOT
HETATM    1  O2  UNK     1       0.578   0.442  -2.312  1.00  0.00    -0.274 OA
HETATM    2  O3  UNK     1      -1.200  -0.726  -1.480  1.00  0.00    -0.259 OA
HETATM    3  C7  UNK     1       0.348   0.120   0.101  1.00  0.00     0.108 A 
HETATM    4  C8  UNK     1       1.476   0.804   0.327  1.00  0.00     0.037 A 
HETATM    5  C9  UNK     1       2.233   1.358  -0.785  1.00  0.00    -0.001 A 
HETATM    6  C10 UNK     1      -0.168  -0.100  -1.269  1.00  0.00     0.304 A 
HETATM    7  C11 UNK     1       1.766   1.163  -2.080  1.00  0.00     0.089 A 
HETATM    8  C12 UNK     1       3.415   2.079  -0.595  1.00  0.00     0.014 A 
HETATM    9  C13 UNK     1       2.443   1.668  -3.188  1.00  0.00     0.038 A 
HETATM   10  C14 UNK     1       4.106   2.591  -1.697  1.00  0.00     0.001 A 
HETATM   11  C15 UNK     1       3.621   2.386  -2.991  1.00  0.00     0.003 A 
ENDROOT
BRANCH   3  12
HETATM   12  C6  UNK     1      -0.344  -0.399   1.287  1.00  0.00     0.258 C 
HETATM   13  O1  UNK     1       0.282  -0.710   2.298  1.00  0.00    -0.267 OA
HETATM   14  N1  UNK     1      -1.714  -0.486   1.114  1.00  0.00    -0.352 N 
HETATM   15  H10 UNK     1      -2.131  -0.211   0.231  1.00  0.00     0.163 HD
BRANCH  14  16
HETATM   16  C1  UNK     1      -2.606  -0.970   2.139  1.00  0.00     0.084 C 
HETATM   17  C2  UNK     1      -2.858  -2.466   2.005  1.00  0.00     0.025 C 
HETATM   18  C4  UNK     1      -3.940  -2.579   0.935  1.00  0.00     0.002 C 
HETATM   19  C5  UNK     1      -4.702  -1.253   0.962  1.00  0.00     0.002 C 
HETATM   20  C3  UNK     1      -4.004  -0.378   2.002  1.00  0.00     0.025 C 
ENDBRANCH  14  16
ENDBRANCH   3  12
TORSDOF 2
