REMARK  5 active torsions:
REMARK  status: ('A' for Active; 'I' for Inactive)
REMARK    1  A    between atoms: C2_5  and  O1_1 
REMARK    2  A    between atoms: C15_18  and  O3_3 
REMARK    3  A    between atoms: C1_4  and  C4_7 
REMARK    4  A    between atoms: C3_6  and  C6_9 
REMARK    5  A    between atoms: C6_9  and  C7_10 
ROOT
HETATM    1  O2  UNK     1      -2.157  -0.383  -1.596  1.00  0.00    -0.288 OA
HETATM    2  C6  UNK     1      -1.676  -0.196  -0.468  1.00  0.00     0.182 C 
ENDROOT
BRANCH   2   3
HETATM    3  C3  UNK     1      -2.326  -0.732   0.717  1.00  0.00     0.014 A 
HETATM    4  C10 UNK     1      -3.089  -1.896   0.628  1.00  0.00     0.018 A 
HETATM    5  C14 UNK     1      -3.713  -2.411   1.765  1.00  0.00     0.037 A 
HETATM    6  C15 UNK     1      -3.572  -1.762   2.991  1.00  0.00     0.065 A 
HETATM    7  C13 UNK     1      -2.809  -0.598   3.081  1.00  0.00     0.037 A 
HETATM    8  C9  UNK     1      -2.186  -0.083   1.944  1.00  0.00     0.018 A 
BRANCH   6   9
HETATM    9  O3  UNK     1      -4.179  -2.264   4.101  1.00  0.00    -0.361 OA
HETATM   10  H14 UNK     1      -3.975  -1.690   4.859  1.00  0.00     0.217 HD
ENDBRANCH   6   9
ENDBRANCH   2   3
BRANCH   2  11
HETATM   11  C7  UNK     1      -0.390   0.566  -0.302  1.00  0.00     0.056 C 
HETATM   12  C4  UNK     1       0.257   1.052  -1.372  1.00  0.00     0.018 C 
BRANCH  12  13
HETATM   13  C1  UNK     1       1.495   1.769  -1.290  1.00  0.00    -0.003 A 
HETATM   14  C2  UNK     1       2.461   1.704  -2.311  1.00  0.00     0.078 A 
HETATM   15  C8  UNK     1       3.659   2.411  -2.208  1.00  0.00     0.037 A 
HETATM   16  C12 UNK     1       3.911   3.194  -1.082  1.00  0.00     0.003 A 
HETATM   17  C11 UNK     1       2.966   3.271  -0.059  1.00  0.00     0.001 A 
HETATM   18  C5  UNK     1       1.768   2.564  -0.163  1.00  0.00     0.014 A 
BRANCH  14  19
HETATM   19  O1  UNK     1       2.239   0.945  -3.422  1.00  0.00    -0.355 OA
HETATM   20  C16 UNK     1       2.673  -0.412  -3.376  1.00  0.00     0.210 C 
ENDBRANCH  14  19
ENDBRANCH  12  13
ENDBRANCH   2  11
TORSDOF 5
