REMARK  1 active torsions:
REMARK  status: ('A' for Active; 'I' for Inactive)
REMARK    1  A    between atoms: C1_5  and  C4_8 
ROOT
HETATM    1  O1  UNK     1       2.084   1.027   0.950  1.00  0.00    -0.277 OA
HETATM    2  O2  UNK     1       0.642   1.437  -2.984  1.00  0.00    -0.274 OA
HETATM    3  O3  UNK     1       1.740   0.619   3.151  1.00  0.00    -0.265 OA
HETATM    4  O4  UNK     1      -1.484   1.062  -2.250  1.00  0.00    -0.259 OA
HETATM    5  C1  UNK     1      -0.747   0.764   0.507  1.00  0.00     0.071 C 
HETATM    6  C2  UNK     1       0.231   1.036  -0.605  1.00  0.00     0.061 A 
HETATM    7  C3  UNK     1      -0.174   1.239   1.847  1.00  0.00     0.126 C 
HETATM    8  C5  UNK     1       1.537   1.183  -0.341  1.00  0.00     0.105 A 
HETATM    9  C7  UNK     1       1.283   0.901   2.047  1.00  0.00     0.265 C 
HETATM   10  C8  UNK     1       2.497   1.453  -1.408  1.00  0.00     0.033 A 
HETATM   11  C10 UNK     1      -0.291   1.174  -1.987  1.00  0.00     0.298 A 
HETATM   12  C12 UNK     1       2.017   1.573  -2.709  1.00  0.00     0.092 A 
HETATM   13  C16 UNK     1       3.873   1.600  -1.195  1.00  0.00     0.017 A 
HETATM   14  C18 UNK     1       2.860   1.832  -3.789  1.00  0.00     0.038 A 
HETATM   15  C21 UNK     1       4.731   1.859  -2.268  1.00  0.00     0.001 A 
HETATM   16  C22 UNK     1       4.226   1.975  -3.563  1.00  0.00     0.003 A 
ENDROOT
BRANCH   5  17
HETATM   17  C4  UNK     1      -1.210  -0.685   0.556  1.00  0.00    -0.038 A 
HETATM   18  C6  UNK     1      -2.491  -1.042   1.008  1.00  0.00    -0.019 A 
HETATM   19  C11 UNK     1      -2.861  -2.408   1.028  1.00  0.00    -0.025 A 
HETATM   20  C13 UNK     1      -3.413  -0.074   1.438  1.00  0.00     0.013 A 
HETATM   21  C15 UNK     1      -1.940  -3.376   0.597  1.00  0.00     0.012 A 
HETATM   22  C17 UNK     1      -4.142  -2.765   1.479  1.00  0.00     0.012 A 
HETATM   23  C14 UNK     1      -0.671  -3.003   0.152  1.00  0.00     0.001 A 
HETATM   24  C9  UNK     1      -0.307  -1.660   0.132  1.00  0.00     0.009 A 
HETATM   25  C20 UNK     1      -5.045  -1.790   1.904  1.00  0.00     0.001 A 
HETATM   26  C19 UNK     1      -4.681  -0.447   1.884  1.00  0.00     0.001 A 
ENDBRANCH   5  17
TORSDOF 1
