REMARK  4 active torsions:
REMARK  status: ('A' for Active; 'I' for Inactive)
REMARK    1  A    between atoms: C8_13  and  O2_2 
REMARK    2  A    between atoms: C9_14  and  O3_3 
REMARK    3  A    between atoms: C15_20  and  O5_5 
REMARK    4  A    between atoms: C2_7  and  C5_10 
ROOT
HETATM    1  O1  UNK     1       1.700   0.267   1.247  1.00  0.00    -0.321 OA
HETATM    2  O4  UNK     1      -1.356   0.335  -1.456  1.00  0.00    -0.286 OA
HETATM    3  C1  UNK     1       0.906   0.787  -0.987  1.00  0.00     0.052 A 
HETATM    4  C2  UNK     1      -0.619  -0.242   0.733  1.00  0.00     0.048 A 
HETATM    5  C3  UNK     1       1.909   0.750  -0.020  1.00  0.00     0.092 A 
HETATM    6  C4  UNK     1      -0.440   0.292  -0.645  1.00  0.00     0.198 A 
HETATM    7  C6  UNK     1       1.177   1.291  -2.262  1.00  0.00     0.058 A 
HETATM    8  C7  UNK     1       3.189   1.217  -0.321  1.00  0.00     0.077 A 
HETATM    9  C8  UNK     1       2.458   1.757  -2.561  1.00  0.00     0.102 A 
HETATM   10  C9  UNK     1       3.462   1.721  -1.592  1.00  0.00     0.104 A 
HETATM   11  C10 UNK     1       0.447  -0.211   1.547  1.00  0.00     0.159 A 
ENDROOT
BRANCH   4  12
HETATM   12  C5  UNK     1      -1.901  -0.802   1.192  1.00  0.00    -0.020 A 
HETATM   13  C11 UNK     1      -2.846   0.021   1.807  1.00  0.00     0.015 A 
HETATM   14  C13 UNK     1      -4.061  -0.510   2.240  1.00  0.00     0.037 A 
HETATM   15  C15 UNK     1      -4.333  -1.866   2.060  1.00  0.00     0.068 A 
HETATM   16  C14 UNK     1      -3.390  -2.691   1.446  1.00  0.00     0.037 A 
HETATM   17  C12 UNK     1      -2.175  -2.159   1.012  1.00  0.00     0.015 A 
BRANCH  15  18
HETATM   18  O5  UNK     1      -5.518  -2.384   2.483  1.00  0.00    -0.356 OA
HETATM   19  C18 UNK     1      -5.731  -3.779   2.267  1.00  0.00     0.210 C 
ENDBRANCH  15  18
ENDBRANCH   4  12
BRANCH   9  20
HETATM   20  O2  UNK     1       2.718   2.247  -3.806  1.00  0.00    -0.353 OA
HETATM   21  C16 UNK     1       3.173   1.316  -4.786  1.00  0.00     0.210 C 
ENDBRANCH   9  20
BRANCH  10  22
HETATM   22  O3  UNK     1       4.715   2.172  -1.878  1.00  0.00    -0.353 OA
HETATM   23  C17 UNK     1       4.980   3.551  -1.627  1.00  0.00     0.210 C 
ENDBRANCH  10  22
TORSDOF 4
