REMARK  8 active torsions:
REMARK  status: ('A' for Active; 'I' for Inactive)
REMARK    1  A    between atoms: C8_16  and  O2_2 
REMARK    2  A    between atoms: C9_17  and  O2_2 
REMARK    3  A    between atoms: C21_29  and  O5_5 
REMARK    4  A    between atoms: C22_30  and  O6_6 
REMARK    5  A    between atoms: C23_31  and  O7_7 
REMARK    6  A    between atoms: C1_9  and  N1_8 
REMARK       I    between atoms: C7_15  and  N1_8 
REMARK    7  A    between atoms: C7_15  and  C8_16 
REMARK    8  A    between atoms: C15_23  and  C17_25 
ROOT
HETATM    1  O3  UNK     1      -1.880   0.185   1.462  1.00  0.00    -0.309 OA
HETATM    2  O4  UNK     1       0.981  -2.047  -0.390  1.00  0.00    -0.287 OA
HETATM    3  C9  UNK     1       1.489   2.141   0.002  1.00  0.00     0.070 A 
HETATM    4  C10 UNK     1       0.262   0.089   0.321  1.00  0.00     0.051 A 
HETATM    5  C11 UNK     1       1.387   0.759  -0.164  1.00  0.00     0.055 A 
HETATM    6  C12 UNK     1      -0.754   0.792   0.966  1.00  0.00     0.090 A 
HETATM    7  C13 UNK     1       0.472   2.846   0.648  1.00  0.00     0.039 A 
HETATM    8  C14 UNK     1      -0.650   2.173   1.131  1.00  0.00     0.041 A 
HETATM    9  C15 UNK     1      -2.014  -1.186   1.307  1.00  0.00     0.090 A 
HETATM   10  C16 UNK     1       0.127  -1.367   0.163  1.00  0.00     0.187 A 
HETATM   11  C18 UNK     1      -1.103  -1.972   0.712  1.00  0.00     0.093 A 
ENDROOT
BRANCH   3  12
HETATM   12  O2  UNK     1       2.593   2.810  -0.471  1.00  0.00    -0.342 OA
BRANCH  12  13
HETATM   13  C8  UNK     1       3.234   2.273  -1.608  1.00  0.00     0.278 C 
BRANCH  13  14
HETATM   14  C7  UNK     1       3.879   3.371  -2.426  1.00  0.00     0.242 C 
HETATM   15  O1  UNK     1       3.836   4.554  -2.101  1.00  0.00    -0.271 OA
HETATM   16  N1  UNK     1       4.504   2.868  -3.557  1.00  0.00    -0.355 N 
HETATM   17  H12 UNK     1       4.529   1.861  -3.696  1.00  0.00     0.162 HD
BRANCH  16  18
HETATM   18  C1  UNK     1       5.196   3.700  -4.511  1.00  0.00     0.084 C 
HETATM   19  C2  UNK     1       5.086   3.108  -5.918  1.00  0.00     0.025 C 
HETATM   20  C4  UNK     1       5.855   3.941  -6.941  1.00  0.00     0.002 C 
HETATM   21  C6  UNK     1       7.312   4.136  -6.528  1.00  0.00     0.000 C 
HETATM   22  C5  UNK     1       7.424   4.727  -5.125  1.00  0.00     0.002 C 
HETATM   23  C3  UNK     1       6.658   3.893  -4.101  1.00  0.00     0.025 C 
ENDBRANCH  16  18
ENDBRANCH  13  14
ENDBRANCH  12  13
ENDBRANCH   3  12
BRANCH   9  24
HETATM   24  C17 UNK     1      -3.258  -1.737   1.883  1.00  0.00     0.003 A 
HETATM   25  C19 UNK     1      -3.528  -1.576   3.242  1.00  0.00     0.054 A 
HETATM   26  C22 UNK     1      -4.703  -2.095   3.786  1.00  0.00     0.105 A 
HETATM   27  C23 UNK     1      -5.607  -2.776   2.970  1.00  0.00     0.135 A 
HETATM   28  C21 UNK     1      -5.337  -2.937   1.611  1.00  0.00     0.105 A 
HETATM   29  C20 UNK     1      -4.162  -2.417   1.068  1.00  0.00     0.054 A 
BRANCH  26  30
HETATM   30  O6  UNK     1      -4.955  -1.932   5.114  1.00  0.00    -0.353 OA
HETATM   31  C25 UNK     1      -3.979  -1.224   5.877  1.00  0.00     0.210 C 
ENDBRANCH  26  30
BRANCH  27  32
HETATM   32  O7  UNK     1      -6.755  -3.285   3.502  1.00  0.00    -0.351 OA
HETATM   33  C26 UNK     1      -7.899  -2.433   3.506  1.00  0.00     0.210 C 
ENDBRANCH  27  32
BRANCH  28  34
HETATM   34  O5  UNK     1      -6.212  -3.600   0.804  1.00  0.00    -0.353 OA
HETATM   35  C24 UNK     1      -5.860  -3.720  -0.572  1.00  0.00     0.210 C 
ENDBRANCH  28  34
ENDBRANCH   9  24
TORSDOF 8
