REMARK  6 active torsions:
REMARK  status: ('A' for Active; 'I' for Inactive)
REMARK    1  A    between atoms: C21_29  and  O1_2 
REMARK    2  A    between atoms: C9_17  and  O1_2 
REMARK    3  A    between atoms: C15_23  and  O3_4 
REMARK       I    between atoms: C11_19  and  N1_8 
REMARK    4  A    between atoms: C4_12  and  N1_8 
REMARK    5  A    between atoms: C2_10  and  C9_17 
REMARK    6  A    between atoms: C10_18  and  C11_19 
ROOT
HETATM    1  S1  UNK     1       0.695   0.435   2.321  1.00  0.00    -0.075 SA
HETATM    2  C1  UNK     1      -1.518  -0.784   1.859  1.00  0.00     0.006 A 
HETATM    3  C2  UNK     1      -1.001  -0.408   0.586  1.00  0.00     0.085 A 
HETATM    4  C3  UNK     1      -0.695  -0.387   2.890  1.00  0.00    -0.007 A 
HETATM    5  C4  UNK     1       0.180   0.250   0.712  1.00  0.00     0.094 A 
HETATM    6  C5  UNK     1      -2.746  -1.493   2.124  1.00  0.00    -0.024 A 
HETATM    7  C6  UNK     1      -0.858  -0.575   4.351  1.00  0.00     0.057 C 
HETATM    8  C7  UNK     1      -3.926  -0.783   2.320  1.00  0.00     0.015 A 
HETATM    9  C8  UNK     1      -2.742  -2.884   2.181  1.00  0.00     0.015 A 
HETATM   10  C12 UNK     1      -5.113  -1.469   2.576  1.00  0.00     0.037 A 
HETATM   11  C13 UNK     1      -3.929  -3.570   2.436  1.00  0.00     0.037 A 
HETATM   12  C15 UNK     1      -5.115  -2.863   2.634  1.00  0.00     0.068 A 
ENDROOT
BRANCH   5  13
HETATM   13  N1  UNK     1       1.026   0.791  -0.261  1.00  0.00    -0.316 N 
HETATM   14  C11 UNK     1       2.224   1.451  -0.029  1.00  0.00     0.262 C 
HETATM   15  O5  UNK     1       2.772   1.690   1.046  1.00  0.00    -0.267 OA
HETATM   16  H1  UNK     1       0.708   0.650  -1.216  1.00  0.00     0.169 HD
BRANCH  14  17
HETATM   17  C10 UNK     1       2.857   1.891  -1.277  1.00  0.00     0.108 A 
HETATM   18  C16 UNK     1       4.194   1.955  -1.272  1.00  0.00     0.037 A 
HETATM   19  C14 UNK     1       4.913   2.380  -2.463  1.00  0.00    -0.001 A 
HETATM   20  C17 UNK     1       4.188   2.718  -3.601  1.00  0.00     0.089 A 
HETATM   21  C19 UNK     1       6.307   2.461  -2.502  1.00  0.00     0.014 A 
HETATM   22  O2  UNK     1       2.781   2.650  -3.601  1.00  0.00    -0.274 OA
HETATM   23  C20 UNK     1       4.816   3.134  -4.774  1.00  0.00     0.038 A 
HETATM   24  C18 UNK     1       2.066   2.246  -2.477  1.00  0.00     0.304 A 
HETATM   25  O6  UNK     1       0.841   2.190  -2.485  1.00  0.00    -0.259 OA
HETATM   26  C23 UNK     1       6.206   3.212  -4.805  1.00  0.00     0.003 A 
HETATM   27  C22 UNK     1       6.951   2.876  -3.672  1.00  0.00     0.001 A 
ENDBRANCH  14  17
ENDBRANCH   5  13
BRANCH   3  28
HETATM   28  C9  UNK     1      -1.625  -0.676  -0.687  1.00  0.00     0.297 C 
HETATM   29  O4  UNK     1      -1.145  -0.333  -1.777  1.00  0.00    -0.259 OA
BRANCH  28  30
HETATM   30  O1  UNK     1      -2.819  -1.356  -0.591  1.00  0.00    -0.318 OA
BRANCH  30  31
HETATM   31  C21 UNK     1      -3.493  -1.654  -1.819  1.00  0.00     0.174 C 
HETATM   32  C24 UNK     1      -4.775  -2.397  -1.510  1.00  0.00     0.034 C 
ENDBRANCH  30  31
ENDBRANCH  28  30
ENDBRANCH   3  28
BRANCH  12  33
HETATM   33  O3  UNK     1      -6.273  -3.533   2.885  1.00  0.00    -0.356 OA
HETATM   34  C25 UNK     1      -7.448  -2.747   3.077  1.00  0.00     0.210 C 
ENDBRANCH  12  33
TORSDOF 6
