REMARK  6 active torsions:
REMARK  status: ('A' for Active; 'I' for Inactive)
REMARK    1  A    between atoms: C1_7  and  O1_4 
REMARK    2  A    between atoms: C4_10  and  O1_4 
REMARK    3  A    between atoms: C3_9  and  O2_5 
REMARK    4  A    between atoms: C2_8  and  C9_15 
REMARK    5  A    between atoms: C4_10  and  C8_14 
REMARK    6  A    between atoms: C10_16  and  C11_17 
ROOT
HETATM    1  N1  UNK     1      -3.517   1.492   1.325  1.00  0.00    -0.191 NA
HETATM    2  C9  UNK     1      -1.730  -1.441   1.018  1.00  0.00     0.036 C 
HETATM    3  C10 UNK     1      -2.966  -1.047   1.426  1.00  0.00     0.055 C 
HETATM    4  C23 UNK     1      -3.262   0.360   1.367  1.00  0.00     0.100 C 
ENDROOT
BRANCH   3   5
HETATM    5  C11 UNK     1      -3.991  -1.962   1.905  1.00  0.00    -0.015 A 
HETATM    6  C16 UNK     1      -4.891  -2.534   1.006  1.00  0.00     0.014 A 
HETATM    7  C19 UNK     1      -5.873  -3.411   1.465  1.00  0.00     0.024 A 
HETATM    8  C21 UNK     1      -5.956  -3.716   2.824  1.00  0.00     0.034 A 
HETATM    9  C20 UNK     1      -5.056  -3.144   3.723  1.00  0.00     0.024 A 
HETATM   10 Cl2  UNK     1      -7.168  -4.797   3.391  1.00  0.00    -0.084 Cl
HETATM   11  C17 UNK     1      -4.073  -2.267   3.263  1.00  0.00     0.014 A 
ENDBRANCH   3   5
BRANCH   2  12
HETATM   12  C2  UNK     1      -0.668  -0.554   0.522  1.00  0.00    -0.015 A 
HETATM   13  C5  UNK     1      -0.628  -0.318  -0.847  1.00  0.00     0.052 A 
HETATM   14  C3  UNK     1       0.358   0.516  -1.373  1.00  0.00     0.102 A 
HETATM   15  C1  UNK     1       1.296   1.107  -0.527  1.00  0.00     0.103 A 
HETATM   16  C6  UNK     1       1.248   0.863   0.846  1.00  0.00     0.059 A 
HETATM   17  C7  UNK     1       0.262   0.029   1.372  1.00  0.00     0.024 A 
HETATM   18 Br1  UNK     1       0.253  -0.260   3.250  1.00  0.00    -0.050 Br
BRANCH  14  19
HETATM   19  O2  UNK     1       0.395   0.746  -2.716  1.00  0.00    -0.353 OA
HETATM   20  C22 UNK     1      -0.354   1.857  -3.203  1.00  0.00     0.210 C 
ENDBRANCH  14  19
BRANCH  15  21
HETATM   21  O1  UNK     1       2.264   1.923  -1.029  1.00  0.00    -0.344 OA
BRANCH  21  22
HETATM   22  C4  UNK     1       3.618   1.532  -0.813  1.00  0.00     0.214 C 
BRANCH  22  23
HETATM   23  C8  UNK     1       4.465   2.059  -1.934  1.00  0.00    -0.034 A 
HETATM   24  C12 UNK     1       4.661   1.284  -3.072  1.00  0.00     0.011 A 
HETATM   25  C14 UNK     1       5.449   1.773  -4.114  1.00  0.00     0.024 A 
HETATM   26  C18 UNK     1       6.036   3.034  -4.011  1.00  0.00     0.034 A 
HETATM   27  C15 UNK     1       5.836   3.806  -2.867  1.00  0.00     0.024 A 
HETATM   28 Cl1  UNK     1       7.009   3.638  -5.296  1.00  0.00    -0.084 Cl
HETATM   29  C13 UNK     1       5.048   3.317  -1.825  1.00  0.00     0.011 A 
ENDBRANCH  22  23
ENDBRANCH  21  22
ENDBRANCH  15  21
ENDBRANCH   2  12
TORSDOF 6
