REMARK  1 active torsions:
REMARK  status: ('A' for Active; 'I' for Inactive)
REMARK       I    between atoms: C14_18  and  N1_4 
REMARK    1  A    between atoms: C14_18  and  C8_12 
ROOT
HETATM    1  O1  UNK     1       1.609   0.672   1.288  1.00  0.00    -0.274 OA
HETATM    2  O2  UNK     1       3.337   1.536   0.072  1.00  0.00    -0.259 OA
HETATM    3  C1  UNK     1      -0.427  -0.104   0.172  1.00  0.00     0.010 A 
HETATM    4  C2  UNK     1      -1.728  -0.678   0.277  1.00  0.00    -0.013 A 
HETATM    5  C3  UNK     1      -2.219  -1.013   1.570  1.00  0.00    -0.025 A 
HETATM    6  C4  UNK     1       0.317   0.108   1.335  1.00  0.00     0.090 A 
HETATM    7  C5  UNK     1       0.200   0.288  -1.093  1.00  0.00     0.038 A 
HETATM    8  C6  UNK     1      -1.432  -0.780   2.708  1.00  0.00     0.015 A 
HETATM    9  C7  UNK     1      -0.166  -0.220   2.596  1.00  0.00     0.039 A 
HETATM   10  C8  UNK     1       1.427   0.823  -1.131  1.00  0.00     0.108 A 
HETATM   11  C9  UNK     1      -2.579  -0.944  -0.824  1.00  0.00     0.013 A 
HETATM   12  C10 UNK     1      -3.496  -1.581   1.717  1.00  0.00     0.012 A 
HETATM   13  C11 UNK     1       2.213   1.047   0.097  1.00  0.00     0.304 A 
HETATM   14  C12 UNK     1      -3.846  -1.510  -0.659  1.00  0.00     0.001 A 
HETATM   15  C13 UNK     1      -4.304  -1.829   0.611  1.00  0.00     0.001 A 
ENDROOT
BRANCH  10  16
HETATM   16  C14 UNK     1       1.945   1.173  -2.460  1.00  0.00     0.257 C 
HETATM   17  O3  UNK     1       1.604   0.540  -3.457  1.00  0.00    -0.267 OA
HETATM   18  N1  UNK     1       2.818   2.245  -2.431  1.00  0.00    -0.361 N 
HETATM   19  C15 UNK     1       3.459   2.771  -3.615  1.00  0.00     0.149 C 
HETATM   20  H8  UNK     1       3.001   2.733  -1.560  1.00  0.00     0.162 HD
ENDBRANCH  10  16
TORSDOF 1
