REMARK  6 active torsions:
REMARK  status: ('A' for Active; 'I' for Inactive)
REMARK    1  A    between atoms: C19_24  and  O2_2 
REMARK    2  A    between atoms: C23_28  and  O2_2 
REMARK    3  A    between atoms: C5_10  and  N1_4 
REMARK    4  A    between atoms: C6_11  and  N2_5 
REMARK    5  A    between atoms: C5_10  and  C7_12 
REMARK    6  A    between atoms: C6_11  and  C8_13 
ROOT
HETATM    1  C5  UNK     1      -0.031  -1.484   0.976  1.00  0.00     0.312 C 
ENDROOT
BRANCH   1   2
HETATM    2  N1  UNK     1       0.280  -0.183   0.386  1.00  0.00     0.096 N 
HETATM    3  C1  UNK     1       1.119   0.613   1.290  1.00  0.00     0.303 C 
HETATM    4  C3  UNK     1       1.446   1.976   0.672  1.00  0.00     0.303 C 
HETATM    5  N2  UNK     1       2.105   1.815  -0.630  1.00  0.00     0.096 N 
HETATM    6  C4  UNK     1       1.267   1.018  -1.534  1.00  0.00     0.303 C 
HETATM    7  C2  UNK     1       0.940  -0.345  -0.915  1.00  0.00     0.303 C 
BRANCH   5   8
HETATM    8  C6  UNK     1       2.414   3.116  -1.220  1.00  0.00     0.311 C 
BRANCH   8   9
HETATM    9  C8  UNK     1       3.483   3.014  -2.275  1.00  0.00    -0.030 A 
HETATM   10  C11 UNK     1       4.627   2.253  -2.037  1.00  0.00     0.015 A 
HETATM   11  C15 UNK     1       5.619   2.160  -3.014  1.00  0.00    -0.061 A 
HETATM   12  C20 UNK     1       5.465   2.827  -4.229  1.00  0.00     0.007 A 
HETATM   13  C22 UNK     1       6.843   1.347  -2.759  1.00  0.00     0.048 C 
HETATM   14  C17 UNK     1       4.321   3.588  -4.467  1.00  0.00     0.001 A 
HETATM   15  C12 UNK     1       3.330   3.682  -3.490  1.00  0.00     0.009 A 
ENDBRANCH   8   9
ENDBRANCH   5   8
ENDBRANCH   1   2
BRANCH   1  16
HETATM   16  C7  UNK     1      -1.138  -1.401   1.969  1.00  0.00    -0.011 A 
HETATM   17  C10 UNK     1      -0.889  -1.167   3.265  1.00  0.00     0.092 A 
HETATM   18  C16 UNK     1      -1.950  -1.077   4.283  1.00  0.00     0.288 A 
HETATM   19  O1  UNK     1      -3.253  -1.247   3.842  1.00  0.00    -0.275 OA
HETATM   20  O3  UNK     1      -1.684  -0.862   5.461  1.00  0.00    -0.260 OA
HETATM   21  C13 UNK     1      -3.545  -1.495   2.485  1.00  0.00     0.090 A 
HETATM   22  C9  UNK     1      -2.529  -1.578   1.532  1.00  0.00     0.009 A 
HETATM   23  C18 UNK     1      -4.893  -1.651   2.155  1.00  0.00     0.041 A 
HETATM   24  C14 UNK     1      -2.903  -1.828   0.205  1.00  0.00     0.051 A 
HETATM   25  C19 UNK     1      -4.249  -1.987  -0.142  1.00  0.00     0.069 A 
HETATM   26  C21 UNK     1      -5.243  -1.898   0.832  1.00  0.00     0.039 A 
BRANCH  25  27
HETATM   27  O2  UNK     1      -4.591  -2.230  -1.437  1.00  0.00    -0.351 OA
BRANCH  27  28
HETATM   28  C23 UNK     1      -3.739  -1.689  -2.445  1.00  0.00     0.171 C 
HETATM   29  C24 UNK     1      -4.559  -1.404  -3.685  1.00  0.00     0.034 C 
ENDBRANCH  27  28
ENDBRANCH  25  27
ENDBRANCH   1  16
TORSDOF 6
