REMARK  9 active torsions:
REMARK  status: ('A' for Active; 'I' for Inactive)
REMARK    1  A    between atoms: C14_19  and  O3_3 
REMARK    2  A    between atoms: C16_21  and  O3_3 
REMARK    3  A    between atoms: C17_22  and  O4_4 
REMARK    4  A    between atoms: C18_23  and  O4_4 
REMARK    5  A    between atoms: C1_6  and  C2_7 
REMARK    6  A    between atoms: C1_6  and  C3_8 
REMARK    7  A    between atoms: C2_7  and  C4_9 
REMARK    8  A    between atoms: C4_9  and  C7_12 
REMARK    9  A    between atoms: C16_21  and  C17_22 
ROOT
HETATM    1  O1  UNK     1      -1.169  -0.447  -1.104  1.00  0.00    -0.274 OA
HETATM    2  O2  UNK     1      -3.333  -1.107  -1.283  1.00  0.00    -0.259 OA
HETATM    3  C3  UNK     1      -2.585  -0.524   0.903  1.00  0.00     0.024 A 
HETATM    4  C5  UNK     1      -1.555  -0.132   1.683  1.00  0.00    -0.037 A 
HETATM    5  C6  UNK     1      -0.247   0.166   1.063  1.00  0.00     0.005 A 
HETATM    6  C8  UNK     1      -0.099  -0.004  -0.311  1.00  0.00     0.092 A 
HETATM    7  C9  UNK     1      -2.416  -0.717  -0.567  1.00  0.00     0.295 A 
HETATM    8  C10 UNK     1      -1.648   0.013   3.181  1.00  0.00     0.050 C 
HETATM    9  C11 UNK     1       0.872   0.625   1.775  1.00  0.00     0.017 A 
HETATM   10  C13 UNK     1       1.102   0.254  -0.975  1.00  0.00     0.075 A 
HETATM   11  C14 UNK     1       2.199   0.703  -0.249  1.00  0.00     0.072 A 
HETATM   12  C15 UNK     1       2.084   0.890   1.125  1.00  0.00     0.038 A 
ENDROOT
BRANCH  11  13
HETATM   13  O3  UNK     1       3.377   0.960  -0.878  1.00  0.00    -0.341 OA
BRANCH  13  14
HETATM   14  C16 UNK     1       3.309   1.391  -2.237  1.00  0.00     0.286 C 
BRANCH  14  15
HETATM   15  C17 UNK     1       4.494   2.275  -2.527  1.00  0.00     0.283 C 
HETATM   16  O5  UNK     1       5.355   2.582  -1.714  1.00  0.00    -0.263 OA
BRANCH  15  17
HETATM   17  O4  UNK     1       4.444   2.669  -3.833  1.00  0.00    -0.320 OA
BRANCH  17  18
HETATM   18  C18 UNK     1       5.513   3.520  -4.260  1.00  0.00     0.174 C 
HETATM   19  C19 UNK     1       5.314   3.866  -5.721  1.00  0.00     0.034 C 
ENDBRANCH  17  18
ENDBRANCH  15  17
ENDBRANCH  14  15
ENDBRANCH  13  14
ENDBRANCH  11  13
BRANCH   3  20
HETATM   20  C1  UNK     1      -3.984  -0.797   1.395  1.00  0.00     0.045 C 
BRANCH  20  21
HETATM   21  C2  UNK     1      -4.195  -2.248   1.814  1.00  0.00     0.005 C 
BRANCH  21  22
HETATM   22  C4  UNK     1      -5.589  -2.515   2.389  1.00  0.00    -0.000 C 
BRANCH  22  23
HETATM   23  C7  UNK     1      -5.740  -3.974   2.821  1.00  0.00    -0.005 C 
HETATM   24  C12 UNK     1      -7.108  -4.236   3.432  1.00  0.00     0.005 C 
ENDBRANCH  22  23
ENDBRANCH  21  22
ENDBRANCH  20  21
ENDBRANCH   3  20
TORSDOF 9
