REMARK  2 active torsions:
REMARK  status: ('A' for Active; 'I' for Inactive)
REMARK    1  A    between atoms: C18_23  and  O4_4 
REMARK    2  A    between atoms: C4_9  and  C8_13 
ROOT
HETATM    1  O1  UNK     1       3.542   2.034  -1.340  1.00  0.00    -0.274 OA
HETATM    2  O2  UNK     1       2.223   0.955   2.570  1.00  0.00    -0.267 OA
HETATM    3  O3  UNK     1       3.965   2.018   0.886  1.00  0.00    -0.259 OA
HETATM    4  N1  UNK     1       0.285   0.057   1.767  1.00  0.00    -0.322 N 
HETATM    5  C1  UNK     1       1.068   0.729  -0.825  1.00  0.00     0.001 A 
HETATM    6  C2  UNK     1       1.475   1.087  -2.205  1.00  0.00     0.009 A 
HETATM    7  C3  UNK     1       1.902   1.043   0.195  1.00  0.00     0.118 A 
HETATM    8  C4  UNK     1      -0.553  -0.259   0.728  1.00  0.00     0.046 A 
HETATM    9  C5  UNK     1      -0.194   0.051  -0.526  1.00  0.00     0.044 A 
HETATM   10  C6  UNK     1       2.695   1.724  -2.412  1.00  0.00     0.090 A 
HETATM   11  C7  UNK     1       1.500   0.689   1.611  1.00  0.00     0.263 A 
HETATM   12  C9  UNK     1       3.206   1.729  -0.034  1.00  0.00     0.305 A 
HETATM   13  C10 UNK     1       0.697   0.823  -3.345  1.00  0.00     0.015 A 
HETATM   14  C11 UNK     1       3.150   2.092  -3.682  1.00  0.00     0.038 A 
HETATM   15  C14 UNK     1       1.137   1.186  -4.625  1.00  0.00     0.001 A 
HETATM   16  C15 UNK     1       2.364   1.820  -4.793  1.00  0.00     0.003 A 
HETATM   17  H2  UNK     1      -0.010  -0.193   2.707  1.00  0.00     0.169 HD
ENDROOT
BRANCH   8  18
HETATM   18  C8  UNK     1      -1.821  -0.948   1.033  1.00  0.00    -0.009 A 
HETATM   19  C12 UNK     1      -1.869  -2.344   1.073  1.00  0.00     0.016 A 
HETATM   20  C16 UNK     1      -3.068  -2.995   1.361  1.00  0.00     0.037 A 
HETATM   21  C18 UNK     1      -4.223  -2.253   1.609  1.00  0.00     0.068 A 
HETATM   22  C17 UNK     1      -4.178  -0.859   1.570  1.00  0.00     0.037 A 
HETATM   23  C13 UNK     1      -2.978  -0.208   1.282  1.00  0.00     0.016 A 
BRANCH  21  24
HETATM   24  O4  UNK     1      -5.393  -2.889   1.890  1.00  0.00    -0.356 OA
HETATM   25  C19 UNK     1      -6.535  -2.069   2.134  1.00  0.00     0.210 C 
ENDBRANCH  21  24
ENDBRANCH   8  18
TORSDOF 2
