REMARK  5 active torsions:
REMARK  status: ('A' for Active; 'I' for Inactive)
REMARK    1  A    between atoms: C4_12  and  N2_6 
REMARK    2  A    between atoms: C11_19  and  N3_7 
REMARK    3  A    between atoms: C2_10  and  N3_7 
REMARK    4  A    between atoms: C10_18  and  N4_8 
REMARK    5  A    between atoms: C11_19  and  N4_8 
ROOT
HETATM    1  N3  UNK     1      -0.437   0.431  -0.915  1.00  0.00    -0.327 N 
HETATM    2  H7  UNK     1      -1.050   0.608  -0.124  1.00  0.00     0.168 HD
ENDROOT
BRANCH   1   3
HETATM    3  C11 UNK     1      -1.115  -0.016  -2.035  1.00  0.00     0.177 C 
HETATM    4  S1  UNK     1      -0.614   0.193  -3.632  1.00  0.00    -0.041 SA
BRANCH   3   5
HETATM    5  N4  UNK     1      -2.276  -0.761  -1.807  1.00  0.00    -0.333 N 
HETATM    6  H11 UNK     1      -2.829  -0.908  -2.649  1.00  0.00     0.168 HD
BRANCH   5   7
HETATM    7  C10 UNK     1      -2.913  -1.160  -0.631  1.00  0.00     0.036 A 
HETATM    8  C14 UNK     1      -2.165  -1.437   0.508  1.00  0.00     0.067 A 
HETATM    9  C12 UNK     1      -2.823  -1.834   1.674  1.00  0.00     0.092 A 
HETATM   10  O2  UNK     1      -2.012  -2.100   2.796  1.00  0.00    -0.275 OA
HETATM   11  C9  UNK     1      -4.211  -1.965   1.740  1.00  0.00     0.004 A 
HETATM   12  C22 UNK     1      -2.557  -2.502   4.005  1.00  0.00     0.288 A 
HETATM   13  C20 UNK     1      -4.023  -2.635   4.059  1.00  0.00     0.090 A 
HETATM   14  O3  UNK     1      -1.861  -2.737   4.987  1.00  0.00    -0.260 OA
HETATM   15  C13 UNK     1      -4.818  -2.389   3.008  1.00  0.00    -0.043 A 
HETATM   16  C21 UNK     1      -6.308  -2.538   3.111  1.00  0.00     0.049 C 
HETATM   17  C15 UNK     1      -4.946  -1.681   0.581  1.00  0.00     0.017 A 
HETATM   18  C16 UNK     1      -4.301  -1.282  -0.595  1.00  0.00     0.030 A 
ENDBRANCH   5   7
ENDBRANCH   3   5
ENDBRANCH   1   3
BRANCH   1  19
HETATM   19  C2  UNK     1       0.698   1.162  -0.873  1.00  0.00     0.129 A 
HETATM   20  C1  UNK     1       0.949   2.336  -0.281  1.00  0.00     0.057 A 
HETATM   21  N1  UNK     1       2.277   2.726  -0.464  1.00  0.00    -0.289 N 
HETATM   22  C6  UNK     1       0.008   3.158   0.533  1.00  0.00     0.072 C 
HETATM   23  C5  UNK     1       3.057   3.270   0.643  1.00  0.00     0.178 C 
HETATM   24  N2  UNK     1       2.882   1.770  -1.304  1.00  0.00    -0.217 N 
HETATM   25  C3  UNK     1       1.961   0.742  -1.535  1.00  0.00     0.295 A 
HETATM   26  O1  UNK     1       2.060  -0.277  -2.199  1.00  0.00    -0.264 OA
BRANCH  24  27
HETATM   27  C4  UNK     1       4.074   2.016  -2.030  1.00  0.00     0.060 A 
HETATM   28  C7  UNK     1       4.761   0.956  -2.621  1.00  0.00     0.031 A 
HETATM   29  C17 UNK     1       5.934   1.197  -3.336  1.00  0.00     0.002 A 
HETATM   30  C19 UNK     1       6.421   2.498  -3.460  1.00  0.00     0.000 A 
HETATM   31  C18 UNK     1       5.733   3.559  -2.869  1.00  0.00     0.002 A 
HETATM   32  C8  UNK     1       4.560   3.317  -2.154  1.00  0.00     0.031 A 
ENDBRANCH  24  27
ENDBRANCH   1  19
TORSDOF 5
