REMARK  6 active torsions:
REMARK  status: ('A' for Active; 'I' for Inactive)
REMARK    1  A    between atoms: C11_17  and  S1_1 
REMARK    2  A    between atoms: C17_23  and  S1_1 
REMARK       I    between atoms: C10_16  and  N1_3 
REMARK    3  A    between atoms: C2_8  and  N1_3 
REMARK    4  A    between atoms: C1_7  and  C7_13 
REMARK    5  A    between atoms: C8_14  and  C9_15 
REMARK    6  A    between atoms: C10_16  and  C11_17 
ROOT
HETATM    1  C1  UNK     1      -1.546  -0.457   1.339  1.00  0.00    -0.036 A 
HETATM    2  C2  UNK     1       0.502   0.846   0.005  1.00  0.00     0.034 A 
HETATM    3  C3  UNK     1      -1.714  -0.115   0.008  1.00  0.00     0.013 A 
HETATM    4  C4  UNK     1      -0.376  -0.160   2.018  1.00  0.00     0.013 A 
HETATM    5  C5  UNK     1      -0.683   0.541  -0.665  1.00  0.00     0.030 A 
HETATM    6  C6  UNK     1       0.656   0.496   1.346  1.00  0.00     0.030 A 
ENDROOT
BRANCH   2   7
HETATM    7  N1  UNK     1       1.534   1.504  -0.667  1.00  0.00    -0.327 N 
HETATM    8  C10 UNK     1       1.563   1.933  -2.001  1.00  0.00     0.231 C 
HETATM    9  O1  UNK     1       0.677   1.792  -2.840  1.00  0.00    -0.272 OA
HETATM   10  H6  UNK     1       2.365   1.688  -0.109  1.00  0.00     0.169 HD
BRANCH   8  11
HETATM   11  C11 UNK     1       2.865   2.613  -2.367  1.00  0.00     0.184 C 
BRANCH  11  12
HETATM   12  S1  UNK     1       4.019   1.366  -2.990  1.00  0.00    -0.098 SA
BRANCH  12  13
HETATM   13  C17 UNK     1       5.420   2.391  -3.336  1.00  0.00     0.134 A 
HETATM   14  C18 UNK     1       6.744   1.996  -3.279  1.00  0.00     0.180 A 
HETATM   15  N4  UNK     1       7.516   3.037  -3.605  1.00  0.00    -0.167 NA
HETATM   16  N3  UNK     1       6.588   3.980  -3.833  1.00  0.00    -0.196 N 
HETATM   17  H16 UNK     1       6.859   4.918  -4.108  1.00  0.00     0.213 HD
HETATM   18  N2  UNK     1       5.293   3.655  -3.687  1.00  0.00    -0.149 NA
ENDBRANCH  12  13
ENDBRANCH  11  12
ENDBRANCH   8  11
ENDBRANCH   2   7
BRANCH   1  19
HETATM   19  C7  UNK     1      -2.636  -1.150   2.049  1.00  0.00     0.012 C 
HETATM   20  C9  UNK     1      -3.644  -1.832   1.456  1.00  0.00     0.012 C 
BRANCH  20  21
HETATM   21  C8  UNK     1      -4.709  -2.532   2.156  1.00  0.00    -0.036 A 
HETATM   22  C12 UNK     1      -5.001  -2.211   3.482  1.00  0.00     0.011 A 
HETATM   23  C14 UNK     1      -6.022  -2.883   4.154  1.00  0.00     0.001 A 
HETATM   24  C16 UNK     1      -6.751  -3.876   3.501  1.00  0.00     0.000 A 
HETATM   25  C15 UNK     1      -6.459  -4.197   2.175  1.00  0.00     0.001 A 
HETATM   26  C13 UNK     1      -5.438  -3.526   1.503  1.00  0.00     0.011 A 
ENDBRANCH  20  21
ENDBRANCH   1  19
TORSDOF 6
