REMARK  5 active torsions:
REMARK  status: ('A' for Active; 'I' for Inactive)
REMARK    1  A    between atoms: C13_16  and  O1_1 
REMARK    2  A    between atoms: C7_10  and  O1_1 
REMARK    3  A    between atoms: C1_4  and  C2_5 
REMARK    4  A    between atoms: C1_4  and  C7_10 
REMARK    5  A    between atoms: C3_6  and  C4_7 
ROOT
HETATM    1  C1  UNK     1       1.232   0.783  -0.284  1.00  0.00     0.051 C 
HETATM    2  C3  UNK     1       1.924   0.810   0.884  1.00  0.00     0.030 C 
ENDROOT
BRANCH   1   3
HETATM    3  C2  UNK     1       1.862   1.126  -1.573  1.00  0.00    -0.020 A 
HETATM    4  C5  UNK     1       2.460   0.126  -2.321  1.00  0.00     0.012 A 
HETATM    5  C10 UNK     1       3.056   0.451  -3.539  1.00  0.00     0.001 A 
HETATM    6  C12 UNK     1       3.044   1.770  -3.992  1.00  0.00     0.000 A 
HETATM    7  C11 UNK     1       2.437   2.765  -3.227  1.00  0.00     0.001 A 
HETATM    8  C6  UNK     1       1.841   2.441  -2.008  1.00  0.00     0.012 A 
ENDBRANCH   1   3
BRANCH   1   9
HETATM    9  C7  UNK     1      -0.211   0.389  -0.201  1.00  0.00     0.300 C 
HETATM   10  O2  UNK     1      -0.933   0.591   0.766  1.00  0.00    -0.259 OA
BRANCH   9  11
HETATM   11  O1  UNK     1      -0.579  -0.222  -1.391  1.00  0.00    -0.256 OA
BRANCH  11  12
HETATM   12  C13 UNK     1      -1.916  -0.627  -1.410  1.00  0.00     0.173 A 
HETATM   13  N1  UNK     1      -2.274  -1.507  -0.466  1.00  0.00    -0.230 NA
HETATM   14  C17 UNK     1      -3.571  -1.888  -0.492  1.00  0.00     0.033 A 
HETATM   15  C19 UNK     1      -4.497  -1.424  -1.412  1.00  0.00     0.027 A 
HETATM   16  C21 UNK     1      -4.002  -2.867   0.549  1.00  0.00     0.070 C 
HETATM   17  C20 UNK     1      -4.064  -0.512  -2.368  1.00  0.00     0.006 A 
HETATM   18  C18 UNK     1      -2.737  -0.097  -2.374  1.00  0.00     0.058 A 
ENDBRANCH  11  12
ENDBRANCH   9  11
ENDBRANCH   1   9
BRANCH   2  19
HETATM   19  C4  UNK     1       1.395   0.491   2.201  1.00  0.00    -0.035 A 
HETATM   20  C8  UNK     1       0.847   1.497   2.995  1.00  0.00     0.011 A 
HETATM   21  C14 UNK     1       0.340   1.191   4.258  1.00  0.00     0.001 A 
HETATM   22  C16 UNK     1       0.381  -0.122   4.726  1.00  0.00     0.000 A 
HETATM   23  C15 UNK     1       0.929  -1.129   3.932  1.00  0.00     0.001 A 
HETATM   24  C9  UNK     1       1.436  -0.823   2.669  1.00  0.00     0.011 A 
ENDBRANCH   2  19
TORSDOF 5
