REMARK  3 active torsions:
REMARK  status: ('A' for Active; 'I' for Inactive)
REMARK    1  A    between atoms: C11_16  and  O2_2 
REMARK    2  A    between atoms: C3_8  and  O2_2 
REMARK       I    between atoms: C10_15  and  N1_5 
REMARK    3  A    between atoms: C10_15  and  C5_10 
ROOT
HETATM    1  O1  UNK     1      -0.176  -0.148  -1.248  1.00  0.00    -0.271 OA
HETATM    2  O3  UNK     1      -2.192  -1.213  -1.384  1.00  0.00    -0.259 OA
HETATM    3  C1  UNK     1       0.727   0.439   0.932  1.00  0.00     0.002 A 
HETATM    4  C2  UNK     1       0.838   0.425  -0.455  1.00  0.00     0.123 A 
HETATM    5  C3  UNK     1       1.941   0.971  -1.109  1.00  0.00     0.103 A 
HETATM    6  C4  UNK     1      -0.452  -0.148   1.549  1.00  0.00     0.037 A 
HETATM    7  C5  UNK     1      -1.411  -0.691   0.791  1.00  0.00     0.108 A 
HETATM    8  C6  UNK     1       1.753   1.017   1.684  1.00  0.00     0.014 A 
HETATM    9  C7  UNK     1       2.959   1.545  -0.351  1.00  0.00     0.040 A 
HETATM   10  C8  UNK     1       2.866   1.568   1.042  1.00  0.00     0.004 A 
HETATM   11  C9  UNK     1      -1.315  -0.717  -0.686  1.00  0.00     0.304 A 
ENDROOT
BRANCH   7  12
HETATM   12  C10 UNK     1      -2.561  -1.258   1.507  1.00  0.00     0.257 C 
HETATM   13  O4  UNK     1      -2.432  -1.730   2.634  1.00  0.00    -0.267 OA
HETATM   14  N1  UNK     1      -3.734  -1.191   0.777  1.00  0.00    -0.361 N 
HETATM   15  C13 UNK     1      -4.998  -1.688   1.272  1.00  0.00     0.149 C 
HETATM   16  H10 UNK     1      -3.747  -0.739  -0.131  1.00  0.00     0.162 HD
ENDBRANCH   7  12
BRANCH   5  17
HETATM   17  O2  UNK     1       2.036   0.951  -2.465  1.00  0.00    -0.349 OA
BRANCH  17  18
HETATM   18  C11 UNK     1       2.758   2.016  -3.083  1.00  0.00     0.171 C 
HETATM   19  C12 UNK     1       2.190   2.261  -4.464  1.00  0.00     0.034 C 
ENDBRANCH  17  18
ENDBRANCH   5  17
TORSDOF 3
