REMARK  1 active torsions:
REMARK  status: ('A' for Active; 'I' for Inactive)
REMARK    1  A    between atoms: C11_16  and  C6_11 
ROOT
HETATM    1  O1  UNK     1       0.242  -2.011   3.155  1.00  0.00    -0.293 OA
HETATM    2  N1  UNK     1      -2.353   0.231  -0.230  1.00  0.00    -0.357 N 
HETATM    3  N2  UNK     1      -0.036  -1.583  -0.850  1.00  0.00    -0.375 N 
HETATM    4  C1  UNK     1      -3.320  -1.276   3.061  1.00  0.00    -0.036 C 
HETATM    5  C2  UNK     1      -3.254  -0.203   1.962  1.00  0.00     0.067 C 
HETATM    6  C3  UNK     1      -1.957  -1.342   3.747  1.00  0.00     0.092 C 
HETATM    7  C4  UNK     1      -2.090  -0.355   0.993  1.00  0.00     0.022 C 
HETATM    8  C5  UNK     1      -0.949  -0.973   1.364  1.00  0.00     0.037 C 
HETATM    9  C6  UNK     1       0.271  -1.123   0.492  1.00  0.00     0.160 C 
HETATM   10  C7  UNK     1      -0.813  -1.502   2.771  1.00  0.00     0.160 C 
HETATM   11  C8  UNK     1      -3.706  -2.649   2.474  1.00  0.00     0.015 C 
HETATM   12  C9  UNK     1      -4.390  -0.880   4.094  1.00  0.00     0.015 C 
HETATM   13  C10 UNK     1      -1.804   0.014  -1.509  1.00  0.00     0.059 A 
HETATM   14  C12 UNK     1      -0.765  -0.885  -1.800  1.00  0.00     0.056 A 
HETATM   15  C13 UNK     1      -2.400   0.727  -2.576  1.00  0.00     0.039 A 
HETATM   16  C14 UNK     1      -0.395  -1.069  -3.152  1.00  0.00     0.038 A 
HETATM   17  C16 UNK     1      -2.006   0.542  -3.900  1.00  0.00    -0.054 A 
HETATM   18  C18 UNK     1      -1.005  -0.368  -4.190  1.00  0.00    -0.054 A 
HETATM   19  C21 UNK     1      -2.682   1.322  -4.979  1.00  0.00     0.049 C 
HETATM   20  C22 UNK     1      -0.557  -0.605  -5.594  1.00  0.00     0.049 C 
HETATM   21  H12 UNK     1      -3.152   0.860  -0.225  1.00  0.00     0.166 HD
HETATM   22  H13 UNK     1       0.558  -2.327  -1.205  1.00  0.00     0.160 HD
ENDROOT
BRANCH   9  23
HETATM   23  C11 UNK     1       1.114   0.115   0.458  1.00  0.00     0.042 A 
HETATM   24  C15 UNK     1       2.364   0.099  -0.345  1.00  0.00     0.195 A 
HETATM   25  O3  UNK     1       2.721  -0.888  -0.974  1.00  0.00    -0.287 OA
HETATM   26  C19 UNK     1       3.157   1.343  -0.343  1.00  0.00     0.048 A 
HETATM   27  C20 UNK     1       2.701   2.437   0.393  1.00  0.00     0.089 A 
HETATM   28  C23 UNK     1       4.349   1.428  -1.067  1.00  0.00     0.018 A 
HETATM   29  O2  UNK     1       1.539   2.409   1.121  1.00  0.00    -0.321 OA
HETATM   30  C24 UNK     1       3.436   3.623   0.409  1.00  0.00     0.038 A 
HETATM   31  C17 UNK     1       0.811   1.244   1.111  1.00  0.00     0.156 A 
HETATM   32  C26 UNK     1       4.626   3.711  -0.313  1.00  0.00     0.003 A 
HETATM   33  C25 UNK     1       5.081   2.616  -1.049  1.00  0.00     0.001 A 
ENDBRANCH   9  23
TORSDOF 1
