REMARK  2 active torsions:
REMARK  status: ('A' for Active; 'I' for Inactive)
REMARK    1  A    between atoms: C11_18  and  N1_6 
REMARK    2  A    between atoms: C1_8  and  C3_10 
ROOT
HETATM    1  O1  UNK     1       1.352   2.094   1.489  1.00  0.00    -0.269 OA
HETATM    2  O2  UNK     1       2.059   2.514  -0.706  1.00  0.00    -0.286 OA
HETATM    3  O5  UNK     1       1.413  -1.356  -1.783  1.00  0.00    -0.287 OA
HETATM    4  N2  UNK     1       0.240  -1.630   4.335  1.00  0.00    -0.191 NA
HETATM    5  C1  UNK     1       0.728  -0.648   0.934  1.00  0.00     0.109 C 
HETATM    6  C2  UNK     1       1.289   0.312  -0.091  1.00  0.00     0.065 A 
HETATM    7  C4  UNK     1       0.747  -0.059   2.338  1.00  0.00     0.086 C 
HETATM    8  C5  UNK     1       1.562   1.597   0.207  1.00  0.00     0.204 A 
HETATM    9  C6  UNK     1       1.578  -0.186  -1.463  1.00  0.00     0.197 A 
HETATM   10  C9  UNK     1       2.080   0.805  -2.425  1.00  0.00     0.049 A 
HETATM   11  C11 UNK     1       1.041   1.244   2.548  1.00  0.00     0.162 C 
HETATM   12  C13 UNK     1       2.294   2.110  -1.993  1.00  0.00     0.092 A 
HETATM   13  C17 UNK     1       2.342   0.448  -3.750  1.00  0.00     0.018 A 
HETATM   14  C18 UNK     1       2.772   3.070  -2.885  1.00  0.00     0.038 A 
HETATM   15  C19 UNK     1       0.467  -0.927   3.441  1.00  0.00     0.100 C 
HETATM   16  C20 UNK     1       2.819   1.410  -4.641  1.00  0.00     0.001 A 
HETATM   17  C21 UNK     1       3.033   2.719  -4.210  1.00  0.00     0.003 A 
ENDROOT
BRANCH   5  18
HETATM   18  C3  UNK     1      -0.661  -1.057   0.564  1.00  0.00    -0.041 A 
HETATM   19  C7  UNK     1      -1.670  -0.097   0.479  1.00  0.00     0.047 A 
HETATM   20  C10 UNK     1      -2.964  -0.481   0.126  1.00  0.00     0.102 A 
HETATM   21  O3  UNK     1      -3.908   0.509   0.038  1.00  0.00    -0.346 OA
HETATM   22  C12 UNK     1      -3.255  -1.827  -0.113  1.00  0.00     0.102 A 
HETATM   23  C15 UNK     1      -5.080   0.070  -0.653  1.00  0.00     0.202 C 
HETATM   24  C16 UNK     1      -5.513  -1.291  -0.141  1.00  0.00     0.202 C 
HETATM   25  O4  UNK     1      -4.512  -2.270  -0.431  1.00  0.00    -0.346 OA
HETATM   26  C14 UNK     1      -2.242  -2.783  -0.041  1.00  0.00     0.040 A 
HETATM   27  C8  UNK     1      -0.945  -2.397   0.299  1.00  0.00     0.011 A 
ENDBRANCH   5  18
BRANCH  11  28
HETATM   28  N1  UNK     1       1.065   1.858   3.771  1.00  0.00    -0.379 N 
HETATM   29  H11 UNK     1       0.854   1.344   4.616  1.00  0.00     0.158 HD
HETATM   30  H12 UNK     1       1.297   2.842   3.818  1.00  0.00     0.158 HD
ENDBRANCH  11  28
TORSDOF 2
