REMARK  8 active torsions:
REMARK  status: ('A' for Active; 'I' for Inactive)
REMARK    1  A    between atoms: C2_8  and  O1_1 
REMARK    2  A    between atoms: C4_10  and  O1_1 
REMARK    3  A    between atoms: C17_23  and  O2_2 
REMARK    4  A    between atoms: C8_14  and  O2_2 
REMARK    5  A    between atoms: C14_20  and  N1_5 
REMARK    6  A    between atoms: C1_7  and  C6_12 
REMARK    7  A    between atoms: C4_10  and  C8_14 
REMARK    8  A    between atoms: C5_11  and  C7_13 
ROOT
HETATM    1  N2  UNK     1      -1.680   2.180   1.233  1.00  0.00    -0.191 NA
HETATM    2  C6  UNK     1      -0.358  -0.950   1.818  1.00  0.00     0.035 C 
HETATM    3  C7  UNK     1      -1.575  -0.395   1.573  1.00  0.00     0.055 C 
HETATM    4  C22 UNK     1      -1.624   1.031   1.386  1.00  0.00     0.100 C 
ENDROOT
BRANCH   3   5
HETATM    5  C5  UNK     1      -2.810  -1.159   1.486  1.00  0.00    -0.015 A 
HETATM    6  C12 UNK     1      -3.226  -1.674   0.258  1.00  0.00     0.015 A 
HETATM    7  C15 UNK     1      -4.410  -2.409   0.175  1.00  0.00     0.037 A 
HETATM    8  C14 UNK     1      -5.177  -2.627   1.320  1.00  0.00     0.102 A 
HETATM    9  C16 UNK     1      -4.760  -2.111   2.547  1.00  0.00     0.037 A 
HETATM   10  C13 UNK     1      -3.577  -1.377   2.630  1.00  0.00     0.015 A 
BRANCH   8  11
HETATM   11  N1  UNK     1      -6.381  -3.373   1.236  1.00  0.00    -0.116 N 
HETATM   12  O3  UNK     1      -6.739  -3.828   0.123  1.00  0.00    -0.532 OA
HETATM   13  O4  UNK     1      -7.056  -3.558   2.278  1.00  0.00    -0.532 OA
ENDBRANCH   8  11
ENDBRANCH   3   5
BRANCH   2  14
HETATM   14  C1  UNK     1       0.914  -0.219   1.908  1.00  0.00    -0.032 A 
HETATM   15  C3  UNK     1       1.680  -0.039   0.766  1.00  0.00     0.048 A 
HETATM   16  C2  UNK     1       2.888   0.654   0.853  1.00  0.00     0.069 A 
HETATM   17  C10 UNK     1       3.315   1.159   2.081  1.00  0.00     0.037 A 
HETATM   18  C11 UNK     1       2.535   0.972   3.222  1.00  0.00     0.004 A 
HETATM   19  C9  UNK     1       1.328   0.278   3.135  1.00  0.00     0.011 A 
BRANCH  16  20
HETATM   20  O1  UNK     1       3.649   0.838  -0.261  1.00  0.00    -0.349 OA
BRANCH  20  21
HETATM   21  C4  UNK     1       4.451   2.016  -0.311  1.00  0.00     0.202 C 
BRANCH  21  22
HETATM   22  C8  UNK     1       4.632   2.430  -1.759  1.00  0.00     0.202 C 
BRANCH  22  23
HETATM   23  O2  UNK     1       3.355   2.669  -2.336  1.00  0.00    -0.349 OA
BRANCH  23  24
HETATM   24  C17 UNK     1       3.236   2.450  -3.684  1.00  0.00     0.068 A 
HETATM   25  C18 UNK     1       4.338   2.632  -4.511  1.00  0.00     0.037 A 
HETATM   26  C20 UNK     1       4.217   2.411  -5.883  1.00  0.00     0.003 A 
HETATM   27  C23 UNK     1       2.993   2.008  -6.418  1.00  0.00     0.000 A 
HETATM   28  C21 UNK     1       1.892   1.827  -5.582  1.00  0.00     0.003 A 
HETATM   29  C19 UNK     1       2.013   2.049  -4.211  1.00  0.00     0.037 A 
ENDBRANCH  23  24
ENDBRANCH  22  23
ENDBRANCH  21  22
ENDBRANCH  20  21
ENDBRANCH  16  20
ENDBRANCH   2  14
TORSDOF 8
