REMARK  4 active torsions:
REMARK  status: ('A' for Active; 'I' for Inactive)
REMARK    1  A    between atoms: C7_13  and  S1_1 
REMARK    2  A    between atoms: O2_3  and  S1_1 
REMARK    3  A    between atoms: C2_8  and  O2_3 
REMARK    4  A    between atoms: C1_7  and  C4_10 
ROOT
HETATM    1  O1  UNK     1      -2.055  -0.126   2.214  1.00  0.00    -0.306 OA
HETATM    2  O3  UNK     1      -2.710  -1.694  -1.489  1.00  0.00    -0.284 OA
HETATM    3  C1  UNK     1      -1.292   0.255   1.122  1.00  0.00     0.125 A 
HETATM    4  C2  UNK     1      -1.449  -0.226  -0.124  1.00  0.00     0.175 A 
HETATM    5  C3  UNK     1      -3.336  -1.610   0.783  1.00  0.00     0.051 A 
HETATM    6  C5  UNK     1      -3.059  -1.039   2.024  1.00  0.00     0.090 A 
HETATM    7  C6  UNK     1      -2.519  -1.222  -0.376  1.00  0.00     0.222 A 
HETATM    8  C10 UNK     1      -4.373  -2.537   0.649  1.00  0.00     0.018 A 
HETATM    9  C11 UNK     1      -3.818  -1.393   3.140  1.00  0.00     0.038 A 
HETATM   10  C18 UNK     1      -5.131  -2.889   1.766  1.00  0.00     0.001 A 
HETATM   11  C19 UNK     1      -4.855  -2.318   3.009  1.00  0.00     0.003 A 
ENDROOT
BRANCH   4  12
HETATM   12  O2  UNK     1      -0.650   0.150  -1.182  1.00  0.00    -0.222 OA
BRANCH  12  13
HETATM   13  S1  UNK     1       0.704  -0.685  -1.506  1.00  0.00     0.303 S 
HETATM   14  O4  UNK     1       1.451  -0.885  -0.279  1.00  0.00    -0.193 OA
HETATM   15  O5  UNK     1       0.356  -1.798  -2.370  1.00  0.00    -0.193 OA
BRANCH  13  16
HETATM   16  C7  UNK     1       1.659   0.440  -2.475  1.00  0.00     0.086 A 
HETATM   17  C15 UNK     1       2.544   1.319  -1.852  1.00  0.00     0.026 A 
HETATM   18  C20 UNK     1       3.297   2.210  -2.617  1.00  0.00     0.008 A 
HETATM   19  C17 UNK     1       3.164   2.222  -4.006  1.00  0.00    -0.062 A 
HETATM   20  C21 UNK     1       2.278   1.343  -4.629  1.00  0.00     0.008 A 
HETATM   21  C23 UNK     1       3.968   3.175  -4.824  1.00  0.00     0.048 C 
HETATM   22  C16 UNK     1       1.525   0.452  -3.864  1.00  0.00     0.026 A 
ENDBRANCH  13  16
ENDBRANCH  12  13
ENDBRANCH   4  12
BRANCH   3  23
HETATM   23  C4  UNK     1      -0.251   1.240   1.464  1.00  0.00     0.001 A 
HETATM   24  C8  UNK     1      -0.236   2.485   0.835  1.00  0.00     0.015 A 
HETATM   25  C13 UNK     1       0.749   3.418   1.159  1.00  0.00     0.007 A 
HETATM   26  C12 UNK     1       1.719   3.107   2.112  1.00  0.00    -0.062 A 
HETATM   27  C14 UNK     1       1.704   1.862   2.741  1.00  0.00     0.007 A 
HETATM   28  C22 UNK     1       2.772   4.104   2.458  1.00  0.00     0.048 C 
HETATM   29  C9  UNK     1       0.719   0.928   2.417  1.00  0.00     0.015 A 
ENDBRANCH   3  23
TORSDOF 4
