REMARK  7 active torsions:
REMARK  status: ('A' for Active; 'I' for Inactive)
REMARK    1  A    between atoms: C14_17  and  O3_3 
REMARK    2  A    between atoms: C16_19  and  O3_3 
REMARK    3  A    between atoms: C1_4  and  C2_5 
REMARK    4  A    between atoms: C1_4  and  C3_6 
REMARK    5  A    between atoms: C2_5  and  C4_7 
REMARK    6  A    between atoms: C4_7  and  C7_10 
REMARK    7  A    between atoms: C16_19  and  C17_20 
ROOT
HETATM    1  O1  UNK     1      -0.866   0.872  -1.403  1.00  0.00    -0.274 OA
HETATM    2  O2  UNK     1      -3.040   0.239  -1.253  1.00  0.00    -0.259 OA
HETATM    3  C3  UNK     1      -1.744   0.039   0.736  1.00  0.00     0.024 A 
HETATM    4  C5  UNK     1      -0.534   0.168   1.320  1.00  0.00    -0.037 A 
HETATM    5  C6  UNK     1       0.595   0.713   0.537  1.00  0.00     0.005 A 
HETATM    6  C8  UNK     1       0.389   1.045  -0.799  1.00  0.00     0.092 A 
HETATM    7  C9  UNK     1      -1.954   0.384  -0.700  1.00  0.00     0.295 A 
HETATM    8  C10 UNK     1      -0.245  -0.229   2.746  1.00  0.00     0.050 C 
HETATM    9  C11 UNK     1       1.879   0.932   1.059  1.00  0.00     0.017 A 
HETATM   10  C13 UNK     1       1.402   1.565  -1.610  1.00  0.00     0.075 A 
HETATM   11  C14 UNK     1       2.667   1.768  -1.073  1.00  0.00     0.071 A 
HETATM   12  C15 UNK     1       2.906   1.453   0.262  1.00  0.00     0.038 A 
ENDROOT
BRANCH   3  13
HETATM   13  C1  UNK     1      -2.991  -0.441   1.435  1.00  0.00     0.045 C 
BRANCH  13  14
HETATM   14  C2  UNK     1      -3.172  -1.953   1.358  1.00  0.00     0.005 C 
BRANCH  14  15
HETATM   15  C4  UNK     1      -4.394  -2.456   2.133  1.00  0.00    -0.000 C 
BRANCH  15  16
HETATM   16  C7  UNK     1      -4.514  -3.978   2.049  1.00  0.00    -0.005 C 
HETATM   17  C12 UNK     1      -5.701  -4.489   2.851  1.00  0.00     0.005 C 
ENDBRANCH  15  16
ENDBRANCH  14  15
ENDBRANCH  13  14
ENDBRANCH   3  13
BRANCH  11  18
HETATM   18  O3  UNK     1       3.666   2.273  -1.845  1.00  0.00    -0.347 OA
BRANCH  18  19
HETATM   19  C16 UNK     1       3.624   1.976  -3.240  1.00  0.00     0.202 C 
BRANCH  19  20
HETATM   20  C17 UNK     1       5.017   1.991  -3.776  1.00  0.00    -0.011 C 
HETATM   21  C18 UNK     1       5.606   0.939  -4.355  1.00  0.00     0.009 C 
ENDBRANCH  19  20
ENDBRANCH  18  19
ENDBRANCH  11  18
TORSDOF 7
