REMARK  3 active torsions:
REMARK  status: ('A' for Active; 'I' for Inactive)
REMARK       I    between atoms: C17_23  and  N1_5 
REMARK    1  A    between atoms: N1_5  and  N2_6 
REMARK    2  A    between atoms: C15_21  and  C4_10 
REMARK    3  A    between atoms: C17_23  and  C7_13 
ROOT
HETATM    1  N2  UNK     1       0.415   0.322  -0.605  1.00  0.00    -0.183 NA
HETATM    2  C15 UNK     1      -0.717   0.014  -1.150  1.00  0.00     0.156 C 
ENDROOT
BRANCH   2   3
HETATM    3  C4  UNK     1      -1.824  -0.563  -0.388  1.00  0.00     0.056 A 
HETATM    4  C3  UNK     1      -1.759  -0.846   1.063  1.00  0.00     0.198 A 
HETATM    5  C1  UNK     1      -2.974  -1.432   1.661  1.00  0.00     0.050 A 
HETATM    6  O2  UNK     1      -0.760  -0.611   1.728  1.00  0.00    -0.286 OA
HETATM    7  C2  UNK     1      -4.082  -1.675   0.847  1.00  0.00     0.089 A 
HETATM    8  C5  UNK     1      -3.019  -1.740   3.023  1.00  0.00     0.042 A 
HETATM    9  O1  UNK     1      -4.094  -1.393  -0.497  1.00  0.00    -0.321 OA
HETATM   10  C6  UNK     1      -5.240  -2.229   1.393  1.00  0.00     0.040 A 
HETATM   11  C9  UNK     1      -2.955  -0.849  -1.043  1.00  0.00     0.159 A 
HETATM   12  C11 UNK     1      -5.288  -2.537   2.752  1.00  0.00     0.026 A 
HETATM   13  C10 UNK     1      -4.180  -2.293   3.565  1.00  0.00     0.035 A 
HETATM   14 Cl1  UNK     1      -4.245  -2.678   5.242  1.00  0.00    -0.084 Cl
ENDBRANCH   2   3
BRANCH   1  15
HETATM   15  N1  UNK     1       1.320   0.844  -1.470  1.00  0.00    -0.243 N 
HETATM   16  C17 UNK     1       2.556   1.244  -0.978  1.00  0.00     0.271 C 
HETATM   17  O3  UNK     1       2.852   1.137   0.214  1.00  0.00    -0.266 OA
HETATM   18  H13 UNK     1       1.024   0.972  -2.431  1.00  0.00     0.192 HD
BRANCH  16  19
HETATM   19  C7  UNK     1       3.476   1.826  -1.967  1.00  0.00     0.034 A 
HETATM   20  C12 UNK     1       4.439   2.733  -1.551  1.00  0.00     0.024 A 
HETATM   21  C8  UNK     1       5.311   3.285  -2.489  1.00  0.00    -0.061 A 
HETATM   22  C14 UNK     1       5.210   2.923  -3.833  1.00  0.00     0.007 A 
HETATM   23  C18 UNK     1       6.352   4.261  -2.056  1.00  0.00     0.048 C 
HETATM   24  C16 UNK     1       4.237   2.010  -4.238  1.00  0.00     0.002 A 
HETATM   25  C13 UNK     1       3.365   1.458  -3.300  1.00  0.00     0.017 A 
ENDBRANCH  16  19
ENDBRANCH   1  15
TORSDOF 3
