REMARK  4 active torsions:
REMARK  status: ('A' for Active; 'I' for Inactive)
REMARK    1  A    between atoms: C14_20  and  O2_2 
REMARK    2  A    between atoms: C19_25  and  O2_2 
REMARK    3  A    between atoms: C12_18  and  C6_12 
REMARK    4  A    between atoms: C10_16  and  C14_20 
ROOT
HETATM    1  O1  UNK     1       1.225  -1.081  -2.787  1.00  0.00    -0.293 OA
HETATM    2  N1  UNK     1       2.520   2.107   0.465  1.00  0.00    -0.362 N 
HETATM    3  C1  UNK     1       2.685   2.225  -3.311  1.00  0.00    -0.036 C 
HETATM    4  C2  UNK     1       3.193   2.454  -1.872  1.00  0.00     0.067 C 
HETATM    5  C3  UNK     1       2.585   0.716  -3.577  1.00  0.00     0.092 C 
HETATM    6  C4  UNK     1       2.457   1.644  -0.835  1.00  0.00     0.021 C 
HETATM    7  C5  UNK     1       1.770   0.520  -1.124  1.00  0.00     0.024 C 
HETATM    8  C6  UNK     1       1.004  -0.238  -0.044  1.00  0.00     0.104 C 
HETATM    9  C7  UNK     1       1.791  -0.022  -2.517  1.00  0.00     0.159 C 
HETATM   10  C8  UNK     1       3.683   2.850  -4.303  1.00  0.00     0.015 C 
HETATM   11  C9  UNK     1       1.314   2.902  -3.522  1.00  0.00     0.015 C 
HETATM   12  C10 UNK     1       1.278   0.302   1.361  1.00  0.00     0.052 C 
HETATM   13  C11 UNK     1       1.986   1.439   1.555  1.00  0.00     0.018 C 
HETATM   14  C13 UNK     1       2.266   2.073   2.891  1.00  0.00     0.069 C 
HETATM   15  H12 UNK     1       3.050   2.953   0.642  1.00  0.00     0.165 HD
ENDROOT
BRANCH   8  16
HETATM   16  C12 UNK     1      -0.473  -0.208  -0.331  1.00  0.00     0.029 A 
HETATM   17  C15 UNK     1      -1.172  -1.494  -0.577  1.00  0.00     0.194 A 
HETATM   18  O5  UNK     1      -0.587  -2.569  -0.554  1.00  0.00    -0.287 OA
HETATM   19  C17 UNK     1      -2.618  -1.409  -0.855  1.00  0.00     0.048 A 
HETATM   20  C18 UNK     1      -3.233  -0.156  -0.869  1.00  0.00     0.089 A 
HETATM   21  C20 UNK     1      -3.366  -2.563  -1.100  1.00  0.00     0.018 A 
HETATM   22  O3  UNK     1      -2.548   1.009  -0.635  1.00  0.00    -0.321 OA
HETATM   23  C21 UNK     1      -4.600  -0.052  -1.129  1.00  0.00     0.038 A 
HETATM   24  C16 UNK     1      -1.202   0.914  -0.379  1.00  0.00     0.154 A 
HETATM   25  C25 UNK     1      -5.349  -1.203  -1.374  1.00  0.00     0.003 A 
HETATM   26  C22 UNK     1      -4.734  -2.455  -1.359  1.00  0.00     0.001 A 
ENDBRANCH   8  16
BRANCH  12  27
HETATM   27  C14 UNK     1       0.785  -0.507   2.488  1.00  0.00     0.292 C 
HETATM   28  O4  UNK     1       1.425  -1.411   2.993  1.00  0.00    -0.259 OA
BRANCH  27  29
HETATM   29  O2  UNK     1      -0.450  -0.063   2.823  1.00  0.00    -0.313 OA
BRANCH  29  30
HETATM   30  C19 UNK     1      -1.068  -0.756   3.913  1.00  0.00     0.124 C 
HETATM   31  C23 UNK     1      -0.183  -0.642   5.145  1.00  0.00     0.040 C 
HETATM   32  C24 UNK     1      -2.453  -0.175   4.154  1.00  0.00     0.040 C 
ENDBRANCH  29  30
ENDBRANCH  27  29
ENDBRANCH  12  27
TORSDOF 4
