REMARK  7 active torsions:
REMARK  status: ('A' for Active; 'I' for Inactive)
REMARK    1  A    between atoms: C1_7  and  O1_1 
REMARK    2  A    between atoms: C3_9  and  O1_1 
REMARK    3  A    between atoms: C5_11  and  O2_2 
REMARK    4  A    between atoms: C20_26  and  N1_5 
REMARK    5  A    between atoms: C1_7  and  C2_8 
REMARK    6  A    between atoms: C12_18  and  C6_12 
REMARK    7  A    between atoms: C15_21  and  C16_22 
ROOT
HETATM    1  N2  UNK     1      -5.560  -2.777  -1.755  1.00  0.00    -0.191 NA
HETATM    2  C12 UNK     1      -2.631  -0.958  -1.774  1.00  0.00     0.035 C 
HETATM    3  C15 UNK     1      -3.455  -1.539  -0.862  1.00  0.00     0.055 C 
HETATM    4  C24 UNK     1      -4.618  -2.222  -1.366  1.00  0.00     0.100 C 
ENDROOT
BRANCH   3   5
HETATM    5  C16 UNK     1      -3.221  -1.512   0.573  1.00  0.00    -0.015 A 
HETATM    6  C18 UNK     1      -2.472  -2.522   1.177  1.00  0.00     0.015 A 
HETATM    7  C21 UNK     1      -2.246  -2.494   2.554  1.00  0.00     0.037 A 
HETATM    8  C20 UNK     1      -2.770  -1.457   3.325  1.00  0.00     0.102 A 
HETATM    9  C22 UNK     1      -3.519  -0.447   2.721  1.00  0.00     0.037 A 
HETATM   10  C19 UNK     1      -3.745  -0.475   1.345  1.00  0.00     0.015 A 
BRANCH   8  11
HETATM   11  N1  UNK     1      -2.541  -1.428   4.726  1.00  0.00    -0.116 N 
HETATM   12  O3  UNK     1      -1.865  -2.346   5.251  1.00  0.00    -0.532 OA
HETATM   13  O4  UNK     1      -3.020  -0.485   5.402  1.00  0.00    -0.532 OA
ENDBRANCH   8  11
ENDBRANCH   3   5
BRANCH   2  14
HETATM   14  C6  UNK     1      -1.411  -0.199  -1.465  1.00  0.00    -0.032 A 
HETATM   15  C10 UNK     1      -0.198  -0.865  -1.373  1.00  0.00     0.051 A 
HETATM   16  C5  UNK     1       0.960  -0.144  -1.079  1.00  0.00     0.102 A 
HETATM   17  C3  UNK     1       0.891   1.235  -0.881  1.00  0.00     0.103 A 
HETATM   18  C7  UNK     1      -0.335   1.893  -0.977  1.00  0.00     0.040 A 
HETATM   19  C11 UNK     1      -1.492   1.172  -1.270  1.00  0.00     0.014 A 
BRANCH  16  20
HETATM   20  O2  UNK     1       2.151  -0.798  -0.989  1.00  0.00    -0.353 OA
HETATM   21  C23 UNK     1       2.521  -1.297   0.295  1.00  0.00     0.210 C 
ENDBRANCH  16  20
BRANCH  17  22
HETATM   22  O1  UNK     1       2.015   1.950  -0.595  1.00  0.00    -0.339 OA
BRANCH  22  23
HETATM   23  C1  UNK     1       2.375   2.985  -1.507  1.00  0.00     0.158 C 
HETATM   24  C4  UNK     1       2.350   4.330  -0.789  1.00  0.00     0.045 C 
BRANCH  23  25
HETATM   25  C2  UNK     1       3.732   2.681  -2.094  1.00  0.00    -0.029 A 
HETATM   26  C8  UNK     1       4.019   3.088  -3.387  1.00  0.00     0.010 A 
HETATM   27  C13 UNK     1       5.273   2.806  -3.930  1.00  0.00     0.001 A 
HETATM   28  C17 UNK     1       6.223   2.122  -3.172  1.00  0.00     0.000 A 
HETATM   29  C14 UNK     1       5.920   1.719  -1.871  1.00  0.00     0.001 A 
HETATM   30  C9  UNK     1       4.666   2.001  -1.329  1.00  0.00     0.010 A 
ENDBRANCH  23  25
ENDBRANCH  22  23
ENDBRANCH  17  22
ENDBRANCH   2  14
TORSDOF 7
