REMARK  3 active torsions:
REMARK  status: ('A' for Active; 'I' for Inactive)
REMARK    1  A    between atoms: C3_8  and  O2_2 
REMARK    2  A    between atoms: C10_15  and  O4_4 
REMARK    3  A    between atoms: C10_15  and  C6_11 
ROOT
HETATM    1  O1  UNK     1      -0.555   0.210  -1.363  1.00  0.00    -0.271 OA
HETATM    2  O3  UNK     1      -2.599  -0.809  -1.307  1.00  0.00    -0.259 OA
HETATM    3  C1  UNK     1       0.729   0.437   0.689  1.00  0.00     0.002 A 
HETATM    4  C2  UNK     1       0.598   0.643  -0.681  1.00  0.00     0.123 A 
HETATM    5  C3  UNK     1       1.591   1.278  -1.425  1.00  0.00     0.102 A 
HETATM    6  C4  UNK     1      -0.346  -0.232   1.405  1.00  0.00     0.039 A 
HETATM    7  C5  UNK     1       1.888   0.881   1.330  1.00  0.00     0.014 A 
HETATM    8  C6  UNK     1      -1.439  -0.642   0.752  1.00  0.00     0.114 A 
HETATM    9  C7  UNK     1       2.743   1.718  -0.778  1.00  0.00     0.040 A 
HETATM   10  C8  UNK     1       2.892   1.520   0.597  1.00  0.00     0.004 A 
HETATM   11  C9  UNK     1      -1.599  -0.435  -0.705  1.00  0.00     0.305 A 
ENDROOT
BRANCH   8  12
HETATM   12  C10 UNK     1      -2.467  -1.307   1.561  1.00  0.00     0.182 C 
HETATM   13  O5  UNK     1      -2.207  -1.956   2.564  1.00  0.00    -0.646 OA
BRANCH  12  14
HETATM   14  O4  UNK     1      -3.682  -1.081   1.032  1.00  0.00    -0.772 OA
HETATM   15  H8  UNK     1      -4.397  -1.509   1.549  1.00  0.00     0.167 HD
ENDBRANCH  12  14
ENDBRANCH   8  12
BRANCH   5  16
HETATM   16  O2  UNK     1       1.450   1.473  -2.763  1.00  0.00    -0.353 OA
HETATM   17  C11 UNK     1       1.935   0.444  -3.625  1.00  0.00     0.210 C 
ENDBRANCH   5  16
TORSDOF 3
