REMARK  7 active torsions:
REMARK  status: ('A' for Active; 'I' for Inactive)
REMARK    1  A    between atoms: C12_20  and  O2_2 
REMARK    2  A    between atoms: C19_27  and  O2_2 
REMARK    3  A    between atoms: C26_34  and  N2_8 
REMARK    4  A    between atoms: C1_9  and  C9_17 
REMARK    5  A    between atoms: C11_19  and  C4_12 
REMARK    6  A    between atoms: C12_20  and  C8_16 
REMARK    7  A    between atoms: C13_21  and  C19_27 
ROOT
HETATM    1  O1  UNK     1      -1.700   2.271   1.018  1.00  0.00    -0.293 OA
HETATM    2  N1  UNK     1      -1.081  -1.381  -1.937  1.00  0.00    -0.362 N 
HETATM    3  C1  UNK     1      -3.444  -0.869   0.931  1.00  0.00     0.031 C 
HETATM    4  C2  UNK     1      -2.489  -1.689   0.051  1.00  0.00     0.067 C 
HETATM    5  C3  UNK     1      -1.299   0.467  -0.473  1.00  0.00     0.024 C 
HETATM    6  C4  UNK     1      -0.384   1.307  -1.359  1.00  0.00     0.104 C 
HETATM    7  C5  UNK     1      -1.586  -0.815  -0.782  1.00  0.00     0.021 C 
HETATM    8  C6  UNK     1      -2.666   0.197   1.704  1.00  0.00     0.093 C 
HETATM    9  C7  UNK     1      -1.887   1.083   0.757  1.00  0.00     0.159 C 
HETATM   10  C8  UNK     1      -0.015   0.602  -2.667  1.00  0.00     0.052 C 
HETATM   11  C10 UNK     1      -0.355  -0.688  -2.893  1.00  0.00     0.018 C 
HETATM   12  C16 UNK     1      -0.048  -1.474  -4.140  1.00  0.00     0.069 C 
HETATM   13  H7  UNK     1      -1.328  -2.344  -2.139  1.00  0.00     0.165 HD
ENDROOT
BRANCH   6  14
HETATM   14  C11 UNK     1       0.863   1.692  -0.610  1.00  0.00     0.029 A 
HETATM   15  C18 UNK     1       1.770   0.614  -0.142  1.00  0.00     0.194 A 
HETATM   16  C25 UNK     1       2.976   1.046   0.589  1.00  0.00     0.048 A 
HETATM   17  O6  UNK     1       1.535  -0.569  -0.347  1.00  0.00    -0.287 OA
HETATM   18  C27 UNK     1       3.193   2.409   0.795  1.00  0.00     0.089 A 
HETATM   19  C28 UNK     1       3.892   0.107   1.071  1.00  0.00     0.018 A 
HETATM   20  C29 UNK     1       4.328   2.840   1.483  1.00  0.00     0.038 A 
HETATM   21  O4  UNK     1       2.328   3.373   0.343  1.00  0.00    -0.321 OA
HETATM   22  C31 UNK     1       5.243   1.904   1.965  1.00  0.00     0.003 A 
HETATM   23  C30 UNK     1       5.026   0.541   1.759  1.00  0.00     0.001 A 
HETATM   24  C21 UNK     1       1.209   2.957  -0.335  1.00  0.00     0.154 A 
ENDBRANCH   6  14
BRANCH  10  25
HETATM   25  C12 UNK     1       0.721   1.405  -3.658  1.00  0.00     0.292 C 
HETATM   26  O5  UNK     1       0.174   2.072  -4.516  1.00  0.00    -0.259 OA
BRANCH  25  27
HETATM   27  O2  UNK     1       2.047   1.254  -3.430  1.00  0.00    -0.315 OA
BRANCH  27  28
HETATM   28  C19 UNK     1       2.902   1.980  -4.320  1.00  0.00     0.211 C 
BRANCH  28  29
HETATM   29  C13 UNK     1       4.346   1.715  -3.943  1.00  0.00     0.145 C 
HETATM   30  C17 UNK     1       5.346   2.431  -4.835  1.00  0.00     0.036 C 
HETATM   31  C20 UNK     1       6.537   2.549  -3.918  1.00  0.00     0.029 C 
HETATM   32  C22 UNK     1       5.878   2.828  -2.583  1.00  0.00     0.168 C 
HETATM   33  O3  UNK     1       4.596   2.182  -2.607  1.00  0.00    -0.384 OA
ENDBRANCH  28  29
ENDBRANCH  27  28
ENDBRANCH  25  27
ENDBRANCH  10  25
BRANCH   3  34
HETATM   34  C9  UNK     1      -4.273  -1.753   1.843  1.00  0.00    -0.053 A 
HETATM   35  C14 UNK     1      -5.660  -1.776   1.715  1.00  0.00     0.010 A 
HETATM   36  C23 UNK     1      -6.422  -2.589   2.554  1.00  0.00     0.030 A 
HETATM   37  C26 UNK     1      -5.795  -3.377   3.519  1.00  0.00     0.029 A 
HETATM   38  C24 UNK     1      -4.406  -3.352   3.646  1.00  0.00     0.030 A 
HETATM   39  C15 UNK     1      -3.644  -2.539   2.807  1.00  0.00     0.010 A 
BRANCH  37  40
HETATM   40  N2  UNK     1      -6.566  -4.200   4.368  1.00  0.00    -0.390 N 
HETATM   41  C32 UNK     1      -7.823  -4.754   3.908  1.00  0.00     0.149 C 
HETATM   42  C33 UNK     1      -6.103  -4.512   5.705  1.00  0.00     0.149 C 
ENDBRANCH  37  40
ENDBRANCH   3  34
TORSDOF 7
