REMARK  4 active torsions:
REMARK  status: ('A' for Active; 'I' for Inactive)
REMARK    1  A    between atoms: C10_15  and  O2_2 
REMARK    2  A    between atoms: C5_10  and  O2_2 
REMARK    3  A    between atoms: C4_9  and  O3_3 
REMARK    4  A    between atoms: C8_13  and  O5_5 
ROOT
HETATM    1  O1  UNK     1       2.012   1.004   1.158  1.00  0.00    -0.319 OA
HETATM    2  O4  UNK     1      -0.623  -1.126  -1.120  1.00  0.00    -0.284 OA
HETATM    3  C1  UNK     1       1.123   0.484  -1.045  1.00  0.00     0.084 A 
HETATM    4  C2  UNK     1       1.996   1.177  -0.204  1.00  0.00     0.094 A 
HETATM    5  C3  UNK     1       0.173  -0.478  -0.455  1.00  0.00     0.223 A 
HETATM    6  C4  UNK     1       1.152   0.700  -2.425  1.00  0.00     0.085 A 
HETATM    7  C5  UNK     1       0.232  -0.626   1.016  1.00  0.00     0.149 A 
HETATM    8  C6  UNK     1       2.903   2.092  -0.741  1.00  0.00     0.074 A 
HETATM    9  C7  UNK     1       2.061   1.616  -2.958  1.00  0.00     0.074 A 
HETATM   10  C8  UNK     1       2.934   2.310  -2.119  1.00  0.00     0.071 A 
HETATM   11  C9  UNK     1       1.122   0.105   1.694  1.00  0.00     0.184 A 
ENDROOT
BRANCH   7  12
HETATM   12  O2  UNK     1      -0.620  -1.503   1.645  1.00  0.00    -0.305 OA
BRANCH  12  13
HETATM   13  C10 UNK     1      -1.961  -1.281   1.497  1.00  0.00     0.076 A 
HETATM   14  C11 UNK     1      -2.467   0.009   1.634  1.00  0.00     0.037 A 
HETATM   15  C13 UNK     1      -3.835   0.236   1.484  1.00  0.00     0.003 A 
HETATM   16  C15 UNK     1      -4.691  -0.828   1.198  1.00  0.00     0.000 A 
HETATM   17  C14 UNK     1      -4.179  -2.118   1.062  1.00  0.00     0.003 A 
HETATM   18  C12 UNK     1      -2.811  -2.345   1.212  1.00  0.00     0.037 A 
ENDBRANCH  12  13
ENDBRANCH   7  12
BRANCH   6  19
HETATM   19  O3  UNK     1       0.323   0.051  -3.288  1.00  0.00    -0.360 OA
HETATM   20  H6  UNK     1      -0.262  -0.554  -2.806  1.00  0.00     0.217 HD
ENDBRANCH   6  19
BRANCH  10  21
HETATM   21  O5  UNK     1       3.817   3.202  -2.646  1.00  0.00    -0.361 OA
HETATM   22  H10 UNK     1       3.702   3.227  -3.611  1.00  0.00     0.217 HD
ENDBRANCH  10  21
TORSDOF 4
