REMARK  1 active torsions:
REMARK  status: ('A' for Active; 'I' for Inactive)
REMARK       I    between atoms: C7_11  and  N1_4 
REMARK    1  A    between atoms: C7_11  and  C8_12 
ROOT
HETATM    1  O2  UNK     1       0.493   2.324  -1.322  1.00  0.00    -0.274 OA
HETATM    2  O3  UNK     1      -1.702   1.754  -1.040  1.00  0.00    -0.259 OA
HETATM    3  C8  UNK     1      -0.126  -0.012  -0.949  1.00  0.00     0.108 A 
HETATM    4  C9  UNK     1       1.156  -0.391  -1.016  1.00  0.00     0.037 A 
HETATM    5  C10 UNK     1       2.200   0.595  -1.247  1.00  0.00    -0.001 A 
HETATM    6  C11 UNK     1      -0.529   1.404  -1.103  1.00  0.00     0.304 A 
HETATM    7  C12 UNK     1       1.843   1.932  -1.394  1.00  0.00     0.089 A 
HETATM    8  C13 UNK     1       3.550   0.245  -1.325  1.00  0.00     0.014 A 
HETATM    9  C14 UNK     1       2.795   2.925  -1.616  1.00  0.00     0.038 A 
HETATM   10  C15 UNK     1       4.517   1.231  -1.547  1.00  0.00     0.001 A 
HETATM   11  C16 UNK     1       4.139   2.568  -1.692  1.00  0.00     0.003 A 
ENDROOT
BRANCH   3  12
HETATM   12  C7  UNK     1      -1.113  -1.087  -0.711  1.00  0.00     0.259 C 
HETATM   13  O1  UNK     1      -1.590  -1.654  -1.696  1.00  0.00    -0.267 OA
HETATM   14  N1  UNK     1      -1.430  -1.391   0.619  1.00  0.00    -0.348 N 
HETATM   15  C5  UNK     1      -0.839  -0.691   1.767  1.00  0.00     0.126 C 
HETATM   16  C6  UNK     1      -2.395  -2.464   0.870  1.00  0.00     0.126 C 
HETATM   17  C3  UNK     1      -1.546  -0.834   3.114  1.00  0.00     0.020 C 
HETATM   18  C1  UNK     1      -3.005  -0.383   3.087  1.00  0.00     0.002 C 
HETATM   19  C2  UNK     1      -3.967  -1.474   2.625  1.00  0.00     0.002 C 
HETATM   20  C4  UNK     1      -3.787  -1.919   1.177  1.00  0.00     0.020 C 
ENDBRANCH   3  12
TORSDOF 1
