REMARK  4 active torsions:
REMARK  status: ('A' for Active; 'I' for Inactive)
REMARK    1  A    between atoms: C7_12  and  O2_2 
REMARK    2  A    between atoms: C11_16  and  O4_4 
REMARK    3  A    between atoms: C12_17  and  O5_5 
REMARK    4  A    between atoms: C1_6  and  C3_8 
ROOT
HETATM    1  O1  UNK     1      -0.176   0.399  -1.312  1.00  0.00    -0.340 OA
HETATM    2  O3  UNK     1       2.039   2.307   1.566  1.00  0.00    -0.292 OA
HETATM    3  C1  UNK     1      -0.372   0.106   0.080  1.00  0.00     0.172 C 
HETATM    4  C2  UNK     1      -0.059   1.324   0.946  1.00  0.00     0.121 C 
HETATM    5  C4  UNK     1       1.369   1.741   0.711  1.00  0.00     0.165 C 
HETATM    6  C5  UNK     1       1.900   1.493  -0.645  1.00  0.00     0.046 A 
HETATM    7  C6  UNK     1       1.088   0.855  -1.588  1.00  0.00     0.083 A 
HETATM    8  C9  UNK     1       3.180   1.927  -0.996  1.00  0.00     0.054 A 
HETATM    9  C10 UNK     1       1.546   0.682  -2.894  1.00  0.00     0.040 A 
HETATM   10  C12 UNK     1       3.641   1.733  -2.299  1.00  0.00     0.069 A 
HETATM   11  C14 UNK     1       2.824   1.116  -3.247  1.00  0.00     0.039 A 
ENDROOT
BRANCH   3  12
HETATM   12  C3  UNK     1      -1.803  -0.350   0.276  1.00  0.00     0.008 A 
HETATM   13  C7  UNK     1      -2.123  -1.304   1.244  1.00  0.00     0.110 A 
HETATM   14  C11 UNK     1      -3.446  -1.712   1.410  1.00  0.00     0.102 A 
HETATM   15  C15 UNK     1      -4.450  -1.168   0.609  1.00  0.00     0.039 A 
HETATM   16  C13 UNK     1      -4.131  -0.216  -0.359  1.00  0.00     0.003 A 
HETATM   17  C8  UNK     1      -2.808   0.193  -0.525  1.00  0.00     0.013 A 
BRANCH  13  18
HETATM   18  O2  UNK     1      -1.144  -1.838   2.028  1.00  0.00    -0.352 OA
HETATM   19  C16 UNK     1      -1.268  -1.648   3.436  1.00  0.00     0.210 C 
ENDBRANCH  13  18
BRANCH  14  20
HETATM   20  O4  UNK     1      -3.772  -2.642   2.351  1.00  0.00    -0.353 OA
HETATM   21  C17 UNK     1      -3.748  -4.010   1.947  1.00  0.00     0.210 C 
ENDBRANCH  14  20
ENDBRANCH   3  12
BRANCH  10  22
HETATM   22  O5  UNK     1       4.887   2.156  -2.649  1.00  0.00    -0.356 OA
HETATM   23  C18 UNK     1       5.291   1.936  -3.999  1.00  0.00     0.210 C 
ENDBRANCH  10  22
TORSDOF 4
