REMARK  7 active torsions:
REMARK  status: ('A' for Active; 'I' for Inactive)
REMARK    1  A    between atoms: C2_6  and  O1_2 
REMARK    2  A    between atoms: C3_7  and  O1_2 
REMARK    3  A    between atoms: C4_8  and  O2_3 
REMARK    4  A    between atoms: C8_12  and  O2_3 
REMARK    5  A    between atoms: C1_5  and  C5_9 
REMARK    6  A    between atoms: C3_7  and  C4_8 
REMARK    7  A    between atoms: C10_14  and  C9_13 
ROOT
HETATM    1  N1  UNK     1       2.794  -2.016   1.454  1.00  0.00    -0.191 NA
HETATM    2  C5  UNK     1      -0.437  -1.867   0.258  1.00  0.00     0.038 C 
HETATM    3  C9  UNK     1       0.303  -1.301   1.249  1.00  0.00     0.055 C 
HETATM    4  C24 UNK     1       1.681  -1.703   1.355  1.00  0.00     0.100 C 
ENDROOT
BRANCH   3   5
HETATM    5  C10 UNK     1      -0.218  -0.321   2.189  1.00  0.00    -0.015 A 
HETATM    6  C18 UNK     1      -0.152   1.040   1.887  1.00  0.00     0.013 A 
HETATM    7  C21 UNK     1      -0.654   1.979   2.788  1.00  0.00     0.001 A 
HETATM    8  C23 UNK     1      -1.222   1.558   3.990  1.00  0.00     0.000 A 
HETATM    9  C22 UNK     1      -1.289   0.197   4.291  1.00  0.00     0.001 A 
HETATM   10  C19 UNK     1      -0.787  -0.742   3.391  1.00  0.00     0.013 A 
ENDBRANCH   3   5
BRANCH   2  11
HETATM   11  C1  UNK     1      -1.860  -1.609  -0.003  1.00  0.00     0.000 A 
HETATM   12  C2  UNK     1      -2.247  -0.583  -0.854  1.00  0.00     0.079 A 
HETATM   13  C7  UNK     1      -3.604  -0.358  -1.087  1.00  0.00     0.039 A 
HETATM   14  C13 UNK     1      -4.561  -1.161  -0.467  1.00  0.00     0.026 A 
HETATM   15  C12 UNK     1      -4.161  -2.189   0.387  1.00  0.00     0.035 A 
HETATM   16 Cl1  UNK     1      -5.343  -3.179   1.152  1.00  0.00    -0.084 Cl
HETATM   17  C6  UNK     1      -2.804  -2.415   0.620  1.00  0.00     0.038 A 
BRANCH  12  18
HETATM   18  O1  UNK     1      -1.333   0.218  -1.473  1.00  0.00    -0.348 OA
BRANCH  18  19
HETATM   19  C3  UNK     1      -1.340   0.225  -2.898  1.00  0.00     0.202 C 
BRANCH  19  20
HETATM   20  C4  UNK     1       0.061   0.525  -3.398  1.00  0.00     0.202 C 
BRANCH  20  21
HETATM   21  O2  UNK     1       0.457   1.807  -2.926  1.00  0.00    -0.349 OA
BRANCH  21  22
HETATM   22  C8  UNK     1       1.794   1.992  -2.690  1.00  0.00     0.068 A 
HETATM   23  C14 UNK     1       2.728   1.286  -3.438  1.00  0.00     0.037 A 
HETATM   24  C16 UNK     1       4.090   1.474  -3.199  1.00  0.00     0.009 A 
HETATM   25  C11 UNK     1       4.507   2.367  -2.212  1.00  0.00    -0.062 A 
HETATM   26  C17 UNK     1       3.563   3.072  -1.465  1.00  0.00     0.009 A 
HETATM   27  C20 UNK     1       5.962   2.568  -1.955  1.00  0.00     0.048 C 
HETATM   28  C15 UNK     1       2.202   2.884  -1.704  1.00  0.00     0.037 A 
ENDBRANCH  21  22
ENDBRANCH  20  21
ENDBRANCH  19  20
ENDBRANCH  18  19
ENDBRANCH  12  18
ENDBRANCH   2  11
TORSDOF 7
