REMARK  4 active torsions:
REMARK  status: ('A' for Active; 'I' for Inactive)
REMARK    1  A    between atoms: C10_15  and  O1_1 
REMARK    2  A    between atoms: C3_8  and  O1_1 
REMARK    3  A    between atoms: C14_19  and  O3_3 
REMARK    4  A    between atoms: C10_15  and  C7_12 
ROOT
HETATM    1  O2  UNK     1      -2.958  -1.441   2.624  1.00  0.00    -0.275 OA
HETATM    2  O5  UNK     1      -1.734  -0.818   4.455  1.00  0.00    -0.260 OA
HETATM    3  C1  UNK     1      -2.225  -0.757   0.392  1.00  0.00     0.032 A 
HETATM    4  C2  UNK     1      -3.123  -1.433   1.222  1.00  0.00     0.092 A 
HETATM    5  C3  UNK     1      -1.112  -0.045   1.030  1.00  0.00     0.098 A 
HETATM    6  C4  UNK     1      -2.451  -0.820  -0.989  1.00  0.00     0.017 A 
HETATM    7  C5  UNK     1      -4.219  -2.140   0.723  1.00  0.00     0.038 A 
HETATM    8  C6  UNK     1      -0.963  -0.076   2.357  1.00  0.00     0.120 A 
HETATM    9  C8  UNK     1      -3.546  -1.527  -1.505  1.00  0.00     0.001 A 
HETATM   10  C9  UNK     1      -4.429  -2.183  -0.650  1.00  0.00     0.003 A 
HETATM   11  C11 UNK     1      -1.894  -0.797   3.240  1.00  0.00     0.290 A 
ENDROOT
BRANCH   5  12
HETATM   12  O1  UNK     1      -0.214   0.667   0.260  1.00  0.00    -0.274 OA
BRANCH  12  13
HETATM   13  C10 UNK     1       0.862  -0.057  -0.162  1.00  0.00     0.298 C 
HETATM   14  O4  UNK     1       1.110  -1.229   0.079  1.00  0.00    -0.259 OA
BRANCH  13  15
HETATM   15  C7  UNK     1       1.761   0.801  -0.978  1.00  0.00     0.040 A 
HETATM   16  C12 UNK     1       3.116   0.546  -0.965  1.00  0.00     0.020 A 
HETATM   17  C15 UNK     1       3.960   1.351  -1.731  1.00  0.00     0.038 A 
HETATM   18  C14 UNK     1       3.429   2.393  -2.492  1.00  0.00     0.068 A 
HETATM   19  C16 UNK     1       2.054   2.630  -2.487  1.00  0.00     0.038 A 
HETATM   20  C13 UNK     1       1.210   1.825  -1.721  1.00  0.00     0.020 A 
BRANCH  18  21
HETATM   21  O3  UNK     1       4.251   3.177  -3.240  1.00  0.00    -0.356 OA
HETATM   22  C17 UNK     1       5.646   2.879  -3.201  1.00  0.00     0.210 C 
ENDBRANCH  18  21
ENDBRANCH  13  15
ENDBRANCH  12  13
ENDBRANCH   5  12
TORSDOF 4
