REMARK  3 active torsions:
REMARK  status: ('A' for Active; 'I' for Inactive)
REMARK       I    between atoms: C15_21  and  N1_5 
REMARK    1  A    between atoms: N1_5  and  N2_6 
REMARK    2  A    between atoms: C13_19  and  C4_10 
REMARK    3  A    between atoms: C15_21  and  C7_13 
ROOT
HETATM    1  N2  UNK     1       0.396   0.396  -0.582  1.00  0.00    -0.183 NA
HETATM    2  C13 UNK     1       0.292   0.082   0.669  1.00  0.00     0.156 C 
ENDROOT
BRANCH   2   3
HETATM    3  C4  UNK     1      -0.916  -0.525   1.228  1.00  0.00     0.056 A 
HETATM    4  C3  UNK     1      -2.122  -0.835   0.429  1.00  0.00     0.198 A 
HETATM    5  C1  UNK     1      -3.244  -1.446   1.165  1.00  0.00     0.049 A 
HETATM    6  O2  UNK     1      -2.187  -0.599  -0.770  1.00  0.00    -0.286 OA
HETATM    7  C2  UNK     1      -3.107  -1.688   2.533  1.00  0.00     0.089 A 
HETATM    8  C5  UNK     1      -4.430  -1.780   0.506  1.00  0.00     0.018 A 
HETATM    9  O1  UNK     1      -1.965  -1.382   3.232  1.00  0.00    -0.321 OA
HETATM   10  C6  UNK     1      -4.157  -2.265   3.249  1.00  0.00     0.038 A 
HETATM   11  C8  UNK     1      -0.926  -0.813   2.534  1.00  0.00     0.159 A 
HETATM   12  C12 UNK     1      -5.342  -2.598   2.593  1.00  0.00     0.003 A 
HETATM   13  C10 UNK     1      -5.478  -2.356   1.225  1.00  0.00     0.001 A 
ENDBRANCH   2   3
BRANCH   1  14
HETATM   14  N1  UNK     1       1.588   0.947  -0.914  1.00  0.00    -0.243 N 
HETATM   15  C15 UNK     1       1.813   1.287  -2.235  1.00  0.00     0.272 C 
HETATM   16  O3  UNK     1       1.006   1.127  -3.148  1.00  0.00    -0.266 OA
HETATM   17  H12 UNK     1       2.281   1.061  -0.181  1.00  0.00     0.192 HD
BRANCH  15  18
HETATM   18  C7  UNK     1       3.148   1.866  -2.536  1.00  0.00     0.041 A 
HETATM   19  C11 UNK     1       3.922   2.565  -1.605  1.00  0.00     0.031 A 
HETATM   20  C9  UNK     1       5.106   2.978  -2.176  1.00  0.00    -0.021 A 
HETATM   21  C16 UNK     1       6.209   3.743  -1.555  1.00  0.00     0.056 C 
HETATM   22  S1  UNK     1       5.230   2.502  -3.816  1.00  0.00    -0.106 SA
HETATM   23  C14 UNK     1       3.697   1.740  -3.766  1.00  0.00     0.067 A 
ENDBRANCH  15  18
ENDBRANCH   1  14
TORSDOF 3
