REMARK  0 active torsions:
REMARK  status: ('A' for Active; 'I' for Inactive)
ROOT
HETATM    1 Br1  UNK     1       3.509   2.092  -2.448  1.00  0.00    -0.044 Br
HETATM    2  O1  UNK     1      -2.338  -0.873  -0.741  1.00  0.00    -0.344 OA
HETATM    3  O2  UNK     1      -2.560  -1.276   2.101  1.00  0.00    -0.346 OA
HETATM    4  O3  UNK     1      -0.150   0.299  -1.767  1.00  0.00    -0.271 OA
HETATM    5  O4  UNK     1       0.939   1.048  -3.609  1.00  0.00    -0.258 OA
HETATM    6  C1  UNK     1       0.865   0.483   0.434  1.00  0.00     0.008 A 
HETATM    7  C2  UNK     1      -1.351  -0.512   0.138  1.00  0.00     0.137 A 
HETATM    8  C3  UNK     1      -0.200   0.097  -0.377  1.00  0.00     0.126 A 
HETATM    9  C4  UNK     1      -1.457  -0.717   1.511  1.00  0.00     0.105 A 
HETATM   10  C5  UNK     1       2.050   1.116  -0.187  1.00  0.00    -0.025 A 
HETATM   11  C6  UNK     1      -3.274  -1.780  -0.152  1.00  0.00     0.202 C 
HETATM   12  C7  UNK     1      -3.687  -1.288   1.221  1.00  0.00     0.202 C 
HETATM   13  C8  UNK     1       0.744   0.240   1.812  1.00  0.00     0.018 A 
HETATM   14  C9  UNK     1      -0.404  -0.356   2.347  1.00  0.00     0.040 A 
HETATM   15  C10 UNK     1       2.071   1.301  -1.523  1.00  0.00     0.093 A 
HETATM   16  C11 UNK     1       3.170   1.515   0.745  1.00  0.00     0.050 C 
HETATM   17  C12 UNK     1       0.936   0.887  -2.393  1.00  0.00     0.306 A 
ENDROOT
TORSDOF 0
