REMARK  3 active torsions:
REMARK  status: ('A' for Active; 'I' for Inactive)
REMARK    1  A    between atoms: C6_10  and  O2_2 
REMARK    2  A    between atoms: C4_8  and  C8_12 
REMARK    3  A    between atoms: C11_15  and  C8_12 
ROOT
HETATM    1  O1  UNK     1      -2.574  -0.931   0.112  1.00  0.00    -0.274 OA
HETATM    2  O4  UNK     1      -4.022  -1.723   1.694  1.00  0.00    -0.260 OA
HETATM    3  C1  UNK     1      -0.344  -0.202   0.792  1.00  0.00     0.006 A 
HETATM    4  C2  UNK     1      -1.304  -0.406  -0.200  1.00  0.00     0.099 A 
HETATM    5  C3  UNK     1      -1.065  -0.105  -1.543  1.00  0.00     0.007 A 
HETATM    6  C4  UNK     1       1.149   0.630  -0.942  1.00  0.00     0.044 A 
HETATM    7  C5  UNK     1       0.895   0.324   0.399  1.00  0.00     0.032 A 
HETATM    8  C6  UNK     1       0.171   0.416  -1.912  1.00  0.00     0.088 A 
HETATM    9  C7  UNK     1      -0.681  -0.547   2.179  1.00  0.00    -0.043 A 
HETATM   10  C9  UNK     1      -2.121  -0.339  -2.574  1.00  0.00     0.054 C 
HETATM   11  C10 UNK     1      -1.897  -1.045   2.447  1.00  0.00     0.090 A 
HETATM   12  C12 UNK     1       0.329  -0.339   3.270  1.00  0.00     0.049 C 
HETATM   13  C13 UNK     1      -2.920  -1.266   1.412  1.00  0.00     0.288 A 
ENDROOT
BRANCH   6  14
HETATM   14  C8  UNK     1       2.451   1.175  -1.305  1.00  0.00     0.162 C 
HETATM   15  O3  UNK     1       2.940   0.958  -2.431  1.00  0.00    -0.292 OA
BRANCH  14  16
HETATM   16  C11 UNK     1       3.232   2.029  -0.293  1.00  0.00     0.079 C 
HETATM   17  C14 UNK     1       4.136   3.065  -0.944  1.00  0.00     0.013 C 
ENDBRANCH  14  16
ENDBRANCH   6  14
BRANCH   8  18
HETATM   18  O2  UNK     1       0.423   0.716  -3.218  1.00  0.00    -0.359 OA
HETATM   19  H14 UNK     1       1.270   1.179  -3.311  1.00  0.00     0.217 HD
ENDBRANCH   8  18
TORSDOF 3
