REMARK  3 active torsions:
REMARK  status: ('A' for Active; 'I' for Inactive)
REMARK       I    between atoms: C11_16  and  N1_5 
REMARK    1  A    between atoms: C4_9  and  N1_5 
REMARK    2  A    between atoms: C11_16  and  C12_17 
REMARK    3  A    between atoms: C13_18  and  C14_19 
ROOT
HETATM    1  O1  UNK     1      -3.460  -1.465  -0.088  1.00  0.00    -0.275 OA
HETATM    2  O2  UNK     1      -5.531  -2.405  -0.326  1.00  0.00    -0.260 OA
HETATM    3  C1  UNK     1      -2.490  -1.259   2.144  1.00  0.00     0.004 A 
HETATM    4  C2  UNK     1      -2.410  -1.069   0.764  1.00  0.00     0.092 A 
HETATM    5  C3  UNK     1      -3.699  -1.885   2.699  1.00  0.00    -0.043 A 
HETATM    6  C4  UNK     1      -0.230  -0.072   0.946  1.00  0.00     0.037 A 
HETATM    7  C5  UNK     1      -1.404  -0.839   2.923  1.00  0.00     0.017 A 
HETATM    8  C6  UNK     1      -1.298  -0.483   0.156  1.00  0.00     0.067 A 
HETATM    9  C7  UNK     1      -0.283  -0.250   2.328  1.00  0.00     0.030 A 
HETATM   10  C8  UNK     1      -4.682  -2.251   1.865  1.00  0.00     0.090 A 
HETATM   11  C9  UNK     1      -3.816  -2.103   4.180  1.00  0.00     0.049 C 
HETATM   12  C10 UNK     1      -4.611  -2.057   0.406  1.00  0.00     0.288 A 
ENDROOT
BRANCH   6  13
HETATM   13  N1  UNK     1       0.891   0.514   0.359  1.00  0.00    -0.324 N 
HETATM   14  C11 UNK     1       1.072   0.751  -0.999  1.00  0.00     0.245 C 
HETATM   15  O4  UNK     1       0.304   0.498  -1.920  1.00  0.00    -0.268 OA
HETATM   16  H8  UNK     1       1.631   0.787   1.002  1.00  0.00     0.169 HD
BRANCH  14  17
HETATM   17  C12 UNK     1       2.398   1.396  -1.254  1.00  0.00     0.077 C 
HETATM   18  C14 UNK     1       2.761   1.718  -2.504  1.00  0.00     0.042 C 
BRANCH  18  19
HETATM   19  C13 UNK     1       4.036   2.362  -2.864  1.00  0.00     0.075 A 
HETATM   20  O3  UNK     1       4.929   2.639  -1.921  1.00  0.00    -0.323 OA
HETATM   21  C17 UNK     1       5.963   3.213  -2.590  1.00  0.00     0.142 A 
HETATM   22  C16 UNK     1       5.688   3.281  -3.936  1.00  0.00     0.027 A 
HETATM   23  C15 UNK     1       4.403   2.711  -4.105  1.00  0.00     0.039 A 
ENDBRANCH  18  19
ENDBRANCH  14  17
ENDBRANCH   6  13
TORSDOF 3
