REMARK  6 active torsions:
REMARK  status: ('A' for Active; 'I' for Inactive)
REMARK    1  A    between atoms: C11_19  and  O1_2 
REMARK    2  A    between atoms: C3_11  and  O1_2 
REMARK       I    between atoms: C16_24  and  N1_7 
REMARK    3  A    between atoms: N1_7  and  N2_8 
REMARK       I    between atoms: C20_28  and  N2_8 
REMARK    4  A    between atoms: C1_9  and  C2_10 
REMARK    5  A    between atoms: C11_19  and  C16_24 
REMARK    6  A    between atoms: C14_22  and  C20_28 
ROOT
HETATM    1  O3  UNK     1      -0.246  -1.419   1.294  1.00  0.00    -0.269 OA
HETATM    2  N1  UNK     1      -0.622  -0.603  -0.848  1.00  0.00    -0.265 N 
HETATM    3  C16 UNK     1      -0.971  -1.263   0.315  1.00  0.00     0.260 C 
HETATM    4  H19 UNK     1      -1.241  -0.507  -1.647  1.00  0.00     0.190 HD
ENDROOT
BRANCH   2   5
HETATM    5  N2  UNK     1       0.634  -0.061  -0.956  1.00  0.00    -0.263 N 
HETATM    6  C20 UNK     1       0.820   1.050  -1.751  1.00  0.00     0.276 C 
HETATM    7  O5  UNK     1      -0.046   1.634  -2.400  1.00  0.00    -0.266 OA
HETATM    8  H21 UNK     1       1.379  -0.543  -0.462  1.00  0.00     0.190 HD
BRANCH   6   9
HETATM    9  C14 UNK     1       2.214   1.510  -1.763  1.00  0.00     0.110 A 
HETATM   10  C15 UNK     1       2.628   2.112  -2.884  1.00  0.00     0.037 A 
HETATM   11  C12 UNK     1       3.993   2.602  -2.992  1.00  0.00     0.000 A 
HETATM   12  C13 UNK     1       4.855   2.435  -1.912  1.00  0.00     0.089 A 
HETATM   13  C17 UNK     1       4.469   3.236  -4.142  1.00  0.00     0.033 A 
HETATM   14  O2  UNK     1       4.413   1.801  -0.735  1.00  0.00    -0.274 OA
HETATM   15  C18 UNK     1       6.175   2.881  -1.951  1.00  0.00     0.039 A 
HETATM   16  C19 UNK     1       3.113   1.321  -0.603  1.00  0.00     0.304 A 
HETATM   17  O4  UNK     1       2.736   0.770   0.426  1.00  0.00    -0.259 OA
HETATM   18  C22 UNK     1       6.641   3.512  -3.102  1.00  0.00     0.022 A 
HETATM   19  C21 UNK     1       5.790   3.689  -4.196  1.00  0.00     0.011 A 
HETATM   20 Br1  UNK     1       6.429   4.547  -5.755  1.00  0.00    -0.051 Br
ENDBRANCH   6   9
ENDBRANCH   2   5
BRANCH   3  21
HETATM   21  C11 UNK     1      -2.388  -1.790   0.252  1.00  0.00     0.280 C 
BRANCH  21  22
HETATM   22  O1  UNK     1      -2.720  -2.472   1.443  1.00  0.00    -0.341 OA
BRANCH  22  23
HETATM   23  C3  UNK     1      -4.040  -2.455   1.828  1.00  0.00     0.076 A 
HETATM   24  C2  UNK     1      -4.406  -1.908   3.051  1.00  0.00    -0.021 A 
HETATM   25  C6  UNK     1      -5.749  -1.900   3.427  1.00  0.00     0.011 A 
HETATM   26  C9  UNK     1      -6.715  -2.439   2.576  1.00  0.00     0.007 A 
HETATM   27  C8  UNK     1      -6.337  -2.986   1.350  1.00  0.00    -0.059 A 
HETATM   28  C10 UNK     1      -7.370  -3.562   0.441  1.00  0.00     0.048 C 
HETATM   29  C7  UNK     1      -4.994  -2.994   0.974  1.00  0.00     0.044 A 
BRANCH  24  30
HETATM   30  C1  UNK     1      -3.386  -1.328   3.974  1.00  0.00     0.013 C 
HETATM   31  C4  UNK     1      -3.608   0.175   4.224  1.00  0.00     0.015 C 
HETATM   32  C5  UNK     1      -3.316  -2.077   5.317  1.00  0.00     0.015 C 
ENDBRANCH  24  30
ENDBRANCH  22  23
ENDBRANCH  21  22
ENDBRANCH   3  21
TORSDOF 6
