REMARK  4 active torsions:
REMARK  status: ('A' for Active; 'I' for Inactive)
REMARK    1  A    between atoms: C5_10  and  N1_3 
REMARK    2  A    between atoms: C6_11  and  N2_4 
REMARK    3  A    between atoms: C5_10  and  C7_12 
REMARK    4  A    between atoms: C6_11  and  C8_13 
ROOT
HETATM    1  N3  UNK     1       7.264   1.298  -2.094  1.00  0.00    -0.191 NA
HETATM    2  C8  UNK     1       2.736   2.952  -2.473  1.00  0.00    -0.029 A 
HETATM    3  C12 UNK     1       3.940   2.399  -2.036  1.00  0.00     0.031 A 
HETATM    4  C13 UNK     1       2.622   3.432  -3.778  1.00  0.00     0.009 A 
HETATM    5  C19 UNK     1       5.029   2.325  -2.904  1.00  0.00     0.045 A 
HETATM    6  C20 UNK     1       3.711   3.359  -4.646  1.00  0.00     0.002 A 
HETATM    7  C21 UNK     1       4.915   2.805  -4.209  1.00  0.00     0.022 A 
HETATM    8  C23 UNK     1       6.262   1.758  -2.457  1.00  0.00     0.099 C 
ENDROOT
BRANCH   2   9
HETATM    9  C6  UNK     1       1.565   3.032  -1.541  1.00  0.00     0.311 C 
BRANCH   9  10
HETATM   10  N2  UNK     1       1.417   1.762  -0.832  1.00  0.00     0.096 N 
HETATM   11  C3  UNK     1       0.624   1.937   0.390  1.00  0.00     0.303 C 
HETATM   12  C1  UNK     1       0.464   0.606   1.133  1.00  0.00     0.303 C 
HETATM   13  N1  UNK     1      -0.148  -0.407   0.265  1.00  0.00     0.096 N 
HETATM   14  C2  UNK     1       0.647  -0.582  -0.956  1.00  0.00     0.303 C 
HETATM   15  C4  UNK     1       0.806   0.748  -1.700  1.00  0.00     0.303 C 
BRANCH  13  16
HETATM   16  C5  UNK     1      -0.298  -1.676   0.974  1.00  0.00     0.312 C 
BRANCH  16  17
HETATM   17  C7  UNK     1      -1.515  -1.542   1.817  1.00  0.00    -0.011 A 
HETATM   18  C10 UNK     1      -1.442  -1.075   3.071  1.00  0.00     0.092 A 
HETATM   19  C15 UNK     1      -2.619  -0.925   3.943  1.00  0.00     0.288 A 
HETATM   20  O1  UNK     1      -3.842  -1.295   3.406  1.00  0.00    -0.275 OA
HETATM   21  O2  UNK     1      -2.513  -0.493   5.085  1.00  0.00    -0.260 OA
HETATM   22  C11 UNK     1      -3.951  -1.790   2.091  1.00  0.00     0.090 A 
HETATM   23  C9  UNK     1      -2.826  -1.926   1.276  1.00  0.00     0.006 A 
HETATM   24  C16 UNK     1      -5.233  -2.131   1.656  1.00  0.00     0.045 A 
HETATM   25  C14 UNK     1      -3.019  -2.427  -0.018  1.00  0.00     0.015 A 
HETATM   26  C18 UNK     1      -4.298  -2.774  -0.469  1.00  0.00     0.007 A 
HETATM   27  C17 UNK     1      -5.403  -2.626   0.368  1.00  0.00    -0.059 A 
HETATM   28  C22 UNK     1      -6.763  -2.998  -0.118  1.00  0.00     0.048 C 
ENDBRANCH  16  17
ENDBRANCH  13  16
ENDBRANCH   9  10
ENDBRANCH   2   9
TORSDOF 4
