REMARK  2 active torsions:
REMARK  status: ('A' for Active; 'I' for Inactive)
REMARK    1  A    between atoms: C9_14  and  N1_4 
REMARK    2  A    between atoms: C1_6  and  C3_8 
ROOT
HETATM    1  O1  UNK     1       0.503   0.966  -2.693  1.00  0.00    -0.291 OA
HETATM    2  O2  UNK     1       2.885   0.566   0.723  1.00  0.00    -0.274 OA
HETATM    3  O3  UNK     1       1.381  -0.904   1.603  1.00  0.00    -0.259 OA
HETATM    4  N2  UNK     1      -3.135  -2.183  -2.473  1.00  0.00    -0.191 NA
HETATM    5  C1  UNK     1      -0.491  -0.706  -0.574  1.00  0.00     0.109 C 
HETATM    6  C2  UNK     1       0.841   0.027  -0.517  1.00  0.00     0.066 A 
HETATM    7  C4  UNK     1       1.241   0.804  -1.535  1.00  0.00     0.104 A 
HETATM    8  C5  UNK     1      -1.107  -0.649  -1.973  1.00  0.00     0.086 C 
HETATM    9  C7  UNK     1       2.501   1.539  -1.474  1.00  0.00     0.033 A 
HETATM   10  C9  UNK     1      -0.611   0.164  -2.934  1.00  0.00     0.159 C 
HETATM   11  C11 UNK     1       1.697  -0.156   0.684  1.00  0.00     0.298 A 
HETATM   12  C12 UNK     1       3.290   1.402  -0.335  1.00  0.00     0.092 A 
HETATM   13  C16 UNK     1       2.959   2.379  -2.496  1.00  0.00     0.017 A 
HETATM   14  C18 UNK     1       4.505   2.070  -0.189  1.00  0.00     0.038 A 
HETATM   15  C20 UNK     1      -2.228  -1.496  -2.249  1.00  0.00     0.100 C 
HETATM   16  C22 UNK     1       4.176   3.056  -2.365  1.00  0.00     0.001 A 
HETATM   17  C23 UNK     1       4.947   2.902  -1.213  1.00  0.00     0.003 A 
ENDROOT
BRANCH   5  18
HETATM   18  C3  UNK     1      -1.446  -0.145   0.438  1.00  0.00    -0.033 A 
HETATM   19  C6  UNK     1      -1.962  -0.926   1.483  1.00  0.00    -0.019 A 
HETATM   20  C10 UNK     1      -2.859  -0.338   2.406  1.00  0.00    -0.025 A 
HETATM   21  C13 UNK     1      -1.609  -2.277   1.635  1.00  0.00     0.013 A 
HETATM   22  C15 UNK     1      -3.212   1.013   2.255  1.00  0.00     0.012 A 
HETATM   23  C17 UNK     1      -3.377  -1.118   3.454  1.00  0.00     0.012 A 
HETATM   24  C14 UNK     1      -2.688   1.773   1.209  1.00  0.00     0.001 A 
HETATM   25  C8  UNK     1      -1.806   1.194   0.301  1.00  0.00     0.009 A 
HETATM   26  C21 UNK     1      -3.015  -2.459   3.588  1.00  0.00     0.001 A 
HETATM   27  C19 UNK     1      -2.133  -3.037   2.681  1.00  0.00     0.001 A 
ENDBRANCH   5  18
BRANCH  10  28
HETATM   28  N1  UNK     1      -1.115   0.289  -4.199  1.00  0.00    -0.379 N 
HETATM   29  H11 UNK     1      -0.666   0.927  -4.842  1.00  0.00     0.158 HD
HETATM   30  H12 UNK     1      -1.925  -0.243  -4.491  1.00  0.00     0.158 HD
ENDBRANCH  10  28
TORSDOF 2
