REMARK  5 active torsions:
REMARK  status: ('A' for Active; 'I' for Inactive)
REMARK    1  A    between atoms: C17_26  and  O2_3 
REMARK    2  A    between atoms: C9_18  and  O2_3 
REMARK    3  A    between atoms: C2_11  and  N1_8 
REMARK       I    between atoms: C7_16  and  N1_8 
REMARK    4  A    between atoms: C6_15  and  N2_9 
REMARK    5  A    between atoms: C3_12  and  C7_16 
ROOT
HETATM    1  O3  UNK     1      -0.809  -0.960  -2.157  1.00  0.00    -0.267 OA
HETATM    2  N1  UNK     1      -0.696  -0.070   0.020  1.00  0.00    -0.321 N 
HETATM    3  C7  UNK     1      -0.350  -0.186  -1.319  1.00  0.00     0.262 C 
HETATM    4  H2  UNK     1      -0.196   0.638   0.546  1.00  0.00     0.169 HD
ENDROOT
BRANCH   2   5
HETATM    5  C2  UNK     1      -1.662  -0.823   0.731  1.00  0.00     0.068 A 
HETATM    6  C6  UNK     1      -1.892  -0.584   2.076  1.00  0.00     0.132 A 
HETATM    7  C10 UNK     1      -2.850  -1.341   2.751  1.00  0.00     0.075 A 
HETATM    8  C9  UNK     1      -3.566  -2.326   2.072  1.00  0.00     0.071 A 
HETATM    9  C13 UNK     1      -3.324  -2.556   0.718  1.00  0.00     0.039 A 
HETATM   10  C8  UNK     1      -2.366  -1.800   0.043  1.00  0.00     0.035 A 
BRANCH   6  11
HETATM   11  N2  UNK     1      -1.177   0.415   2.794  1.00  0.00    -0.113 N 
HETATM   12  O5  UNK     1      -1.430   0.585   4.009  1.00  0.00    -0.532 OA
HETATM   13  O6  UNK     1      -0.316   1.095   2.188  1.00  0.00    -0.532 OA
ENDBRANCH   6  11
BRANCH   8  14
HETATM   14  O2  UNK     1      -4.501  -3.065   2.731  1.00  0.00    -0.351 OA
BRANCH  14  15
HETATM   15  C17 UNK     1      -5.607  -3.542   1.966  1.00  0.00     0.171 C 
HETATM   16  C18 UNK     1      -6.814  -3.668   2.871  1.00  0.00     0.034 C 
ENDBRANCH  14  15
ENDBRANCH   8  14
ENDBRANCH   2   5
BRANCH   3  17
HETATM   17  C3  UNK     1       0.697   0.769  -1.705  1.00  0.00     0.108 A 
HETATM   18  C12 UNK     1       0.377   2.123  -2.210  1.00  0.00     0.304 A 
HETATM   19  O1  UNK     1       1.457   2.936  -2.543  1.00  0.00    -0.274 OA
HETATM   20  O4  UNK     1      -0.779   2.514  -2.331  1.00  0.00    -0.259 OA
HETATM   21  C4  UNK     1       2.788   2.497  -2.407  1.00  0.00     0.089 A 
HETATM   22  C1  UNK     1       3.066   1.220  -1.930  1.00  0.00     0.000 A 
HETATM   23  C14 UNK     1       3.802   3.384  -2.765  1.00  0.00     0.039 A 
HETATM   24  C5  UNK     1       1.960   0.346  -1.574  1.00  0.00     0.037 A 
HETATM   25  C11 UNK     1       4.400   0.821  -1.810  1.00  0.00     0.033 A 
HETATM   26  C15 UNK     1       5.427   1.699  -2.165  1.00  0.00     0.011 A 
HETATM   27 Br1  UNK     1       7.231   1.154  -1.999  1.00  0.00    -0.051 Br
HETATM   28  C16 UNK     1       5.129   2.978  -2.642  1.00  0.00     0.022 A 
ENDBRANCH   3  17
TORSDOF 5
