REMARK  3 active torsions:
REMARK  status: ('A' for Active; 'I' for Inactive)
REMARK    1  A    between atoms: C7_12  and  O2_2 
REMARK       I    between atoms: C10_15  and  N1_5 
REMARK    2  A    between atoms: C11_16  and  N1_5 
REMARK    3  A    between atoms: C10_15  and  C3_8 
ROOT
HETATM    1  O1  UNK     1       2.030   0.657   0.309  1.00  0.00    -0.274 OA
HETATM    2  O3  UNK     1       0.692  -0.481   1.770  1.00  0.00    -0.259 OA
HETATM    3  C1  UNK     1       1.261   1.051  -1.964  1.00  0.00    -0.001 A 
HETATM    4  C2  UNK     1       2.234   1.189  -0.980  1.00  0.00     0.092 A 
HETATM    5  C3  UNK     1      -0.160  -0.155  -0.416  1.00  0.00     0.108 A 
HETATM    6  C4  UNK     1       0.029   0.349  -1.642  1.00  0.00     0.037 A 
HETATM    7  C5  UNK     1       1.501   1.592  -3.229  1.00  0.00     0.017 A 
HETATM    8  C6  UNK     1       3.436   1.851  -1.223  1.00  0.00     0.075 A 
HETATM    9  C7  UNK     1       3.667   2.388  -2.488  1.00  0.00     0.070 A 
HETATM   10  C8  UNK     1       0.862  -0.020   0.647  1.00  0.00     0.304 A 
HETATM   11  C9  UNK     1       2.702   2.259  -3.489  1.00  0.00     0.038 A 
ENDROOT
BRANCH   5  12
HETATM   12  C10 UNK     1      -1.434  -0.846  -0.189  1.00  0.00     0.262 C 
HETATM   13  O4  UNK     1      -1.993  -1.419  -1.123  1.00  0.00    -0.267 OA
HETATM   14  N1  UNK     1      -1.856  -0.748   1.130  1.00  0.00    -0.323 N 
HETATM   15  H5  UNK     1      -1.284  -0.215   1.782  1.00  0.00     0.169 HD
BRANCH  14  16
HETATM   16  C11 UNK     1      -3.032  -1.289   1.704  1.00  0.00     0.035 A 
HETATM   17  C13 UNK     1      -3.283  -1.085   3.050  1.00  0.00     0.029 A 
HETATM   18  C15 UNK     1      -4.441  -1.618   3.616  1.00  0.00     0.002 A 
HETATM   19  C16 UNK     1      -5.331  -2.348   2.827  1.00  0.00     0.000 A 
HETATM   20  C14 UNK     1      -5.062  -2.544   1.472  1.00  0.00     0.002 A 
HETATM   21  C12 UNK     1      -3.904  -2.010   0.907  1.00  0.00     0.029 A 
ENDBRANCH  14  16
ENDBRANCH   5  12
BRANCH   9  22
HETATM   22  O2  UNK     1       4.834   3.038  -2.748  1.00  0.00    -0.356 OA
HETATM   23  C17 UNK     1       5.776   3.134  -1.681  1.00  0.00     0.210 C 
ENDBRANCH   9  22
TORSDOF 3
