REMARK  5 active torsions:
REMARK  status: ('A' for Active; 'I' for Inactive)
REMARK    1  A    between atoms: C17_23  and  O2_3 
REMARK    2  A    between atoms: C5_11  and  N1_5 
REMARK    3  A    between atoms: C6_12  and  N2_6 
REMARK    4  A    between atoms: C5_11  and  C7_13 
REMARK    5  A    between atoms: C6_12  and  C8_14 
ROOT
HETATM    1  N1  UNK     1       0.193  -0.301   0.300  1.00  0.00     0.096 N 
HETATM    2  N2  UNK     1       2.107   1.678  -0.583  1.00  0.00     0.096 N 
HETATM    3  C1  UNK     1       1.051   0.409   1.257  1.00  0.00     0.303 C 
HETATM    4  C2  UNK     1       0.862  -0.415  -1.001  1.00  0.00     0.303 C 
HETATM    5  C3  UNK     1       1.439   1.791   0.720  1.00  0.00     0.303 C 
HETATM    6  C4  UNK     1       1.249   0.967  -1.539  1.00  0.00     0.303 C 
ENDROOT
BRANCH   1   7
HETATM    7  C5  UNK     1      -0.175  -1.619   0.813  1.00  0.00     0.312 C 
BRANCH   7   8
HETATM    8  C7  UNK     1      -1.290  -1.548   1.798  1.00  0.00    -0.011 A 
HETATM    9  C10 UNK     1      -1.048  -1.397   3.108  1.00  0.00     0.092 A 
HETATM   10  C15 UNK     1      -2.117  -1.322   4.118  1.00  0.00     0.288 A 
HETATM   11  O1  UNK     1      -3.420  -1.416   3.655  1.00  0.00    -0.275 OA
HETATM   12  O3  UNK     1      -1.858  -1.183   5.308  1.00  0.00    -0.260 OA
HETATM   13  C11 UNK     1      -3.705  -1.576   2.284  1.00  0.00     0.090 A 
HETATM   14  C9  UNK     1      -2.682  -1.645   1.338  1.00  0.00     0.009 A 
HETATM   15  C16 UNK     1      -5.054  -1.659   1.932  1.00  0.00     0.041 A 
HETATM   16  C14 UNK     1      -3.048  -1.805  -0.005  1.00  0.00     0.051 A 
HETATM   17  C17 UNK     1      -4.396  -1.891  -0.374  1.00  0.00     0.069 A 
HETATM   18  C20 UNK     1      -5.397  -1.818   0.594  1.00  0.00     0.039 A 
BRANCH  17  19
HETATM   19  O2  UNK     1      -4.731  -2.047  -1.685  1.00  0.00    -0.356 OA
HETATM   20  C22 UNK     1      -6.121  -2.127  -1.994  1.00  0.00     0.210 C 
ENDBRANCH  17  19
ENDBRANCH   7   8
ENDBRANCH   1   7
BRANCH   2  21
HETATM   21  C6  UNK     1       2.473   2.997  -1.095  1.00  0.00     0.311 C 
BRANCH  21  22
HETATM   22  C8  UNK     1       3.551   2.912  -2.143  1.00  0.00    -0.030 A 
HETATM   23  C12 UNK     1       4.893   2.972  -1.770  1.00  0.00     0.012 A 
HETATM   24  C18 UNK     1       5.891   2.893  -2.741  1.00  0.00     0.043 A 
HETATM   25  C21 UNK     1       5.547   2.754  -4.086  1.00  0.00     0.116 A 
HETATM   26  C19 UNK     1       4.204   2.694  -4.459  1.00  0.00     0.043 A 
HETATM   27  F1  UNK     1       6.505   2.678  -5.018  1.00  0.00    -0.206 F 
HETATM   28  C13 UNK     1       3.206   2.773  -3.488  1.00  0.00     0.012 A 
ENDBRANCH  21  22
ENDBRANCH   2  21
TORSDOF 5
