REMARK  4 active torsions:
REMARK  status: ('A' for Active; 'I' for Inactive)
REMARK    1  A    between atoms: C6_13  and  O2_4 
REMARK    2  A    between atoms: C11_18  and  N2_7 
REMARK    3  A    between atoms: C13_20  and  N2_7 
REMARK    4  A    between atoms: C2_9  and  C5_12 
ROOT
HETATM    1  S1  UNK     1      -2.812  -1.442  -2.670  1.00  0.00    -0.061 SA
HETATM    2  N1  UNK     1      -1.479  -0.608  -0.618  1.00  0.00    -0.223 NA
HETATM    3  C5  UNK     1      -0.769  -0.272  -1.750  1.00  0.00     0.082 A 
HETATM    4  C11 UNK     1      -2.577  -1.231  -0.983  1.00  0.00     0.171 A 
HETATM    5  C12 UNK     1      -1.325  -0.636  -2.953  1.00  0.00     0.086 A 
ENDROOT
BRANCH   3   6
HETATM    6  C2  UNK     1       0.484   0.425  -1.608  1.00  0.00     0.070 A 
HETATM    7  C4  UNK     1       0.932   1.277  -2.545  1.00  0.00     0.034 A 
HETATM    8  C1  UNK     1       2.194   1.981  -2.395  1.00  0.00     0.002 A 
HETATM    9  C7  UNK     1       2.674   2.868  -3.361  1.00  0.00     0.014 A 
HETATM   10  C3  UNK     1       2.947   1.766  -1.248  1.00  0.00     0.123 A 
HETATM   11  C10 UNK     1       3.894   3.522  -3.165  1.00  0.00     0.004 A 
HETATM   12  C9  UNK     1       4.638   3.294  -2.005  1.00  0.00     0.040 A 
HETATM   13  C6  UNK     1       4.165   2.410  -1.038  1.00  0.00     0.102 A 
HETATM   14  O1  UNK     1       2.495   0.876  -0.257  1.00  0.00    -0.271 OA
HETATM   15  C8  UNK     1       1.297   0.176  -0.380  1.00  0.00     0.301 A 
HETATM   16  O3  UNK     1       0.942  -0.614   0.490  1.00  0.00    -0.259 OA
BRANCH  13  17
HETATM   17  O2  UNK     1       4.891   2.190   0.091  1.00  0.00    -0.353 OA
HETATM   18  C19 UNK     1       5.845   1.128   0.054  1.00  0.00     0.210 C 
ENDBRANCH  13  17
ENDBRANCH   3   6
BRANCH   4  19
HETATM   19  N2  UNK     1      -3.513  -1.704  -0.117  1.00  0.00    -0.335 N 
HETATM   20  H6  UNK     1      -4.312  -2.166  -0.548  1.00  0.00     0.168 HD
BRANCH  19  21
HETATM   21  C13 UNK     1      -3.643  -1.704   1.320  1.00  0.00     0.034 A 
HETATM   22  C14 UNK     1      -4.756  -2.288   1.887  1.00  0.00     0.031 A 
HETATM   23  C16 UNK     1      -4.882  -2.288   3.276  1.00  0.00     0.021 A 
HETATM   24  C18 UNK     1      -3.892  -1.703   4.066  1.00  0.00     0.011 A 
HETATM   25 Br1  UNK     1      -4.062  -1.703   5.948  1.00  0.00    -0.051 Br
HETATM   26  C17 UNK     1      -2.776  -1.119   3.466  1.00  0.00     0.021 A 
HETATM   27  C15 UNK     1      -2.650  -1.119   2.077  1.00  0.00     0.031 A 
ENDBRANCH  19  21
ENDBRANCH   4  19
TORSDOF 4
