REMARK  3 active torsions:
REMARK  status: ('A' for Active; 'I' for Inactive)
REMARK    1  A    between atoms: C17_22  and  O3_4 
REMARK    2  A    between atoms: C9_14  and  O3_4 
REMARK    3  A    between atoms: C1_6  and  C6_11 
ROOT
HETATM    1  O1  UNK     1       0.982   0.843   1.090  1.00  0.00    -0.313 OA
HETATM    2  O2  UNK     1      -1.774  -0.465  -1.601  1.00  0.00    -0.286 OA
HETATM    3  C1  UNK     1      -1.094  -0.327   0.674  1.00  0.00     0.054 A 
HETATM    4  C2  UNK     1       0.242   0.678  -1.210  1.00  0.00     0.049 A 
HETATM    5  C3  UNK     1       1.148   1.099  -0.244  1.00  0.00     0.092 A 
HETATM    6  C4  UNK     1      -0.947  -0.073  -0.787  1.00  0.00     0.198 A 
HETATM    7  C5  UNK     1      -0.138   0.136   1.509  1.00  0.00     0.065 A 
HETATM    8  C7  UNK     1       0.465   0.968  -2.560  1.00  0.00     0.021 A 
HETATM    9  C8  UNK     1       2.286   1.814  -0.618  1.00  0.00     0.075 A 
HETATM   10  C9  UNK     1       2.513   2.106  -1.963  1.00  0.00     0.081 A 
HETATM   11  C10 UNK     1      -0.146  -0.042   3.002  1.00  0.00     0.077 C 
HETATM   12  C11 UNK     1       1.603   1.684  -2.932  1.00  0.00     0.038 A 
ENDROOT
BRANCH   3  13
HETATM   13  C6  UNK     1      -2.254  -1.065   1.157  1.00  0.00    -0.019 A 
HETATM   14  C12 UNK     1      -2.197  -2.453   1.268  1.00  0.00     0.015 A 
HETATM   15  C14 UNK     1      -3.308  -3.160   1.730  1.00  0.00     0.043 A 
HETATM   16  C16 UNK     1      -4.472  -2.477   2.081  1.00  0.00     0.116 A 
HETATM   17  C15 UNK     1      -4.527  -1.088   1.970  1.00  0.00     0.043 A 
HETATM   18  F1  UNK     1      -5.538  -3.156   2.525  1.00  0.00    -0.206 F 
HETATM   19  C13 UNK     1      -3.416  -0.381   1.508  1.00  0.00     0.015 A 
ENDBRANCH   3  13
BRANCH  10  20
HETATM   20  O3  UNK     1       3.622   2.804  -2.331  1.00  0.00    -0.279 OA
BRANCH  20  21
HETATM   21  C17 UNK     1       4.738   1.999  -2.615  1.00  0.00     0.260 C 
HETATM   22  O4  UNK     1       4.773   0.778  -2.554  1.00  0.00    -0.265 OA
HETATM   23  C18 UNK     1       5.903   2.858  -3.008  1.00  0.00     0.126 C 
ENDBRANCH  20  21
ENDBRANCH  10  20
TORSDOF 3
