REMARK  7 active torsions:
REMARK  status: ('A' for Active; 'I' for Inactive)
REMARK    1  A    between atoms: C2_6  and  O1_2 
REMARK    2  A    between atoms: C3_7  and  O1_2 
REMARK    3  A    between atoms: C4_8  and  O2_3 
REMARK    4  A    between atoms: C8_12  and  O2_3 
REMARK    5  A    between atoms: C1_5  and  C5_9 
REMARK    6  A    between atoms: C3_7  and  C4_8 
REMARK    7  A    between atoms: C10_14  and  C9_13 
ROOT
HETATM    1  N1  UNK     1       2.798  -2.014   1.450  1.00  0.00    -0.191 NA
HETATM    2  C5  UNK     1      -0.434  -1.864   0.257  1.00  0.00     0.038 C 
HETATM    3  C9  UNK     1       0.307  -1.297   1.247  1.00  0.00     0.055 C 
HETATM    4  C24 UNK     1       1.685  -1.700   1.351  1.00  0.00     0.100 C 
ENDROOT
BRANCH   3   5
HETATM    5  C10 UNK     1      -0.213  -0.316   2.186  1.00  0.00    -0.015 A 
HETATM    6  C18 UNK     1      -0.145   1.044   1.883  1.00  0.00     0.013 A 
HETATM    7  C21 UNK     1      -0.645   1.985   2.784  1.00  0.00     0.001 A 
HETATM    8  C23 UNK     1      -1.213   1.566   3.986  1.00  0.00     0.000 A 
HETATM    9  C22 UNK     1      -1.281   0.206   4.289  1.00  0.00     0.001 A 
HETATM   10  C19 UNK     1      -0.780  -0.735   3.389  1.00  0.00     0.013 A 
ENDBRANCH   3   5
BRANCH   2  11
HETATM   11  C1  UNK     1      -1.857  -1.605  -0.003  1.00  0.00    -0.000 A 
HETATM   12  C2  UNK     1      -2.244  -0.578  -0.853  1.00  0.00     0.079 A 
HETATM   13  C7  UNK     1      -3.601  -0.351  -1.084  1.00  0.00     0.039 A 
HETATM   14  C13 UNK     1      -4.558  -1.152  -0.462  1.00  0.00     0.022 A 
HETATM   15  C12 UNK     1      -4.158  -2.181   0.390  1.00  0.00     0.011 A 
HETATM   16 Br1  UNK     1      -5.456  -3.267   1.233  1.00  0.00    -0.051 Br
HETATM   17  C6  UNK     1      -2.802  -2.409   0.621  1.00  0.00     0.033 A 
BRANCH  12  18
HETATM   18  O1  UNK     1      -1.330   0.222  -1.473  1.00  0.00    -0.348 OA
BRANCH  18  19
HETATM   19  C3  UNK     1      -1.339   0.230  -2.899  1.00  0.00     0.202 C 
BRANCH  19  20
HETATM   20  C4  UNK     1       0.061   0.528  -3.401  1.00  0.00     0.202 C 
BRANCH  20  21
HETATM   21  O2  UNK     1       0.459   1.810  -2.929  1.00  0.00    -0.349 OA
BRANCH  21  22
HETATM   22  C8  UNK     1       1.797   1.992  -2.695  1.00  0.00     0.068 A 
HETATM   23  C14 UNK     1       2.730   1.286  -3.445  1.00  0.00     0.037 A 
HETATM   24  C16 UNK     1       4.091   1.472  -3.208  1.00  0.00     0.009 A 
HETATM   25  C11 UNK     1       4.512   2.364  -2.221  1.00  0.00    -0.062 A 
HETATM   26  C17 UNK     1       3.570   3.069  -1.472  1.00  0.00     0.009 A 
HETATM   27  C20 UNK     1       5.968   2.562  -1.967  1.00  0.00     0.048 C 
HETATM   28  C15 UNK     1       2.208   2.883  -1.710  1.00  0.00     0.037 A 
ENDBRANCH  21  22
ENDBRANCH  20  21
ENDBRANCH  19  20
ENDBRANCH  18  19
ENDBRANCH  12  18
ENDBRANCH   2  11
TORSDOF 7
