REMARK  3 active torsions:
REMARK  status: ('A' for Active; 'I' for Inactive)
REMARK       I    between atoms: C11_19  and  N1_7 
REMARK    1  A    between atoms: C2_10  and  N1_7 
REMARK    2  A    between atoms: C16_24  and  N2_8 
REMARK    3  A    between atoms: C11_19  and  C12_20 
ROOT
HETATM    1  O2  UNK     1       0.933   0.921   0.773  1.00  0.00    -0.267 OA
HETATM    2  N1  UNK     1      -0.346   0.077  -1.009  1.00  0.00    -0.322 N 
HETATM    3  C11 UNK     1       0.730   0.755  -0.425  1.00  0.00     0.256 C 
HETATM    4  H3  UNK     1      -0.345  -0.017  -2.019  1.00  0.00     0.169 HD
ENDROOT
BRANCH   2   5
HETATM    5  C2  UNK     1      -1.415  -0.554  -0.367  1.00  0.00     0.042 A 
HETATM    6  C3  UNK     1      -2.412  -1.189  -1.104  1.00  0.00    -0.033 A 
HETATM    7  C7  UNK     1      -3.467  -1.813  -0.446  1.00  0.00     0.047 A 
HETATM    8  C8  UNK     1      -2.375  -1.217  -2.597  1.00  0.00     0.050 C 
HETATM    9  C4  UNK     1      -3.508  -1.790   0.949  1.00  0.00     0.090 A 
HETATM   10  C1  UNK     1      -2.524  -1.161   1.714  1.00  0.00     0.006 A 
HETATM   11  O1  UNK     1      -4.601  -2.438   1.559  1.00  0.00    -0.275 OA
HETATM   12  C5  UNK     1      -1.470  -0.539   1.032  1.00  0.00     0.044 A 
HETATM   13  C6  UNK     1      -2.647  -1.186   3.177  1.00  0.00    -0.043 A 
HETATM   14  C10 UNK     1      -1.606  -0.520   4.028  1.00  0.00     0.049 C 
HETATM   15  C9  UNK     1      -3.697  -1.810   3.730  1.00  0.00     0.090 A 
HETATM   16  C13 UNK     1      -4.743  -2.478   2.937  1.00  0.00     0.288 A 
HETATM   17  O3  UNK     1      -5.690  -3.039   3.477  1.00  0.00    -0.260 OA
ENDBRANCH   2   5
BRANCH   3  18
HETATM   18  C12 UNK     1       1.701   1.350  -1.380  1.00  0.00     0.034 A 
HETATM   19  C14 UNK     1       3.009   1.524  -0.978  1.00  0.00     0.054 A 
HETATM   20  C16 UNK     1       3.920   2.082  -1.875  1.00  0.00     0.125 A 
HETATM   21  C18 UNK     1       3.502   2.454  -3.153  1.00  0.00     0.067 A 
HETATM   22  C17 UNK     1       2.173   2.268  -3.534  1.00  0.00     0.027 A 
HETATM   23 Cl1  UNK     1       4.591   3.150  -4.300  1.00  0.00    -0.082 Cl
HETATM   24  C15 UNK     1       1.262   1.709  -2.637  1.00  0.00     0.019 A 
BRANCH  20  25
HETATM   25  N2  UNK     1       5.267   2.258  -1.450  1.00  0.00    -0.114 N 
HETATM   26  O4  UNK     1       5.585   1.907  -0.290  1.00  0.00    -0.532 OA
HETATM   27  O5  UNK     1       6.092   2.759  -2.248  1.00  0.00    -0.532 OA
ENDBRANCH  20  25
ENDBRANCH   3  18
TORSDOF 3
