REMARK  3 active torsions:
REMARK  status: ('A' for Active; 'I' for Inactive)
REMARK    1  A    between atoms: C7_11  and  O2_2 
REMARK    2  A    between atoms: C11_15  and  O4_4 
REMARK    3  A    between atoms: C1_5  and  C4_8 
ROOT
HETATM    1  O1  UNK     1       0.763  -0.993   0.119  1.00  0.00    -0.309 OA
HETATM    2  O3  UNK     1       0.260  -2.696   3.786  1.00  0.00    -0.287 OA
HETATM    3  C1  UNK     1       0.398  -0.242   1.227  1.00  0.00     0.093 A 
HETATM    4  C2  UNK     1       0.790  -2.990   1.502  1.00  0.00     0.051 A 
HETATM    5  C3  UNK     1       0.947  -2.343   0.277  1.00  0.00     0.090 A 
HETATM    6  C5  UNK     1       0.224  -0.747   2.458  1.00  0.00     0.094 A 
HETATM    7  C6  UNK     1       0.412  -2.195   2.680  1.00  0.00     0.187 A 
HETATM    8  C8  UNK     1       0.992  -4.368   1.604  1.00  0.00     0.054 A 
HETATM    9  C9  UNK     1       1.308  -3.073  -0.856  1.00  0.00     0.041 A 
HETATM   10  C11 UNK     1       1.352  -5.096   0.469  1.00  0.00     0.066 A 
HETATM   11  C12 UNK     1       1.510  -4.450  -0.758  1.00  0.00     0.039 A 
ENDROOT
BRANCH   3  12
HETATM   12  C4  UNK     1       0.233   1.199   0.947  1.00  0.00     0.031 A 
HETATM   13  C10 UNK     1       1.340   2.046   1.061  1.00  0.00     0.017 A 
HETATM   14  C14 UNK     1       1.209   3.411   0.802  1.00  0.00     0.001 A 
HETATM   15  C15 UNK     1      -0.028   3.934   0.428  1.00  0.00     0.003 A 
HETATM   16  C13 UNK     1      -1.136   3.093   0.313  1.00  0.00     0.038 A 
HETATM   17  C7  UNK     1      -1.005   1.729   0.572  1.00  0.00     0.081 A 
BRANCH  17  18
HETATM   18  O2  UNK     1      -2.103   0.930   0.453  1.00  0.00    -0.355 OA
HETATM   19  C16 UNK     1      -2.343   0.345  -0.824  1.00  0.00     0.210 C 
ENDBRANCH  17  18
ENDBRANCH   3  12
BRANCH  10  20
HETATM   20  O4  UNK     1       1.552  -6.440   0.559  1.00  0.00    -0.361 OA
HETATM   21  H12 UNK     1       1.401  -6.720   1.477  1.00  0.00     0.217 HD
ENDBRANCH  10  20
TORSDOF 3
