REMARK  3 active torsions:
REMARK  status: ('A' for Active; 'I' for Inactive)
REMARK    1  A    between atoms: C3_12  and  N1_6 
REMARK       I    between atoms: C11_20  and  N2_7 
REMARK    2  A    between atoms: C9_18  and  N2_7 
REMARK    3  A    between atoms: C11_20  and  C12_21 
ROOT
HETATM    1  O2  UNK     1      -1.100   0.011   3.692  1.00  0.00    -0.106 OA
HETATM    2  N3  UNK     1      -2.247  -0.691   3.365  1.00  0.00    -0.101 NA
HETATM    3  N4  UNK     1      -0.327   0.285   2.577  1.00  0.00    -0.101 NA
HETATM    4  C3  UNK     1      -3.123  -1.514   1.192  1.00  0.00     0.064 A 
HETATM    5  C6  UNK     1      -2.205  -0.865   2.039  1.00  0.00     0.146 A 
HETATM    6  C7  UNK     1      -2.761  -1.511  -0.167  1.00  0.00     0.034 A 
HETATM    7  C8  UNK     1      -0.985  -0.245   1.537  1.00  0.00     0.146 A 
HETATM    8  C9  UNK     1      -0.663  -0.264   0.182  1.00  0.00     0.069 A 
HETATM    9  C10 UNK     1      -1.572  -0.907  -0.656  1.00  0.00     0.034 A 
ENDROOT
BRANCH   8  10
HETATM   10  N2  UNK     1       0.515   0.329  -0.333  1.00  0.00    -0.321 N 
HETATM   11  C11 UNK     1       0.934   0.370  -1.656  1.00  0.00     0.262 C 
HETATM   12  O4  UNK     1       0.371  -0.097  -2.645  1.00  0.00    -0.267 OA
HETATM   13  H11 UNK     1       1.086   0.785   0.375  1.00  0.00     0.169 HD
BRANCH  11  14
HETATM   14  C12 UNK     1       2.212   1.076  -1.811  1.00  0.00     0.108 A 
HETATM   15  C14 UNK     1       2.401   1.707  -2.976  1.00  0.00     0.037 A 
HETATM   16  C13 UNK     1       3.637   2.434  -3.223  1.00  0.00    -0.001 A 
HETATM   17  C15 UNK     1       4.612   2.461  -2.231  1.00  0.00     0.089 A 
HETATM   18  C17 UNK     1       3.878   3.107  -4.424  1.00  0.00     0.014 A 
HETATM   19  O3  UNK     1       4.406   1.795  -1.007  1.00  0.00    -0.274 OA
HETATM   20  C18 UNK     1       5.817   3.138  -2.405  1.00  0.00     0.038 A 
HETATM   21  C16 UNK     1       3.235   1.091  -0.742  1.00  0.00     0.304 A 
HETATM   22  O5  UNK     1       3.065   0.514   0.327  1.00  0.00    -0.259 OA
HETATM   23  C20 UNK     1       6.049   3.806  -3.606  1.00  0.00     0.003 A 
HETATM   24  C19 UNK     1       5.082   3.791  -4.613  1.00  0.00     0.001 A 
ENDBRANCH  11  14
ENDBRANCH   8  10
BRANCH   4  25
HETATM   25  N1  UNK     1      -4.303  -2.122   1.631  1.00  0.00    -0.375 N 
HETATM   26  C1  UNK     1      -4.373  -2.696   2.979  1.00  0.00     0.149 C 
HETATM   27  C4  UNK     1      -5.516  -3.702   3.052  1.00  0.00     0.187 C 
HETATM   28  O1  UNK     1      -6.740  -3.100   2.633  1.00  0.00    -0.388 OA
HETATM   29  C5  UNK     1      -6.657  -2.691   1.268  1.00  0.00     0.187 C 
HETATM   30  C2  UNK     1      -5.579  -1.627   1.095  1.00  0.00     0.149 C 
ENDBRANCH   4  25
TORSDOF 3
