REMARK  4 active torsions:
REMARK  status: ('A' for Active; 'I' for Inactive)
REMARK    1  A    between atoms: C1_6  and  N1_4 
REMARK    2  A    between atoms: C2_7  and  N1_4 
REMARK       I    between atoms: C3_8  and  N1_4 
REMARK    3  A    between atoms: C1_6  and  C5_10 
REMARK    4  A    between atoms: C3_8  and  C4_9 
ROOT
HETATM    1  O2  UNK     1       0.218  -2.148  -0.071  1.00  0.00    -0.267 OA
HETATM    2  N1  UNK     1      -1.452  -0.613  -0.596  1.00  0.00    -0.344 N 
HETATM    3  C3  UNK     1      -0.127  -1.001  -0.377  1.00  0.00     0.260 C 
ENDROOT
BRANCH   3   4
HETATM    4  C4  UNK     1       0.913   0.026  -0.507  1.00  0.00     0.108 A 
HETATM    5  C10 UNK     1       1.350   0.851   0.642  1.00  0.00     0.304 A 
HETATM    6  O1  UNK     1       2.345   1.793   0.393  1.00  0.00    -0.274 OA
HETATM    7  O3  UNK     1       0.864   0.716   1.759  1.00  0.00    -0.259 OA
HETATM    8  C9  UNK     1       2.911   1.955  -0.887  1.00  0.00     0.089 A 
HETATM    9  C14 UNK     1       3.901   2.924  -1.038  1.00  0.00     0.038 A 
HETATM   10  C6  UNK     1       2.485   1.170  -1.953  1.00  0.00    -0.001 A 
HETATM   11  C16 UNK     1       4.480   3.108  -2.292  1.00  0.00     0.003 A 
HETATM   12  C15 UNK     1       4.065   2.328  -3.375  1.00  0.00     0.001 A 
HETATM   13  C13 UNK     1       3.070   1.361  -3.207  1.00  0.00     0.014 A 
HETATM   14  C7  UNK     1       1.447   0.177  -1.725  1.00  0.00     0.037 A 
ENDBRANCH   3   4
BRANCH   2  15
HETATM   15  C1  UNK     1      -2.568  -1.549  -0.478  1.00  0.00     0.164 C 
BRANCH  15  16
HETATM   16  C5  UNK     1      -3.124  -1.586   0.920  1.00  0.00    -0.037 A 
HETATM   17  C11 UNK     1      -4.146  -0.723   1.273  1.00  0.00     0.028 A 
HETATM   18  C17 UNK     1      -4.623  -0.796   2.571  1.00  0.00     0.116 A 
HETATM   19  N2  UNK     1      -4.152  -1.654   3.503  1.00  0.00    -0.273 NA
HETATM   20  C18 UNK     1      -3.153  -2.477   3.112  1.00  0.00     0.116 A 
HETATM   21  C12 UNK     1      -2.607  -2.483   1.838  1.00  0.00     0.028 A 
ENDBRANCH  15  16
ENDBRANCH   2  15
BRANCH   2  22
HETATM   22  C2  UNK     1      -1.812   0.753  -0.955  1.00  0.00     0.122 C 
HETATM   23  C8  UNK     1      -1.819   0.947  -2.457  1.00  0.00     0.026 C 
ENDBRANCH   2  22
TORSDOF 4
