REMARK  3 active torsions:
REMARK  status: ('A' for Active; 'I' for Inactive)
REMARK    1  A    between atoms: C5_13  and  N1_7 
REMARK       I    between atoms: C6_14  and  N1_7 
REMARK    2  A    between atoms: C12_20  and  N2_8 
REMARK    3  A    between atoms: C2_10  and  C6_14 
ROOT
HETATM    1  O2  UNK     1       0.980   0.947   1.697  1.00  0.00    -0.267 OA
HETATM    2  N1  UNK     1      -0.552  -0.043   0.207  1.00  0.00    -0.323 N 
HETATM    3  C6  UNK     1       0.583   0.671   0.566  1.00  0.00     0.262 C 
HETATM    4  H2  UNK     1      -0.728  -0.205  -0.781  1.00  0.00     0.169 HD
ENDROOT
BRANCH   3   5
HETATM    5  C2  UNK     1       1.351   1.115  -0.604  1.00  0.00     0.108 A 
HETATM    6  C4  UNK     1       2.673   1.233  -0.434  1.00  0.00     0.037 A 
HETATM    7  C1  UNK     1       3.518   1.667  -1.535  1.00  0.00    -0.001 A 
HETATM    8  C3  UNK     1       2.929   1.956  -2.762  1.00  0.00     0.089 A 
HETATM    9  C7  UNK     1       4.902   1.803  -1.403  1.00  0.00     0.014 A 
HETATM   10  C9  UNK     1       3.682   2.377  -3.856  1.00  0.00     0.038 A 
HETATM   11  O1  UNK     1       1.537   1.830  -2.935  1.00  0.00    -0.274 OA
HETATM   12  C14 UNK     1       5.062   2.510  -3.716  1.00  0.00     0.003 A 
HETATM   13  C13 UNK     1       5.671   2.224  -2.492  1.00  0.00     0.001 A 
HETATM   14  C8  UNK     1       0.703   1.417  -1.900  1.00  0.00     0.304 A 
HETATM   15  O3  UNK     1      -0.508   1.310  -2.060  1.00  0.00    -0.259 OA
ENDBRANCH   3   5
BRANCH   2  16
HETATM   16  C5  UNK     1      -1.517  -0.620   1.068  1.00  0.00     0.037 A 
HETATM   17  C10 UNK     1      -2.592  -1.301   0.521  1.00  0.00     0.067 A 
HETATM   18  C12 UNK     1      -3.542  -1.869   1.370  1.00  0.00     0.126 A 
HETATM   19  C16 UNK     1      -3.403  -1.748   2.752  1.00  0.00     0.067 A 
HETATM   20  C15 UNK     1      -2.315  -1.057   3.287  1.00  0.00     0.029 A 
HETATM   21 Cl1  UNK     1      -4.554  -2.432   3.846  1.00  0.00    -0.082 Cl
HETATM   22  C11 UNK     1      -1.365  -0.489   2.438  1.00  0.00     0.031 A 
BRANCH  18  23
HETATM   23  N2  UNK     1      -4.638  -2.566   0.788  1.00  0.00    -0.114 N 
HETATM   24  O4  UNK     1      -4.711  -2.643  -0.461  1.00  0.00    -0.532 OA
HETATM   25  O5  UNK     1      -5.497  -3.080   1.542  1.00  0.00    -0.532 OA
ENDBRANCH  18  23
ENDBRANCH   2  16
TORSDOF 3
