REMARK  7 active torsions:
REMARK  status: ('A' for Active; 'I' for Inactive)
REMARK    1  A    between atoms: C9_19  and  O2_5 
REMARK    2  A    between atoms: C20_30  and  O4_7 
REMARK    3  A    between atoms: C22_32  and  O5_8 
REMARK    4  A    between atoms: C5_15  and  N1_9 
REMARK    5  A    between atoms: C5_15  and  C6_16 
REMARK    6  A    between atoms: C14_24  and  C16_26 
REMARK    7  A    between atoms: C15_25  and  C17_27 
ROOT
HETATM    1  O1  UNK     1       1.088  -0.055   0.819  1.00  0.00    -0.303 OA
HETATM    2  O3  UNK     1      -0.498  -2.920  -1.594  1.00  0.00    -0.286 OA
HETATM    3  C6  UNK     1       0.109   1.657  -0.476  1.00  0.00     0.038 A 
HETATM    4  C8  UNK     1       0.318   0.300  -0.255  1.00  0.00     0.101 A 
HETATM    5  C9  UNK     1      -0.662   2.088  -1.548  1.00  0.00     0.076 A 
HETATM    6  C10 UNK     1      -0.251  -0.633  -1.115  1.00  0.00     0.050 A 
HETATM    7  C11 UNK     1      -1.233   1.152  -2.411  1.00  0.00     0.038 A 
HETATM    8  C12 UNK     1      -1.029  -0.212  -2.197  1.00  0.00     0.021 A 
HETATM    9  C13 UNK     1      -0.019  -2.061  -0.864  1.00  0.00     0.198 A 
HETATM   10  C14 UNK     1       0.822  -2.406   0.318  1.00  0.00     0.064 A 
HETATM   11  C15 UNK     1       1.316  -1.401   1.073  1.00  0.00     0.174 A 
ENDROOT
BRANCH  10  12
HETATM   12  C16 UNK     1       1.086  -3.806   0.621  1.00  0.00    -0.016 A 
HETATM   13  C18 UNK     1       0.223  -4.511   1.458  1.00  0.00     0.052 A 
HETATM   14  C20 UNK     1       0.475  -5.852   1.747  1.00  0.00     0.102 A 
HETATM   15  C22 UNK     1       1.590  -6.486   1.199  1.00  0.00     0.101 A 
HETATM   16  C21 UNK     1       2.453  -5.778   0.362  1.00  0.00     0.040 A 
HETATM   17  C19 UNK     1       2.201  -4.437   0.073  1.00  0.00     0.015 A 
BRANCH  14  18
HETATM   18  O4  UNK     1      -0.373  -6.532   2.568  1.00  0.00    -0.353 OA
HETATM   19  C23 UNK     1      -0.084  -6.506   3.964  1.00  0.00     0.210 C 
ENDBRANCH  14  18
BRANCH  15  20
HETATM   20  O5  UNK     1       1.847  -7.794   1.475  1.00  0.00    -0.353 OA
HETATM   21  C24 UNK     1       1.277  -8.766   0.600  1.00  0.00     0.210 C 
ENDBRANCH  15  20
ENDBRANCH  10  12
BRANCH  11  22
HETATM   22  C17 UNK     1       2.177  -1.590   2.291  1.00  0.00     0.440 C 
HETATM   23  F1  UNK     1       2.390  -2.898   2.526  1.00  0.00    -0.164 F 
HETATM   24  F2  UNK     1       3.374  -0.994   2.127  1.00  0.00    -0.164 F 
HETATM   25  F3  UNK     1       1.592  -1.058   3.381  1.00  0.00    -0.164 F 
ENDBRANCH  11  22
BRANCH   3  26
HETATM   26  C5  UNK     1       0.721   2.674   0.450  1.00  0.00     0.317 C 
BRANCH  26  27
HETATM   27  N1  UNK     1      -0.233   3.718   0.819  1.00  0.00     0.096 N 
HETATM   28  C1  UNK     1      -1.397   3.142   1.503  1.00  0.00     0.303 C 
HETATM   29  C3  UNK     1      -2.397   4.235   1.892  1.00  0.00     0.302 C 
HETATM   30  N2  UNK     1      -1.758   5.252   2.737  1.00  0.00     0.087 N 
HETATM   31  C4  UNK     1      -0.593   5.827   2.054  1.00  0.00     0.302 C 
HETATM   32  C7  UNK     1      -2.713   6.296   3.104  1.00  0.00     0.310 C 
HETATM   33  C2  UNK     1       0.407   4.733   1.665  1.00  0.00     0.303 C 
ENDBRANCH  26  27
ENDBRANCH   3  26
BRANCH   5  34
HETATM   34  O2  UNK     1      -0.874   3.415  -1.776  1.00  0.00    -0.360 OA
HETATM   35  H16 UNK     1      -0.316   3.958  -1.199  1.00  0.00     0.217 HD
ENDBRANCH   5  34
TORSDOF 7
