REMARK  2 active torsions:
REMARK  status: ('A' for Active; 'I' for Inactive)
REMARK    1  A    between atoms: C8_12  and  O2_2 
REMARK    2  A    between atoms: C10_14  and  C4_8 
ROOT
HETATM    1  O1  UNK     1      -0.737  -0.117  -1.628  1.00  0.00    -0.274 OA
HETATM    2  O3  UNK     1      -2.730  -1.136  -1.167  1.00  0.00    -0.259 OA
HETATM    3  C1  UNK     1       0.732   0.525   0.200  1.00  0.00    -0.001 A 
HETATM    4  C2  UNK     1       0.462   0.459  -1.163  1.00  0.00     0.092 A 
HETATM    5  C3  UNK     1      -0.242  -0.010   1.138  1.00  0.00     0.035 A 
HETATM    6  C4  UNK     1      -1.379  -0.556   0.691  1.00  0.00     0.086 A 
HETATM    7  C5  UNK     1       1.932   1.105   0.621  1.00  0.00     0.017 A 
HETATM    8  C6  UNK     1       1.353   0.953  -2.113  1.00  0.00     0.074 A 
HETATM    9  C7  UNK     1      -1.688  -0.638  -0.755  1.00  0.00     0.302 A 
HETATM   10  C8  UNK     1       2.547   1.529  -1.684  1.00  0.00     0.068 A 
HETATM   11  C9  UNK     1       2.836   1.605  -0.320  1.00  0.00     0.037 A 
ENDROOT
BRANCH   6  12
HETATM   12  C10 UNK     1      -2.299  -1.067   1.714  1.00  0.00     0.161 C 
HETATM   13  O4  UNK     1      -3.514  -1.078   1.514  1.00  0.00    -0.293 OA
HETATM   14  C11 UNK     1      -1.708  -1.582   3.001  1.00  0.00     0.097 C 
ENDBRANCH   6  12
BRANCH  10  15
HETATM   15  O2  UNK     1       3.433   2.017  -2.595  1.00  0.00    -0.361 OA
HETATM   16  H8  UNK     1       3.073   1.882  -3.489  1.00  0.00     0.217 HD
ENDBRANCH  10  15
TORSDOF 2
