REMARK  4 active torsions:
REMARK  status: ('A' for Active; 'I' for Inactive)
REMARK    1  A    between atoms: C12_16  and  O3_3 
REMARK    2  A    between atoms: C1_5  and  C4_8 
REMARK    3  A    between atoms: C11_15  and  C4_8 
REMARK    4  A    between atoms: C12_16  and  C9_13 
ROOT
HETATM    1  O1  UNK     1      -0.797   0.295  -0.961  1.00  0.00    -0.273 OA
HETATM    2  O2  UNK     1       0.134   0.959  -2.939  1.00  0.00    -0.259 OA
HETATM    3  C1  UNK     1      -1.777  -0.403   1.113  1.00  0.00    -0.020 A 
HETATM    4  C2  UNK     1      -0.656   0.047   0.418  1.00  0.00     0.096 A 
HETATM    5  C3  UNK     1       0.566   0.248   1.051  1.00  0.00    -0.000 A 
HETATM    6  C5  UNK     1      -1.668  -0.657   2.478  1.00  0.00     0.010 A 
HETATM    7  C6  UNK     1       0.667  -0.009   2.421  1.00  0.00     0.014 A 
HETATM    8  C7  UNK     1       1.697   0.719   0.266  1.00  0.00     0.039 A 
HETATM    9  C8  UNK     1      -0.450  -0.460   3.131  1.00  0.00     0.002 A 
HETATM   10  C9  UNK     1       1.557   0.952  -1.044  1.00  0.00     0.114 A 
HETATM   11  C10 UNK     1       0.266   0.745  -1.739  1.00  0.00     0.305 A 
ENDROOT
BRANCH  10  12
HETATM   12  C12 UNK     1       2.754   1.423  -1.751  1.00  0.00     0.182 C 
HETATM   13  O4  UNK     1       3.894   1.137  -1.438  1.00  0.00    -0.646 OA
BRANCH  12  14
HETATM   14  O3  UNK     1       2.387   2.209  -2.784  1.00  0.00    -0.772 OA
HETATM   15  H10 UNK     1       3.160   2.546  -3.284  1.00  0.00     0.167 HD
ENDBRANCH  12  14
ENDBRANCH  10  12
BRANCH   3  16
HETATM   16  C4  UNK     1      -3.083  -0.617   0.426  1.00  0.00     0.067 C 
BRANCH  16  17
HETATM   17  C11 UNK     1      -3.242  -2.012  -0.119  1.00  0.00    -0.032 C 
HETATM   18  C13 UNK     1      -3.385  -2.302  -1.417  1.00  0.00     0.007 C 
ENDBRANCH  16  17
ENDBRANCH   3  16
TORSDOF 4
