REMARK  6 active torsions:
REMARK  status: ('A' for Active; 'I' for Inactive)
REMARK    1  A    between atoms: C11_20  and  S1_1 
REMARK    2  A    between atoms: O3_4  and  S1_1 
REMARK    3  A    between atoms: C12_21  and  O2_3 
REMARK    4  A    between atoms: C5_14  and  O2_3 
REMARK       I    between atoms: C18_27  and  N1_9 
REMARK    5  A    between atoms: C9_18  and  N1_9 
REMARK    6  A    between atoms: C12_21  and  C18_27 
ROOT
HETATM    1  O5  UNK     1       1.652  -0.185   0.151  1.00  0.00    -0.271 OA
HETATM    2  N1  UNK     1       1.268   0.620  -2.025  1.00  0.00    -0.325 N 
HETATM    3  C18 UNK     1       0.971  -0.084  -0.865  1.00  0.00     0.246 C 
HETATM    4  H12 UNK     1       0.584   0.590  -2.778  1.00  0.00     0.169 HD
ENDROOT
BRANCH   3   5
HETATM    5  C12 UNK     1      -0.367  -0.782  -0.966  1.00  0.00     0.278 C 
BRANCH   5   6
HETATM    6  O2  UNK     1      -0.610  -1.489   0.249  1.00  0.00    -0.342 OA
BRANCH   6   7
HETATM    7  C5  UNK     1      -1.910  -1.651   0.622  1.00  0.00     0.070 A 
HETATM    8  C4  UNK     1      -2.238  -1.732   1.981  1.00  0.00     0.051 A 
HETATM    9  C1  UNK     1      -3.569  -1.898   2.387  1.00  0.00     0.007 A 
HETATM   10  C2  UNK     1      -3.988  -1.992   3.792  1.00  0.00    -0.043 A 
HETATM   11  C3  UNK     1      -4.545  -1.978   1.392  1.00  0.00     0.090 A 
HETATM   12  C10 UNK     1      -2.963  -1.911   4.885  1.00  0.00     0.049 C 
HETATM   13  C8  UNK     1      -5.289  -2.151   4.072  1.00  0.00     0.090 A 
HETATM   14  C13 UNK     1      -6.330  -2.237   3.034  1.00  0.00     0.288 A 
HETATM   15  O1  UNK     1      -5.905  -2.145   1.717  1.00  0.00    -0.275 OA
HETATM   16  O4  UNK     1      -7.511  -2.381   3.328  1.00  0.00    -0.260 OA
HETATM   17  C6  UNK     1      -4.232  -1.898   0.033  1.00  0.00     0.041 A 
HETATM   18  C7  UNK     1      -2.905  -1.733  -0.349  1.00  0.00     0.039 A 
ENDBRANCH   6   7
ENDBRANCH   5   6
ENDBRANCH   3   5
BRANCH   2  19
HETATM   19  C9  UNK     1       2.426   1.389  -2.294  1.00  0.00     0.034 A 
HETATM   20  C14 UNK     1       2.547   2.026  -3.518  1.00  0.00     0.031 A 
HETATM   21  C16 UNK     1       3.688   2.783  -3.783  1.00  0.00     0.027 A 
HETATM   22  C11 UNK     1       4.691   2.893  -2.820  1.00  0.00     0.072 A 
HETATM   23  C17 UNK     1       4.554   2.246  -1.592  1.00  0.00     0.027 A 
HETATM   24  C15 UNK     1       3.413   1.488  -1.327  1.00  0.00     0.031 A 
BRANCH  22  25
HETATM   25  S1  UNK     1       6.119   3.840  -3.152  1.00  0.00     0.129 S 
HETATM   26  O6  UNK     1       7.194   3.348  -2.302  1.00  0.00    -0.598 OA
HETATM   27  O7  UNK     1       6.277   3.879  -4.598  1.00  0.00    -0.598 OA
BRANCH  25  28
HETATM   28  O3  UNK     1       5.761   5.351  -2.640  1.00  0.00    -0.292 OA
HETATM   29  H15 UNK     1       5.568   5.436  -1.677  1.00  0.00     0.232 HD
ENDBRANCH  25  28
ENDBRANCH  22  25
ENDBRANCH   2  19
TORSDOF 6
