REMARK  5 active torsions:
REMARK  status: ('A' for Active; 'I' for Inactive)
REMARK    1  A    between atoms: C21_27  and  O3_3 
REMARK       I    between atoms: C13_19  and  N2_6 
REMARK    2  A    between atoms: C7_13  and  N2_6 
REMARK    3  A    between atoms: C1_7  and  C4_10 
REMARK    4  A    between atoms: C4_10  and  C7_13 
REMARK    5  A    between atoms: C13_19  and  C14_20 
ROOT
HETATM    1  O2  UNK     1      -0.745  -1.563  -3.021  1.00  0.00    -0.267 OA
HETATM    2  N2  UNK     1      -2.151  -0.500  -1.495  1.00  0.00    -0.356 N 
HETATM    3  C13 UNK     1      -0.998  -0.643  -2.246  1.00  0.00     0.257 C 
HETATM    4  H12 UNK     1      -2.252   0.285  -0.860  1.00  0.00     0.162 HD
ENDROOT
BRANCH   2   5
HETATM    5  C7  UNK     1      -3.238  -1.452  -1.532  1.00  0.00     0.127 C 
BRANCH   5   6
HETATM    6  C4  UNK     1      -3.033  -2.537  -0.477  1.00  0.00     0.061 C 
BRANCH   6   7
HETATM    7  C1  UNK     1      -2.990  -2.003   0.926  1.00  0.00    -0.022 A 
HETATM    8  C2  UNK     1      -1.829  -1.581   1.604  1.00  0.00    -0.001 A 
HETATM    9  C3  UNK     1      -2.245  -1.166   2.871  1.00  0.00     0.049 A 
HETATM   10  C8  UNK     1      -0.460  -1.504   1.281  1.00  0.00     0.014 A 
HETATM   11  N1  UNK     1      -3.609  -1.343   2.928  1.00  0.00    -0.358 N 
HETATM   12  C6  UNK     1      -1.356  -0.676   3.835  1.00  0.00    -0.034 A 
HETATM   13  C5  UNK     1      -4.069  -1.853   1.744  1.00  0.00     0.013 A 
HETATM   14  H3  UNK     1      -4.189  -1.128   3.727  1.00  0.00     0.166 HD
HETATM   15  C9  UNK     1      -5.503  -2.136   1.544  1.00  0.00     0.068 C 
HETATM   16  C10 UNK     1      -0.003  -0.609   3.492  1.00  0.00     0.009 A 
HETATM   17  C12 UNK     1      -1.796  -0.232   5.190  1.00  0.00     0.050 C 
HETATM   18  C11 UNK     1       0.441  -1.016   2.235  1.00  0.00     0.002 A 
ENDBRANCH   6   7
ENDBRANCH   5   6
ENDBRANCH   2   5
BRANCH   3  19
HETATM   19  C14 UNK     1      -0.043   0.452  -2.039  1.00  0.00     0.108 A 
HETATM   20  C16 UNK     1       1.251   0.143  -2.182  1.00  0.00     0.037 A 
HETATM   21  C15 UNK     1       2.273   1.162  -1.997  1.00  0.00     0.002 A 
HETATM   22  C17 UNK     1       1.882   2.456  -1.670  1.00  0.00     0.089 A 
HETATM   23  C19 UNK     1       3.635   0.884  -2.136  1.00  0.00     0.051 A 
HETATM   24  O1  UNK     1       0.518   2.775  -1.521  1.00  0.00    -0.274 OA
HETATM   25  C20 UNK     1       2.811   3.477  -1.479  1.00  0.00     0.041 A 
HETATM   26  C18 UNK     1      -0.482   1.822  -1.692  1.00  0.00     0.304 A 
HETATM   27  O4  UNK     1      -1.667   2.109  -1.560  1.00  0.00    -0.259 OA
HETATM   28  C22 UNK     1       4.167   3.192  -1.620  1.00  0.00     0.039 A 
HETATM   29  C21 UNK     1       4.579   1.898  -1.947  1.00  0.00     0.069 A 
BRANCH  29  30
HETATM   30  O3  UNK     1       5.906   1.624  -2.084  1.00  0.00    -0.356 OA
HETATM   31  C23 UNK     1       6.816   2.703  -1.879  1.00  0.00     0.210 C 
ENDBRANCH  29  30
ENDBRANCH   3  19
TORSDOF 5
