REMARK  3 active torsions:
REMARK  status: ('A' for Active; 'I' for Inactive)
REMARK    1  A    between atoms: C1_7  and  N1_5 
REMARK    2  A    between atoms: C6_12  and  N1_5 
REMARK    3  A    between atoms: C8_14  and  N2_6 
ROOT
HETATM    1  O1  UNK     1       1.568   0.851  -2.410  1.00  0.00    -0.273 OA
HETATM    2  O2  UNK     1      -0.087   0.243  -3.858  1.00  0.00    -0.257 OA
HETATM    3  C6  UNK     1      -0.266   0.412  -0.250  1.00  0.00     0.081 A 
HETATM    4  C7  UNK     1       1.124   0.873   0.002  1.00  0.00     0.027 A 
HETATM    5  C8  UNK     1      -0.592   0.225  -1.540  1.00  0.00     0.205 A 
HETATM    6  C9  UNK     1       1.986   1.073  -1.082  1.00  0.00     0.092 A 
HETATM    7  C10 UNK     1       1.648   1.131   1.280  1.00  0.00     0.017 A 
HETATM    8  C11 UNK     1       0.282   0.430  -2.704  1.00  0.00     0.324 A 
HETATM    9  C12 UNK     1       3.307   1.504  -0.928  1.00  0.00     0.038 A 
HETATM   10  C13 UNK     1       2.970   1.565   1.450  1.00  0.00     0.001 A 
HETATM   11  C14 UNK     1       3.798   1.751   0.348  1.00  0.00     0.003 A 
ENDROOT
BRANCH   3  12
HETATM   12  N1  UNK     1      -1.088   0.216   0.830  1.00  0.00    -0.382 N 
HETATM   13  H10 UNK     1      -2.080   0.342   0.656  1.00  0.00     0.160 HD
BRANCH  12  14
HETATM   14  C1  UNK     1      -0.764  -0.717   1.888  1.00  0.00     0.082 C 
HETATM   15  C2  UNK     1      -1.609  -0.443   3.126  1.00  0.00     0.025 C 
HETATM   16  C4  UNK     1      -2.953  -1.107   2.837  1.00  0.00     0.002 C 
HETATM   17  C5  UNK     1      -2.676  -2.196   1.801  1.00  0.00     0.002 C 
HETATM   18  C3  UNK     1      -1.179  -2.132   1.505  1.00  0.00     0.025 C 
ENDBRANCH  12  14
ENDBRANCH   3  12
BRANCH   5  19
HETATM   19  N2  UNK     1      -1.921  -0.217  -1.823  1.00  0.00    -0.107 N 
HETATM   20  O3  UNK     1      -2.671  -0.396  -0.857  1.00  0.00    -0.531 OA
HETATM   21  O4  UNK     1      -2.214  -0.388  -3.012  1.00  0.00    -0.531 OA
ENDBRANCH   5  19
TORSDOF 3
