REMARK  2 active torsions:
REMARK  status: ('A' for Active; 'I' for Inactive)
REMARK    1  A    between atoms: C12_17  and  O4_4 
REMARK    2  A    between atoms: C16_21  and  O4_4 
ROOT
HETATM    1  O1  UNK     1       1.283   1.819  -2.210  1.00  0.00    -0.332 OA
HETATM    2  O2  UNK     1      -1.221  -1.201   0.671  1.00  0.00    -0.274 OA
HETATM    3  O3  UNK     1       3.555   0.745   0.382  1.00  0.00    -0.289 OA
HETATM    4  O5  UNK     1      -2.419  -2.678   1.947  1.00  0.00    -0.260 OA
HETATM    5  C1  UNK     1       2.532   1.309  -1.740  1.00  0.00     0.125 C 
HETATM    6  C2  UNK     1       0.060   0.377  -0.670  1.00  0.00     0.048 A 
HETATM    7  C3  UNK     1       2.524   0.842  -0.280  1.00  0.00     0.196 C 
HETATM    8  C4  UNK     1       1.186   0.476   0.273  1.00  0.00     0.051 C 
HETATM    9  C5  UNK     1       0.172   1.090  -1.872  1.00  0.00     0.084 A 
HETATM   10  C6  UNK     1       3.522   2.474  -1.874  1.00  0.00     0.055 C 
HETATM   11  C7  UNK     1       2.988   0.153  -2.639  1.00  0.00     0.055 C 
HETATM   12  C8  UNK     1      -1.108  -0.381  -0.478  1.00  0.00     0.103 A 
HETATM   13  C9  UNK     1      -2.156  -0.378  -1.404  1.00  0.00    -0.001 A 
HETATM   14  C10 UNK     1      -0.879   1.122  -2.796  1.00  0.00     0.039 A 
HETATM   15  C11 UNK     1      -2.041   0.392  -2.561  1.00  0.00     0.017 A 
HETATM   16  C12 UNK     1       1.090   0.382   1.608  1.00  0.00     0.150 C 
HETATM   17  C13 UNK     1      -3.343  -1.178  -1.144  1.00  0.00     0.020 A 
HETATM   18  C14 UNK     1      -3.429  -1.928  -0.044  1.00  0.00     0.083 A 
HETATM   19  C15 UNK     1      -2.339  -1.982   0.942  1.00  0.00     0.288 A 
ENDROOT
BRANCH  16  20
HETATM   20  O4  UNK     1      -0.072   0.180   2.291  1.00  0.00    -0.362 OA
BRANCH  20  21
HETATM   21  C16 UNK     1      -0.028   0.777   3.579  1.00  0.00     0.170 C 
HETATM   22  C17 UNK     1      -1.346   0.534   4.281  1.00  0.00     0.034 C 
ENDBRANCH  20  21
ENDBRANCH  16  20
TORSDOF 2
