REMARK  5 active torsions:
REMARK  status: ('A' for Active; 'I' for Inactive)
REMARK    1  A    between atoms: C17_24  and  O2_3 
REMARK    2  A    between atoms: C18_25  and  O2_3 
REMARK    3  A    between atoms: C5_12  and  N1_7 
REMARK       I    between atoms: C6_13  and  N1_7 
REMARK    4  A    between atoms: C2_9  and  C6_13 
REMARK    5  A    between atoms: C11_18  and  C17_24 
ROOT
HETATM    1  O3  UNK     1      -0.822   0.728  -2.396  1.00  0.00    -0.267 OA
HETATM    2  N1  UNK     1      -0.657   0.056  -0.145  1.00  0.00    -0.323 N 
HETATM    3  C6  UNK     1      -0.221   0.640  -1.327  1.00  0.00     0.262 C 
HETATM    4  H3  UNK     1      -0.024   0.048   0.652  1.00  0.00     0.169 HD
ENDROOT
BRANCH   3   5
HETATM    5  C2  UNK     1       1.131   1.198  -1.203  1.00  0.00     0.108 A 
HETATM    6  C4  UNK     1       1.870   1.209  -2.318  1.00  0.00     0.037 A 
HETATM    7  C1  UNK     1       3.223   1.743  -2.296  1.00  0.00     0.000 A 
HETATM    8  C3  UNK     1       3.731   2.240  -1.099  1.00  0.00     0.089 A 
HETATM    9  C7  UNK     1       4.031   1.773  -3.435  1.00  0.00     0.033 A 
HETATM   10  C10 UNK     1       5.019   2.764  -1.010  1.00  0.00     0.039 A 
HETATM   11  O1  UNK     1       2.947   2.227   0.071  1.00  0.00    -0.274 OA
HETATM   12  C14 UNK     1       5.818   2.791  -2.151  1.00  0.00     0.022 A 
HETATM   13  C13 UNK     1       5.325   2.297  -3.361  1.00  0.00     0.011 A 
HETATM   14 Br1  UNK     1       6.415   2.337  -4.906  1.00  0.00    -0.051 Br
HETATM   15  C8  UNK     1       1.650   1.722   0.080  1.00  0.00     0.304 A 
HETATM   16  O4  UNK     1       0.974   1.714   1.104  1.00  0.00    -0.259 OA
ENDBRANCH   3   5
BRANCH   2  17
HETATM   17  C5  UNK     1      -1.901  -0.575   0.100  1.00  0.00     0.035 A 
HETATM   18  C12 UNK     1      -2.833  -0.649  -0.921  1.00  0.00     0.029 A 
HETATM   19  C16 UNK     1      -4.059  -1.270  -0.681  1.00  0.00     0.003 A 
HETATM   20  C15 UNK     1      -4.334  -1.808   0.577  1.00  0.00     0.018 A 
HETATM   21  C11 UNK     1      -3.383  -1.724   1.594  1.00  0.00     0.041 A 
HETATM   22  C9  UNK     1      -2.157  -1.103   1.354  1.00  0.00     0.047 A 
BRANCH  21  23
HETATM   23  C17 UNK     1      -3.670  -2.285   2.905  1.00  0.00     0.293 C 
HETATM   24  O5  UNK     1      -2.888  -2.257   3.865  1.00  0.00    -0.259 OA
BRANCH  23  25
HETATM   25  O2  UNK     1      -4.916  -2.849   2.949  1.00  0.00    -0.318 OA
BRANCH  25  26
HETATM   26  C18 UNK     1      -5.316  -3.436   4.192  1.00  0.00     0.174 C 
HETATM   27  C19 UNK     1      -6.712  -4.002   4.042  1.00  0.00     0.034 C 
ENDBRANCH  25  26
ENDBRANCH  23  25
ENDBRANCH  21  23
ENDBRANCH   2  17
TORSDOF 5
