REMARK  8 active torsions:
REMARK  status: ('A' for Active; 'I' for Inactive)
REMARK    1  A    between atoms: C10_17  and  O2_2 
REMARK    2  A    between atoms: C5_12  and  O2_2 
REMARK    3  A    between atoms: C17_24  and  O5_5 
REMARK    4  A    between atoms: C18_25  and  O6_6 
REMARK    5  A    between atoms: C1_8  and  N1_7 
REMARK       I    between atoms: C9_16  and  N1_7 
REMARK    6  A    between atoms: C1_8  and  C2_9 
REMARK    7  A    between atoms: C4_11  and  C8_15 
REMARK    8  A    between atoms: C10_17  and  C9_16 
ROOT
HETATM    1  O1  UNK     1      -2.138   0.010   2.063  1.00  0.00    -0.306 OA
HETATM    2  O4  UNK     1      -2.210  -3.028  -0.652  1.00  0.00    -0.284 OA
HETATM    3  C4  UNK     1      -1.089  -0.197   1.182  1.00  0.00     0.123 A 
HETATM    4  C5  UNK     1      -1.044  -1.182   0.266  1.00  0.00     0.155 A 
HETATM    5  C7  UNK     1      -3.310  -1.880   1.090  1.00  0.00     0.051 A 
HETATM    6  C11 UNK     1      -3.223  -0.825   1.996  1.00  0.00     0.090 A 
HETATM    7  C12 UNK     1      -2.193  -2.114   0.162  1.00  0.00     0.221 A 
HETATM    8  C15 UNK     1      -4.441  -2.699   1.067  1.00  0.00     0.018 A 
HETATM    9  C16 UNK     1      -4.268  -0.584   2.888  1.00  0.00     0.038 A 
HETATM   10  C20 UNK     1      -5.486  -2.455   1.960  1.00  0.00     0.001 A 
HETATM   11  C21 UNK     1      -5.400  -1.400   2.869  1.00  0.00     0.003 A 
ENDROOT
BRANCH   3  12
HETATM   12  C8  UNK     1       0.010   0.769   1.359  1.00  0.00     0.004 A 
HETATM   13  C13 UNK     1       0.017   1.958   0.630  1.00  0.00     0.054 A 
HETATM   14  C17 UNK     1       1.057   2.873   0.797  1.00  0.00     0.102 A 
HETATM   15  C18 UNK     1       2.090   2.598   1.694  1.00  0.00     0.101 A 
HETATM   16  C19 UNK     1       2.083   1.409   2.423  1.00  0.00     0.040 A 
HETATM   17  C14 UNK     1       1.043   0.494   2.255  1.00  0.00     0.017 A 
BRANCH  14  18
HETATM   18  O5  UNK     1       1.055   4.030   0.079  1.00  0.00    -0.353 OA
HETATM   19  C22 UNK     1      -0.037   4.236  -0.815  1.00  0.00     0.210 C 
ENDBRANCH  14  18
BRANCH  15  20
HETATM   20  O6  UNK     1       3.110   3.484   1.868  1.00  0.00    -0.353 OA
HETATM   21  C23 UNK     1       4.249   3.334   1.022  1.00  0.00     0.210 C 
ENDBRANCH  15  20
ENDBRANCH   3  12
BRANCH   4  22
HETATM   22  O2  UNK     1       0.030  -1.380  -0.574  1.00  0.00    -0.335 OA
BRANCH  22  23
HETATM   23  C10 UNK     1      -0.128  -0.647  -1.774  1.00  0.00     0.278 C 
BRANCH  23  24
HETATM   24  C9  UNK     1       1.219  -0.245  -2.336  1.00  0.00     0.242 C 
HETATM   25  O3  UNK     1       2.281  -0.546  -1.796  1.00  0.00    -0.271 OA
HETATM   26  N1  UNK     1       1.089   0.485  -3.506  1.00  0.00    -0.355 N 
HETATM   27  H4  UNK     1       0.157   0.732  -3.829  1.00  0.00     0.162 HD
BRANCH  26  28
HETATM   28  C1  UNK     1       2.219   0.994  -4.249  1.00  0.00     0.080 C 
HETATM   29  C3  UNK     1       2.614   2.364  -3.710  1.00  0.00     0.032 C 
BRANCH  28  30
HETATM   30  C2  UNK     1       1.914   1.067  -5.751  1.00  0.00     0.020 C 
HETATM   31  C6  UNK     1       1.513  -0.282  -6.335  1.00  0.00     0.007 C 
ENDBRANCH  28  30
ENDBRANCH  26  28
ENDBRANCH  23  24
ENDBRANCH  22  23
ENDBRANCH   4  22
TORSDOF 8
