REMARK  3 active torsions:
REMARK  status: ('A' for Active; 'I' for Inactive)
REMARK    1  A    between atoms: C19_26  and  O4_5 
REMARK    2  A    between atoms: C5_12  and  N1_6 
REMARK       I    between atoms: C6_13  and  N2_7 
REMARK    3  A    between atoms: C6_13  and  C9_16 
ROOT
HETATM    1  O1  UNK     1      -1.433   2.137  -2.572  1.00  0.00    -0.267 OA
HETATM    2  N1  UNK     1      -2.587  -1.282   0.674  1.00  0.00    -0.377 N 
HETATM    3  N2  UNK     1      -1.284   0.148  -1.381  1.00  0.00    -0.345 N 
HETATM    4  C1  UNK     1      -1.138  -1.047   0.762  1.00  0.00     0.143 C 
HETATM    5  C2  UNK     1      -3.352  -0.325  -0.142  1.00  0.00     0.143 C 
HETATM    6  C3  UNK     1      -0.544  -0.874  -0.635  1.00  0.00     0.146 C 
HETATM    7  C4  UNK     1      -2.707  -0.157  -1.517  1.00  0.00     0.146 C 
HETATM    8  C6  UNK     1      -0.768   1.305  -1.953  1.00  0.00     0.260 C 
ENDROOT
BRANCH   8   9
HETATM    9  C9  UNK     1       0.679   1.559  -1.805  1.00  0.00     0.108 A 
HETATM   10  C13 UNK     1       1.468   1.063  -2.765  1.00  0.00     0.037 A 
HETATM   11  C16 UNK     1       2.908   1.262  -2.707  1.00  0.00     0.002 A 
HETATM   12  C17 UNK     1       3.446   1.972  -1.639  1.00  0.00     0.123 A 
HETATM   13  C18 UNK     1       3.769   0.763  -3.687  1.00  0.00     0.014 A 
HETATM   14  O2  UNK     1       2.611   2.492  -0.631  1.00  0.00    -0.271 OA
HETATM   15  C19 UNK     1       4.816   2.198  -1.524  1.00  0.00     0.102 A 
HETATM   16  C15 UNK     1       1.229   2.319  -0.660  1.00  0.00     0.304 A 
HETATM   17  O3  UNK     1       0.510   2.775   0.222  1.00  0.00    -0.259 OA
HETATM   18  C21 UNK     1       5.668   1.697  -2.506  1.00  0.00     0.040 A 
HETATM   19  C20 UNK     1       5.146   0.981  -3.585  1.00  0.00     0.004 A 
BRANCH  15  20
HETATM   20  O4  UNK     1       5.329   2.894  -0.475  1.00  0.00    -0.353 OA
HETATM   21  C22 UNK     1       5.697   2.146   0.685  1.00  0.00     0.210 C 
ENDBRANCH  15  20
ENDBRANCH   8   9
BRANCH   2  22
HETATM   22  C5  UNK     1      -3.250  -1.905   1.738  1.00  0.00     0.037 A 
HETATM   23  C7  UNK     1      -3.949  -3.127   1.581  1.00  0.00    -0.035 A 
HETATM   24  C10 UNK     1      -4.605  -3.733   2.652  1.00  0.00     0.011 A 
HETATM   25  C11 UNK     1      -3.990  -3.789   0.242  1.00  0.00     0.050 C 
HETATM   26  C14 UNK     1      -4.581  -3.135   3.913  1.00  0.00     0.024 A 
HETATM   27  C12 UNK     1      -3.902  -1.932   4.101  1.00  0.00     0.036 A 
HETATM   28 Cl1  UNK     1      -3.874  -1.195   5.656  1.00  0.00    -0.084 Cl
HETATM   29  C8  UNK     1      -3.246  -1.326   3.030  1.00  0.00     0.053 A 
ENDBRANCH   2  22
TORSDOF 3
