REMARK  3 active torsions:
REMARK  status: ('A' for Active; 'I' for Inactive)
REMARK    1  A    between atoms: C12_16  and  O3_4 
REMARK    2  A    between atoms: C14_18  and  O3_4 
REMARK    3  A    between atoms: C14_18  and  C15_19 
ROOT
HETATM    1  O1  UNK     1      -2.535  -1.011  -0.789  1.00  0.00    -0.274 OA
HETATM    2  O2  UNK     1      -4.596  -1.946  -1.019  1.00  0.00    -0.259 OA
HETATM    3  C1  UNK     1      -2.795  -1.608   3.499  1.00  0.00     0.040 C 
HETATM    4  C2  UNK     1      -3.925  -2.532   3.958  1.00  0.00     0.005 C 
HETATM    5  C3  UNK     1      -5.218  -2.213   3.226  1.00  0.00     0.005 C 
HETATM    6  C4  UNK     1      -2.744  -1.386   2.003  1.00  0.00    -0.033 A 
HETATM    7  C5  UNK     1      -5.033  -2.375   1.719  1.00  0.00     0.045 C 
HETATM    8  C6  UNK     1      -3.755  -1.761   1.197  1.00  0.00     0.025 A 
HETATM    9  C7  UNK     1      -1.553  -0.742   1.424  1.00  0.00     0.005 A 
HETATM   10  C8  UNK     1      -1.486  -0.580   0.042  1.00  0.00     0.092 A 
HETATM   11  C9  UNK     1      -3.686  -1.589  -0.278  1.00  0.00     0.295 A 
HETATM   12  C10 UNK     1      -0.472  -0.266   2.181  1.00  0.00     0.017 A 
HETATM   13  C11 UNK     1      -0.394   0.017  -0.592  1.00  0.00     0.075 A 
HETATM   14  C12 UNK     1       0.670   0.476   0.177  1.00  0.00     0.071 A 
HETATM   15  C13 UNK     1       0.630   0.336   1.562  1.00  0.00     0.038 A 
ENDROOT
BRANCH  14  16
HETATM   16  O3  UNK     1       1.742   1.062  -0.419  1.00  0.00    -0.347 OA
BRANCH  16  17
HETATM   17  C14 UNK     1       1.716   1.172  -1.842  1.00  0.00     0.214 C 
BRANCH  17  18
HETATM   18  C15 UNK     1       2.991   1.812  -2.307  1.00  0.00    -0.034 A 
HETATM   19  C16 UNK     1       3.063   3.196  -2.427  1.00  0.00     0.011 A 
HETATM   20  C18 UNK     1       4.248   3.791  -2.859  1.00  0.00     0.024 A 
HETATM   21  C20 UNK     1       5.353   2.999  -3.169  1.00  0.00     0.034 A 
HETATM   22  C19 UNK     1       5.274   1.612  -3.047  1.00  0.00     0.024 A 
HETATM   23 Cl1  UNK     1       6.816   3.733  -3.702  1.00  0.00    -0.084 Cl
HETATM   24  C17 UNK     1       4.088   1.016  -2.615  1.00  0.00     0.011 A 
ENDBRANCH  17  18
ENDBRANCH  16  17
ENDBRANCH  14  16
TORSDOF 3
