REMARK  9 active torsions:
REMARK  status: ('A' for Active; 'I' for Inactive)
REMARK    1  A    between atoms: C1_6  and  O1_2 
REMARK    2  A    between atoms: C5_10  and  O1_2 
REMARK    3  A    between atoms: C13_18  and  O2_3 
REMARK    4  A    between atoms: C2_7  and  O2_3 
REMARK    5  A    between atoms: C10_15  and  O3_4 
REMARK    6  A    between atoms: C8_13  and  O3_4 
REMARK    7  A    between atoms: C3_8  and  C9_14 
REMARK    8  A    between atoms: C5_10  and  C8_13 
REMARK    9  A    between atoms: C11_16  and  C12_17 
ROOT
HETATM    1  N1  UNK     1      -5.668  -4.345   2.827  1.00  0.00    -0.191 NA
HETATM    2  C9  UNK     1      -3.440  -2.855   0.659  1.00  0.00     0.035 C 
HETATM    3  C11 UNK     1      -4.001  -2.595   1.870  1.00  0.00     0.055 C 
HETATM    4  C26 UNK     1      -4.923  -3.570   2.392  1.00  0.00     0.100 C 
ENDROOT
BRANCH   3   5
HETATM    5  C12 UNK     1      -3.715  -1.405   2.656  1.00  0.00    -0.015 A 
HETATM    6  C19 UNK     1      -2.664  -1.410   3.573  1.00  0.00     0.013 A 
HETATM    7  C23 UNK     1      -2.391  -0.269   4.326  1.00  0.00     0.001 A 
HETATM    8  C25 UNK     1      -3.168   0.878   4.163  1.00  0.00     0.000 A 
HETATM    9  C24 UNK     1      -4.219   0.883   3.246  1.00  0.00     0.001 A 
HETATM   10  C20 UNK     1      -4.493  -0.258   2.492  1.00  0.00     0.013 A 
ENDBRANCH   3   5
BRANCH   2  11
HETATM   11  C3  UNK     1      -2.496  -1.981  -0.054  1.00  0.00    -0.031 A 
HETATM   12  C4  UNK     1      -1.125  -2.113   0.164  1.00  0.00     0.051 A 
HETATM   13  C2  UNK     1      -0.229  -1.284  -0.512  1.00  0.00     0.104 A 
HETATM   14  C1  UNK     1      -0.705  -0.324  -1.405  1.00  0.00     0.119 A 
HETATM   15  C6  UNK     1      -2.076  -0.192  -1.623  1.00  0.00     0.048 A 
HETATM   16 Br1  UNK     1      -2.760   1.102  -2.827  1.00  0.00    -0.048 Br
HETATM   17  C7  UNK     1      -2.972  -1.021  -0.947  1.00  0.00     0.033 A 
BRANCH  13  18
HETATM   18  O2  UNK     1       1.108  -1.424  -0.290  1.00  0.00    -0.349 OA
BRANCH  18  19
HETATM   19  C13 UNK     1       1.567  -1.228   1.046  1.00  0.00     0.171 C 
HETATM   20  C21 UNK     1       2.988  -0.708   1.008  1.00  0.00     0.034 C 
ENDBRANCH  18  19
ENDBRANCH  13  18
BRANCH  14  21
HETATM   21  O1  UNK     1       0.188   0.477  -2.056  1.00  0.00    -0.345 OA
BRANCH  21  22
HETATM   22  C5  UNK     1       0.541   1.702  -1.419  1.00  0.00     0.202 C 
BRANCH  22  23
HETATM   23  C8  UNK     1       1.553   2.434  -2.280  1.00  0.00     0.202 C 
BRANCH  23  24
HETATM   24  O3  UNK     1       2.716   1.626  -2.418  1.00  0.00    -0.349 OA
BRANCH  24  25
HETATM   25  C10 UNK     1       3.905   2.282  -2.598  1.00  0.00     0.068 A 
HETATM   26  C15 UNK     1       5.092   1.714  -2.136  1.00  0.00     0.037 A 
HETATM   27  C17 UNK     1       6.303   2.381  -2.321  1.00  0.00     0.009 A 
HETATM   28  C14 UNK     1       6.326   3.618  -2.967  1.00  0.00    -0.062 A 
HETATM   29  C18 UNK     1       5.139   4.186  -3.429  1.00  0.00     0.009 A 
HETATM   30  C22 UNK     1       7.621   4.332  -3.162  1.00  0.00     0.048 C 
HETATM   31  C16 UNK     1       3.928   3.518  -3.244  1.00  0.00     0.037 A 
ENDBRANCH  24  25
ENDBRANCH  23  24
ENDBRANCH  22  23
ENDBRANCH  21  22
ENDBRANCH  14  21
ENDBRANCH   2  11
TORSDOF 9
