REMARK  2 active torsions:
REMARK  status: ('A' for Active; 'I' for Inactive)
REMARK    1  A    between atoms: C4_9  and  O2_3 
REMARK    2  A    between atoms: C7_12  and  O3_4 
ROOT
HETATM    1 Cl1  UNK     1       3.318   1.879  -2.021  1.00  0.00    -0.077 Cl
HETATM    2  O1  UNK     1       1.341   0.748   1.245  1.00  0.00    -0.273 OA
HETATM    3  O4  UNK     1       3.323   1.797   0.877  1.00  0.00    -0.258 OA
HETATM    4  C1  UNK     1      -0.057   0.069  -0.634  1.00  0.00     0.039 A 
HETATM    5  C2  UNK     1       0.174   0.150   0.738  1.00  0.00     0.095 A 
HETATM    6  C3  UNK     1       0.949   0.624  -1.563  1.00  0.00    -0.018 A 
HETATM    7  C4  UNK     1      -1.249  -0.545  -1.048  1.00  0.00     0.084 A 
HETATM    8  C5  UNK     1      -0.726  -0.350   1.682  1.00  0.00     0.075 A 
HETATM    9  C6  UNK     1      -2.162  -1.052  -0.115  1.00  0.00     0.074 A 
HETATM   10  C7  UNK     1      -1.901  -0.954   1.249  1.00  0.00     0.073 A 
HETATM   11  C8  UNK     1       2.056   1.190  -1.046  1.00  0.00     0.116 A 
HETATM   12  C9  UNK     1       0.711   0.542  -3.053  1.00  0.00     0.051 C 
HETATM   13  C10 UNK     1       2.312   1.282   0.412  1.00  0.00     0.310 A 
ENDROOT
BRANCH   7  14
HETATM   14  O2  UNK     1      -1.609  -0.696  -2.355  1.00  0.00    -0.355 OA
HETATM   15  C11 UNK     1      -2.370   0.357  -2.941  1.00  0.00     0.210 C 
ENDBRANCH   7  14
BRANCH  10  16
HETATM   16  O3  UNK     1      -2.790  -1.448   2.152  1.00  0.00    -0.356 OA
HETATM   17  C12 UNK     1      -2.455  -1.314   3.533  1.00  0.00     0.210 C 
ENDBRANCH  10  16
TORSDOF 2
