REMARK  2 active torsions:
REMARK  status: ('A' for Active; 'I' for Inactive)
REMARK       I    between atoms: C9_17  and  N1_6 
REMARK    1  A    between atoms: C7_15  and  N2_7 
REMARK    2  A    between atoms: C3_11  and  C9_17 
ROOT
HETATM    1  O1  UNK     1      -1.018   0.401  -2.223  1.00  0.00    -0.274 OA
HETATM    2  O2  UNK     1      -2.858  -0.839  -1.679  1.00  0.00    -0.259 OA
HETATM    3  C1  UNK     1       0.926   0.369  -0.764  1.00  0.00     0.001 A 
HETATM    4  C2  UNK     1       0.290   0.823  -1.914  1.00  0.00     0.089 A 
HETATM    5  C3  UNK     1      -1.023  -0.947  -0.183  1.00  0.00     0.110 A 
HETATM    6  C4  UNK     1       0.219  -0.549   0.116  1.00  0.00     0.037 A 
HETATM    7  C5  UNK     1       2.223   0.811  -0.491  1.00  0.00     0.050 A 
HETATM    8  C6  UNK     1       0.911   1.704  -2.797  1.00  0.00     0.041 A 
HETATM    9  C7  UNK     1       2.859   1.695  -1.369  1.00  0.00     0.103 A 
HETATM   10  C8  UNK     1      -1.720  -0.477  -1.401  1.00  0.00     0.304 A 
HETATM   11  C10 UNK     1       2.204   2.140  -2.519  1.00  0.00     0.039 A 
ENDROOT
BRANCH   5  12
HETATM   12  C9  UNK     1      -1.654  -1.875   0.767  1.00  0.00     0.284 C 
HETATM   13  O3  UNK     1      -1.565  -3.091   0.682  1.00  0.00    -0.265 OA
HETATM   14  N1  UNK     1      -2.387  -1.315   1.813  1.00  0.00    -0.208 N 
HETATM   15  C11 UNK     1      -3.054  -1.998   2.808  1.00  0.00     0.123 A 
HETATM   16  N3  UNK     1      -2.514   0.027   1.951  1.00  0.00    -0.177 NA
HETATM   17  C12 UNK     1      -3.634  -1.053   3.618  1.00  0.00     0.040 A 
HETATM   18  C13 UNK     1      -3.268   0.173   3.042  1.00  0.00     0.141 A 
ENDBRANCH   5  12
BRANCH   9  19
HETATM   19  N2  UNK     1       4.178   2.142  -1.088  1.00  0.00    -0.116 N 
HETATM   20  O4  UNK     1       4.733   2.936  -1.886  1.00  0.00    -0.532 OA
HETATM   21  O5  UNK     1       4.751   1.732  -0.050  1.00  0.00    -0.532 OA
ENDBRANCH   9  19
TORSDOF 2
