REMARK  3 active torsions:
REMARK  status: ('A' for Active; 'I' for Inactive)
REMARK    1  A    between atoms: C8_12  and  O2_2 
REMARK    2  A    between atoms: C9_13  and  O3_3 
REMARK    3  A    between atoms: C3_7  and  C6_10 
ROOT
HETATM    1  O1  UNK     1      -1.250   0.244  -1.906  1.00  0.00    -0.321 OA
HETATM    2  O4  UNK     1       1.699   0.326   0.911  1.00  0.00    -0.286 OA
HETATM    3  C1  UNK     1      -0.524  -0.211   0.363  1.00  0.00     0.052 A 
HETATM    4  C2  UNK     1      -1.490  -0.227  -0.641  1.00  0.00     0.092 A 
HETATM    5  C3  UNK     1       1.027   0.864  -1.315  1.00  0.00     0.048 A 
HETATM    6  C4  UNK     1       0.814   0.331   0.064  1.00  0.00     0.198 A 
HETATM    7  C5  UNK     1      -0.823  -0.708   1.634  1.00  0.00     0.058 A 
HETATM    8  C7  UNK     1      -2.762  -0.739  -0.381  1.00  0.00     0.077 A 
HETATM    9  C8  UNK     1      -2.096  -1.220   1.893  1.00  0.00     0.102 A 
HETATM   10  C9  UNK     1      -3.063  -1.235   0.887  1.00  0.00     0.104 A 
HETATM   11  C10 UNK     1      -0.009   0.769  -2.165  1.00  0.00     0.159 A 
ENDROOT
BRANCH   5  12
HETATM   12  C6  UNK     1       2.297   1.436  -1.675  1.00  0.00    -0.020 A 
HETATM   13  C11 UNK     1       2.526   2.803  -1.498  1.00  0.00     0.012 A 
HETATM   14  C13 UNK     1       3.757   3.358  -1.847  1.00  0.00     0.001 A 
HETATM   15  C15 UNK     1       4.763   2.547  -2.375  1.00  0.00     0.000 A 
HETATM   16  C14 UNK     1       4.537   1.183  -2.553  1.00  0.00     0.001 A 
HETATM   17  C12 UNK     1       3.306   0.628  -2.204  1.00  0.00     0.012 A 
ENDBRANCH   5  12
BRANCH   9  18
HETATM   18  O2  UNK     1      -2.383  -1.703   3.134  1.00  0.00    -0.353 OA
HETATM   19  C16 UNK     1      -2.911  -0.779   4.083  1.00  0.00     0.210 C 
ENDBRANCH   9  18
BRANCH  10  20
HETATM   20  O3  UNK     1      -4.308  -1.732   1.132  1.00  0.00    -0.353 OA
HETATM   21  C17 UNK     1      -4.509  -3.123   0.891  1.00  0.00     0.210 C 
ENDBRANCH  10  20
TORSDOF 3
