REMARK  5 active torsions:
REMARK  status: ('A' for Active; 'I' for Inactive)
REMARK    1  A    between atoms: C12_20  and  O1_1 
REMARK    2  A    between atoms: N1_8  and  O1_1 
REMARK    3  A    between atoms: C16_24  and  O7_7 
REMARK    4  A    between atoms: C2_10  and  C6_14 
REMARK    5  A    between atoms: C12_20  and  C6_14 
ROOT
HETATM    1  O2  UNK     1       2.682   1.348   0.305  1.00  0.00    -0.274 OA
HETATM    2  O5  UNK     1       1.770   0.036   1.918  1.00  0.00    -0.259 OA
HETATM    3  C1  UNK     1       1.105  -0.013  -1.612  1.00  0.00    -0.036 A 
HETATM    4  C2  UNK     1       1.041  -0.374  -0.313  1.00  0.00     0.034 A 
HETATM    5  C5  UNK     1       2.029   1.065  -2.021  1.00  0.00     0.005 A 
HETATM    6  C9  UNK     1       2.785   1.710  -1.047  1.00  0.00     0.092 A 
HETATM    7  C10 UNK     1       1.844   0.330   0.728  1.00  0.00     0.295 A 
HETATM    8  C11 UNK     1       0.267  -0.641  -2.698  1.00  0.00     0.050 C 
HETATM    9  C13 UNK     1       2.208   1.484  -3.349  1.00  0.00     0.017 A 
HETATM   10  C14 UNK     1       3.681   2.739  -1.348  1.00  0.00     0.074 A 
HETATM   11  C15 UNK     1       3.102   2.513  -3.670  1.00  0.00     0.037 A 
HETATM   12  C16 UNK     1       3.837   3.141  -2.669  1.00  0.00     0.068 A 
ENDROOT
BRANCH   4  13
HETATM   13  C6  UNK     1       0.192  -1.496   0.229  1.00  0.00     0.158 C 
BRANCH  13  14
HETATM   14  C12 UNK     1      -1.170  -0.983   0.615  1.00  0.00     0.286 C 
HETATM   15  O6  UNK     1      -1.569   0.168   0.505  1.00  0.00    -0.263 OA
BRANCH  14  16
HETATM   16  O1  UNK     1      -1.891  -2.039   1.102  1.00  0.00    -0.187 OA
BRANCH  16  17
HETATM   17  N1  UNK     1      -3.190  -1.641   1.490  1.00  0.00    -0.145 N 
HETATM   18  C7  UNK     1      -4.233  -1.668   0.619  1.00  0.00     0.251 A 
HETATM   19  C3  UNK     1      -5.429  -1.149   1.370  1.00  0.00     0.115 A 
HETATM   20  O3  UNK     1      -4.241  -2.022  -0.549  1.00  0.00    -0.271 OA
HETATM   21  C4  UNK     1      -4.926  -0.894   2.793  1.00  0.00     0.115 A 
HETATM   22  C8  UNK     1      -3.473  -1.283   2.770  1.00  0.00     0.251 A 
HETATM   23  O4  UNK     1      -2.727  -1.256   3.736  1.00  0.00    -0.271 OA
ENDBRANCH  16  17
ENDBRANCH  14  16
ENDBRANCH  13  14
ENDBRANCH   4  13
BRANCH  12  24
HETATM   24  O7  UNK     1       4.705   4.140  -2.982  1.00  0.00    -0.361 OA
HETATM   25  H13 UNK     1       4.684   4.285  -3.944  1.00  0.00     0.217 HD
ENDBRANCH  12  24
TORSDOF 5
