REMARK  10 active torsions:
REMARK  status: ('A' for Active; 'I' for Inactive)
REMARK    1  A    between atoms: C1_12  and  O1_4 
REMARK    2  A    between atoms: C18_29  and  O1_4 
REMARK    3  A    between atoms: C16_27  and  O3_6 
REMARK    4  A    between atoms: C4_15  and  O3_6 
REMARK    5  A    between atoms: C14_25  and  O4_7 
REMARK    6  A    between atoms: C21_32  and  O4_7 
REMARK       I    between atoms: C18_29  and  N1_11 
REMARK    7  A    between atoms: C9_20  and  N1_11 
REMARK    8  A    between atoms: C2_13  and  C7_18 
REMARK    9  A    between atoms: C16_27  and  C9_20 
REMARK   10  A    between atoms: C15_26  and  C20_31 
ROOT
HETATM    1  O2  UNK     1      -2.082  -1.434  -1.002  1.00  0.00    -0.302 OA
HETATM    2  O5  UNK     1      -2.731   0.537   2.503  1.00  0.00    -0.284 OA
HETATM    3  C2  UNK     1       0.449   1.718  -0.024  1.00  0.00    -0.023 A 
HETATM    4  C3  UNK     1      -1.438   0.325   0.541  1.00  0.00     0.051 A 
HETATM    5  C4  UNK     1       0.620   1.002  -1.209  1.00  0.00     0.088 A 
HETATM    6  C5  UNK     1      -1.270  -0.390  -0.642  1.00  0.00     0.093 A 
HETATM    7  C6  UNK     1      -0.580   1.382   0.856  1.00  0.00     0.028 A 
HETATM    8  C8  UNK     1      -0.239  -0.052  -1.520  1.00  0.00     0.076 A 
HETATM    9  C13 UNK     1      -2.532  -0.052   1.449  1.00  0.00     0.221 A 
HETATM   10  C14 UNK     1      -3.380  -1.187   1.016  1.00  0.00     0.165 A 
HETATM   11  C15 UNK     1      -3.116  -1.798  -0.152  1.00  0.00     0.197 A 
ENDROOT
BRANCH   5  12
HETATM   12  O3  UNK     1       1.622   1.321  -2.076  1.00  0.00    -0.277 OA
BRANCH  12  13
HETATM   13  C16 UNK     1       1.271   2.269  -3.049  1.00  0.00     0.286 C 
HETATM   14  O6  UNK     1       0.166   2.796  -3.140  1.00  0.00    -0.263 OA
BRANCH  13  15
HETATM   15  C9  UNK     1       2.420   2.595  -3.995  1.00  0.00     0.183 C 
HETATM   16  C19 UNK     1       2.035   2.255  -5.427  1.00  0.00     0.043 C 
BRANCH  15  17
HETATM   17  N1  UNK     1       3.632   1.911  -3.627  1.00  0.00    -0.323 N 
HETATM   18  C18 UNK     1       4.548   2.403  -2.717  1.00  0.00     0.362 C 
HETATM   19  O7  UNK     1       4.454   3.467  -2.114  1.00  0.00    -0.238 OA
HETATM   20  H15 UNK     1       3.805   0.988  -4.015  1.00  0.00     0.165 HD
BRANCH  18  21
HETATM   21  O1  UNK     1       5.587   1.526  -2.584  1.00  0.00    -0.294 OA
BRANCH  21  22
HETATM   22  C1  UNK     1       6.617   1.911  -1.667  1.00  0.00     0.061 C 
HETATM   23  C10 UNK     1       5.996   2.072  -0.280  1.00  0.00     0.046 C 
HETATM   24  C11 UNK     1       7.667   0.802  -1.661  1.00  0.00     0.046 C 
HETATM   25  C12 UNK     1       7.228   3.227  -2.146  1.00  0.00     0.046 C 
ENDBRANCH  21  22
ENDBRANCH  18  21
ENDBRANCH  15  17
ENDBRANCH  13  15
ENDBRANCH  12  13
ENDBRANCH   5  12
BRANCH   3  26
HETATM   26  C7  UNK     1       1.362   2.849   0.320  1.00  0.00     0.037 C 
HETATM   27  C17 UNK     1       2.578   2.389   1.119  1.00  0.00     0.010 C 
ENDBRANCH   3  26
BRANCH  11  28
HETATM   28  C20 UNK     1      -3.913  -2.953  -0.679  1.00  0.00     0.442 C 
HETATM   29  F1  UNK     1      -4.907  -3.279   0.171  1.00  0.00    -0.164 F 
HETATM   30  F2  UNK     1      -4.467  -2.653  -1.871  1.00  0.00    -0.164 F 
HETATM   31  F3  UNK     1      -3.136  -4.042  -0.846  1.00  0.00    -0.164 F 
ENDBRANCH  11  28
BRANCH  10  32
HETATM   32  O4  UNK     1      -4.417  -1.575   1.837  1.00  0.00    -0.304 OA
BRANCH  32  33
HETATM   33  C21 UNK     1      -4.088  -1.982   3.099  1.00  0.00     0.076 A 
HETATM   34  C23 UNK     1      -4.824  -1.527   4.193  1.00  0.00     0.037 A 
HETATM   35  C25 UNK     1      -4.489  -1.943   5.482  1.00  0.00     0.003 A 
HETATM   36  C26 UNK     1      -3.417  -2.815   5.676  1.00  0.00     0.000 A 
HETATM   37  C24 UNK     1      -2.681  -3.270   4.583  1.00  0.00     0.003 A 
HETATM   38  C22 UNK     1      -3.016  -2.853   3.294  1.00  0.00     0.037 A 
ENDBRANCH  32  33
ENDBRANCH  10  32
TORSDOF 10
