REMARK  6 active torsions:
REMARK  status: ('A' for Active; 'I' for Inactive)
REMARK    1  A    between atoms: C2_9  and  O2_2 
REMARK    2  A    between atoms: C7_14  and  O4_4 
REMARK    3  A    between atoms: C12_19  and  O5_5 
REMARK    4  A    between atoms: C13_20  and  O6_6 
REMARK    5  A    between atoms: C15_22  and  O7_7 
REMARK    6  A    between atoms: C1_8  and  C3_10 
ROOT
HETATM    1  O1  UNK     1       0.132  -0.079   0.768  1.00  0.00    -0.337 OA
HETATM    2  O3  UNK     1      -2.849  -1.087  -1.868  1.00  0.00    -0.289 OA
HETATM    3  C1  UNK     1       0.050   0.573  -0.509  1.00  0.00     0.198 C 
HETATM    4  C2  UNK     1      -0.588  -0.338  -1.561  1.00  0.00     0.227 C 
HETATM    5  C4  UNK     1      -1.957  -0.769  -1.091  1.00  0.00     0.196 C 
HETATM    6  C5  UNK     1      -2.146  -0.855   0.373  1.00  0.00     0.079 A 
HETATM    7  C6  UNK     1      -1.084  -0.524   1.220  1.00  0.00     0.089 A 
HETATM    8  C7  UNK     1      -3.358  -1.304   0.904  1.00  0.00     0.085 A 
HETATM    9  C10 UNK     1      -1.223  -0.675   2.600  1.00  0.00     0.074 A 
HETATM   10  C11 UNK     1      -3.498  -1.433   2.287  1.00  0.00     0.074 A 
HETATM   11  C12 UNK     1      -2.432  -1.124   3.132  1.00  0.00     0.071 A 
ENDROOT
BRANCH   3  12
HETATM   12  C3  UNK     1       1.428   1.044  -0.934  1.00  0.00    -0.023 A 
HETATM   13  C8  UNK     1       1.566   2.220  -1.670  1.00  0.00     0.049 A 
HETATM   14  C13 UNK     1       2.833   2.652  -2.062  1.00  0.00     0.099 A 
HETATM   15  C15 UNK     1       3.961   1.908  -1.717  1.00  0.00     0.098 A 
HETATM   16  C14 UNK     1       3.822   0.732  -0.980  1.00  0.00     0.040 A 
HETATM   17  C9  UNK     1       2.555   0.300  -0.588  1.00  0.00     0.013 A 
BRANCH  14  18
HETATM   18  O6  UNK     1       2.955   3.804  -2.780  1.00  0.00    -0.358 OA
HETATM   19  H11 UNK     1       3.900   3.950  -2.963  1.00  0.00     0.217 HD
ENDBRANCH  14  18
BRANCH  15  20
HETATM   20  O7  UNK     1       5.204   2.320  -2.093  1.00  0.00    -0.358 OA
HETATM   21  H12 UNK     1       5.861   1.682  -1.766  1.00  0.00     0.217 HD
ENDBRANCH  15  20
ENDBRANCH   3  12
BRANCH   4  22
HETATM   22  O2  UNK     1       0.157  -1.526  -1.775  1.00  0.00    -0.385 OA
HETATM   23  H6  UNK     1       0.350  -1.923  -0.910  1.00  0.00     0.210 HD
ENDBRANCH   4  22
BRANCH  11  24
HETATM   24  O5  UNK     1      -2.572  -1.260   4.479  1.00  0.00    -0.361 OA
HETATM   25  H10 UNK     1      -3.470  -1.580   4.673  1.00  0.00     0.217 HD
ENDBRANCH  11  24
BRANCH   8  26
HETATM   26  O4  UNK     1      -4.425  -1.634   0.126  1.00  0.00    -0.360 OA
HETATM   27  H9  UNK     1      -4.245  -1.428  -0.804  1.00  0.00     0.217 HD
ENDBRANCH   8  26
TORSDOF 6
