REMARK  1 active torsions:
REMARK  status: ('A' for Active; 'I' for Inactive)
REMARK    1  A    between atoms: C14_18  and  C17_21 
ROOT
HETATM    1  O1  UNK     1      -0.498  -0.387   1.768  1.00  0.00    -0.273 OA
HETATM    2  O2  UNK     1      -1.996  -1.220   3.257  1.00  0.00    -0.259 OA
HETATM    3  N1  UNK     1       2.755   1.539  -1.265  1.00  0.00    -0.380 N 
HETATM    4  C1  UNK     1       1.516   0.936  -1.040  1.00  0.00     0.045 A 
HETATM    5  C2  UNK     1       1.096   0.591   0.262  1.00  0.00     0.004 A 
HETATM    6  C3  UNK     1       3.733   1.582  -0.184  1.00  0.00     0.123 C 
HETATM    7  C4  UNK     1       3.238   1.689  -2.635  1.00  0.00     0.123 C 
HETATM    8  C5  UNK     1       0.626   0.687  -2.106  1.00  0.00    -0.030 A 
HETATM    9  C6  UNK     1       1.996   0.853   1.448  1.00  0.00     0.045 C 
HETATM   10  C7  UNK     1       3.048   1.911   1.133  1.00  0.00     0.025 C 
HETATM   11  C8  UNK     1       2.100   2.101  -3.558  1.00  0.00     0.024 C 
HETATM   12  C9  UNK     1       1.002   1.046  -3.525  1.00  0.00     0.042 C 
HETATM   13  C10 UNK     1      -0.150  -0.043   0.448  1.00  0.00     0.099 A 
HETATM   14  C11 UNK     1      -0.612   0.056  -1.880  1.00  0.00     0.024 A 
HETATM   15  C12 UNK     1      -1.021  -0.330  -0.597  1.00  0.00     0.006 A 
HETATM   16  C13 UNK     1      -2.311  -1.005  -0.313  1.00  0.00    -0.030 A 
HETATM   17  C14 UNK     1      -2.634  -1.281   0.969  1.00  0.00     0.084 A 
HETATM   18  C15 UNK     1      -1.709  -0.970   2.090  1.00  0.00     0.302 A 
HETATM   19  C16 UNK     1      -3.162  -1.345  -1.516  1.00  0.00     0.050 C 
ENDROOT
BRANCH  17  20
HETATM   20  C17 UNK     1      -3.930  -1.904   1.307  1.00  0.00     0.276 C 
HETATM   21  O3  UNK     1      -4.490  -1.696   2.369  1.00  0.00    -0.301 OA
ENDBRANCH  17  20
TORSDOF 1
