REMARK  4 active torsions:
REMARK  status: ('A' for Active; 'I' for Inactive)
REMARK    1  A    between atoms: C14_21  and  O3_4 
REMARK    2  A    between atoms: C12_19  and  N1_6 
REMARK       I    between atoms: C15_22  and  N1_6 
REMARK    3  A    between atoms: C10_17  and  C6_13 
REMARK    4  A    between atoms: C13_20  and  C15_22 
ROOT
HETATM    1  N2  UNK     1       0.959   0.446   2.039  1.00  0.00    -0.191 NA
HETATM    2  C10 UNK     1      -0.704  -0.761  -0.782  1.00  0.00     0.045 C 
HETATM    3  C13 UNK     1       0.355  -0.002  -0.438  1.00  0.00     0.113 C 
HETATM    4  C20 UNK     1       0.685   0.243   0.930  1.00  0.00     0.105 C 
ENDROOT
BRANCH   3   5
HETATM    5  C15 UNK     1       1.173   0.586  -1.569  1.00  0.00     0.266 C 
HETATM    6  O4  UNK     1       0.870   0.360  -2.738  1.00  0.00    -0.267 OA
HETATM    7  N1  UNK     1       2.243   1.362  -1.137  1.00  0.00    -0.320 N 
HETATM    8  H9  UNK     1       2.392   1.478  -0.138  1.00  0.00     0.169 HD
BRANCH   7   9
HETATM    9  C12 UNK     1       3.192   2.046  -1.939  1.00  0.00     0.070 A 
HETATM   10  C14 UNK     1       4.206   2.773  -1.339  1.00  0.00     0.095 A 
HETATM   11  C17 UNK     1       5.132   3.440  -2.141  1.00  0.00     0.041 A 
HETATM   12  C19 UNK     1       5.031   3.369  -3.530  1.00  0.00     0.026 A 
HETATM   13  C18 UNK     1       4.003   2.631  -4.118  1.00  0.00     0.036 A 
HETATM   14  C16 UNK     1       3.077   1.964  -3.316  1.00  0.00     0.056 A 
HETATM   15 Cl1  UNK     1       3.879   2.544  -5.832  1.00  0.00    -0.084 Cl
BRANCH  10  16
HETATM   16  O3  UNK     1       4.323   2.855   0.016  1.00  0.00    -0.354 OA
HETATM   17  C21 UNK     1       5.120   1.863   0.659  1.00  0.00     0.210 C 
ENDBRANCH  10  16
ENDBRANCH   7   9
ENDBRANCH   3   5
BRANCH   2  18
HETATM   18  C6  UNK     1      -1.620  -1.415   0.114  1.00  0.00     0.039 A 
HETATM   19  C5  UNK     1      -2.848  -0.716   0.581  1.00  0.00     0.197 A 
HETATM   20  C1  UNK     1      -3.722  -1.470   1.498  1.00  0.00     0.049 A 
HETATM   21  O2  UNK     1      -3.130   0.423   0.229  1.00  0.00    -0.286 OA
HETATM   22  C2  UNK     1      -3.360  -2.764   1.872  1.00  0.00     0.089 A 
HETATM   23  C3  UNK     1      -4.900  -0.901   1.990  1.00  0.00     0.025 A 
HETATM   24  O1  UNK     1      -2.217  -3.372   1.420  1.00  0.00    -0.321 OA
HETATM   25  C7  UNK     1      -4.173  -3.496   2.738  1.00  0.00     0.039 A 
HETATM   26  C9  UNK     1      -1.412  -2.660   0.564  1.00  0.00     0.158 A 
HETATM   27  C8  UNK     1      -5.348  -2.929   3.230  1.00  0.00     0.009 A 
HETATM   28  C4  UNK     1      -5.711  -1.635   2.857  1.00  0.00    -0.061 A 
HETATM   29  C11 UNK     1      -6.971  -1.034   3.385  1.00  0.00     0.048 C 
ENDBRANCH   2  18
TORSDOF 4
