REMARK  7 active torsions:
REMARK  status: ('A' for Active; 'I' for Inactive)
REMARK    1  A    between atoms: C11_18  and  O3_3 
REMARK    2  A    between atoms: C19_26  and  O3_3 
REMARK    3  A    between atoms: C22_29  and  O6_6 
REMARK    4  A    between atoms: C23_30  and  O6_6 
REMARK    5  A    between atoms: C1_8  and  C10_17 
REMARK    6  A    between atoms: C11_18  and  C6_13 
REMARK    7  A    between atoms: C19_26  and  C22_29 
ROOT
HETATM    1  O1  UNK     1      -2.302  -3.101  -0.717  1.00  0.00    -0.293 OA
HETATM    2  N1  UNK     1      -2.346   0.401   2.471  1.00  0.00    -0.362 N 
HETATM    3  C1  UNK     1      -0.720  -1.285   0.871  1.00  0.00     0.104 C 
HETATM    4  C2  UNK     1      -2.244  -1.285   0.811  1.00  0.00     0.024 C 
HETATM    5  C3  UNK     1      -2.972  -0.444   1.576  1.00  0.00     0.020 C 
HETATM    6  C4  UNK     1      -4.475  -0.366   1.520  1.00  0.00     0.058 C 
HETATM    7  C5  UNK     1      -5.030  -0.922   0.215  1.00  0.00     0.014 C 
HETATM    8  C6  UNK     1      -0.171  -0.404   1.997  1.00  0.00     0.052 C 
HETATM    9  C7  UNK     1      -4.455  -2.297  -0.076  1.00  0.00     0.084 C 
HETATM   10  C8  UNK     1      -2.942  -2.276  -0.066  1.00  0.00     0.158 C 
HETATM   11  C9  UNK     1      -0.982   0.398   2.725  1.00  0.00     0.018 C 
HETATM   12  C13 UNK     1      -0.560   1.306   3.849  1.00  0.00     0.069 C 
HETATM   13  H8  UNK     1      -2.929   1.008   3.036  1.00  0.00     0.165 HD
ENDROOT
BRANCH   3  14
HETATM   14  C10 UNK     1      -0.149  -0.854  -0.453  1.00  0.00     0.029 A 
HETATM   15  C12 UNK     1      -0.455   0.513  -0.947  1.00  0.00     0.194 A 
HETATM   16  O5  UNK     1      -1.153   1.293  -0.312  1.00  0.00    -0.287 OA
HETATM   17  C15 UNK     1       0.127   0.883  -2.250  1.00  0.00     0.048 A 
HETATM   18  C16 UNK     1       0.915  -0.047  -2.930  1.00  0.00     0.089 A 
HETATM   19  C17 UNK     1      -0.103   2.146  -2.800  1.00  0.00     0.018 A 
HETATM   20  O2  UNK     1       1.174  -1.301  -2.436  1.00  0.00    -0.321 OA
HETATM   21  C18 UNK     1       1.477   0.282  -4.164  1.00  0.00     0.038 A 
HETATM   22  C14 UNK     1       0.624  -1.632  -1.222  1.00  0.00     0.154 A 
HETATM   23  C21 UNK     1       1.248   1.543  -4.715  1.00  0.00     0.003 A 
HETATM   24  C20 UNK     1       0.460   2.473  -4.035  1.00  0.00     0.001 A 
ENDBRANCH   3  14
BRANCH   8  25
HETATM   25  C11 UNK     1       1.280  -0.493   2.238  1.00  0.00     0.292 C 
HETATM   26  O4  UNK     1       1.781  -1.292   3.008  1.00  0.00    -0.259 OA
BRANCH  25  27
HETATM   27  O3  UNK     1       1.898   0.438   1.474  1.00  0.00    -0.316 OA
BRANCH  27  28
HETATM   28  C19 UNK     1       3.324   0.476   1.599  1.00  0.00     0.205 C 
BRANCH  28  29
HETATM   29  C22 UNK     1       3.923   0.940   0.285  1.00  0.00     0.194 C 
BRANCH  29  30
HETATM   30  O6  UNK     1       3.414   2.231  -0.026  1.00  0.00    -0.389 OA
BRANCH  30  31
HETATM   31  C23 UNK     1       3.960   2.727  -1.240  1.00  0.00     0.163 C 
HETATM   32  C24 UNK     1       3.382   4.099  -1.517  1.00  0.00     0.033 C 
ENDBRANCH  30  31
ENDBRANCH  29  30
ENDBRANCH  28  29
ENDBRANCH  27  28
ENDBRANCH  25  27
ENDBRANCH   8  25
TORSDOF 7
