REMARK  2 active torsions:
REMARK  status: ('A' for Active; 'I' for Inactive)
REMARK    1  A    between atoms: C5_11  and  N1_5 
REMARK       I    between atoms: C6_12  and  N2_6 
REMARK    2  A    between atoms: C6_12  and  C7_13 
ROOT
HETATM    1  O1  UNK     1      -1.466   1.816  -2.689  1.00  0.00    -0.267 OA
HETATM    2  N1  UNK     1      -2.765  -1.178   1.169  1.00  0.00    -0.378 N 
HETATM    3  N2  UNK     1      -1.441   0.231  -0.985  1.00  0.00    -0.345 N 
HETATM    4  C1  UNK     1      -3.323   0.056   0.609  1.00  0.00     0.143 C 
HETATM    5  C2  UNK     1      -1.587  -1.760   0.522  1.00  0.00     0.143 C 
HETATM    6  C3  UNK     1      -2.895   0.230  -0.847  1.00  0.00     0.146 C 
HETATM    7  C4  UNK     1      -0.707  -0.669  -0.089  1.00  0.00     0.146 C 
HETATM    8  C6  UNK     1      -0.850   1.062  -1.935  1.00  0.00     0.260 C 
ENDROOT
BRANCH   8   9
HETATM    9  C7  UNK     1       0.624   1.036  -2.030  1.00  0.00     0.108 A 
HETATM   10  C10 UNK     1       1.282   1.907  -1.255  1.00  0.00     0.037 A 
HETATM   11  C11 UNK     1       2.736   1.957  -1.280  1.00  0.00     0.000 A 
HETATM   12  C15 UNK     1       3.425   1.089  -2.119  1.00  0.00     0.089 A 
HETATM   13  C17 UNK     1       3.463   2.850  -0.488  1.00  0.00     0.033 A 
HETATM   14  O2  UNK     1       2.727   0.174  -2.932  1.00  0.00    -0.274 OA
HETATM   15  C18 UNK     1       4.817   1.086  -2.190  1.00  0.00     0.039 A 
HETATM   16  C12 UNK     1       1.337   0.102  -2.931  1.00  0.00     0.304 A 
HETATM   17  O3  UNK     1       0.738  -0.696  -3.642  1.00  0.00    -0.259 OA
HETATM   18  C20 UNK     1       5.535   1.979  -1.397  1.00  0.00     0.022 A 
HETATM   19  C19 UNK     1       4.860   2.859  -0.548  1.00  0.00     0.011 A 
HETATM   20 Br1  UNK     1       5.840   4.070   0.525  1.00  0.00    -0.051 Br
ENDBRANCH   8   9
BRANCH   2  21
HETATM   21  C5  UNK     1      -3.382  -1.808   2.247  1.00  0.00     0.030 A 
HETATM   22  C8  UNK     1      -4.109  -1.072   3.213  1.00  0.00     0.029 A 
HETATM   23  C13 UNK     1      -4.726  -1.703   4.293  1.00  0.00     0.002 A 
HETATM   24  C16 UNK     1      -4.635  -3.087   4.438  1.00  0.00     0.000 A 
HETATM   25  C14 UNK     1      -3.926  -3.841   3.502  1.00  0.00     0.002 A 
HETATM   26  C9  UNK     1      -3.309  -3.210   2.422  1.00  0.00     0.029 A 
ENDBRANCH   2  21
TORSDOF 2
