REMARK  6 active torsions:
REMARK  status: ('A' for Active; 'I' for Inactive)
REMARK    1  A    between atoms: C23_30  and  O4_4 
REMARK    2  A    between atoms: C5_12  and  N1_5 
REMARK    3  A    between atoms: C6_13  and  N2_6 
REMARK    4  A    between atoms: C17_24  and  N3_7 
REMARK       I    between atoms: C9_16  and  N3_7 
REMARK    5  A    between atoms: C5_12  and  C7_14 
REMARK    6  A    between atoms: C6_13  and  C9_16 
ROOT
HETATM    1  N1  UNK     1       2.167   0.093  -0.396  1.00  0.00     0.096 N 
HETATM    2  N2  UNK     1       0.170  -0.733   1.523  1.00  0.00     0.100 N 
HETATM    3  C1  UNK     1       0.869  -0.438  -0.829  1.00  0.00     0.303 C 
HETATM    4  C2  UNK     1       2.547  -0.475   0.903  1.00  0.00     0.303 C 
HETATM    5  C3  UNK     1      -0.211  -0.164   0.224  1.00  0.00     0.303 C 
HETATM    6  C4  UNK     1       1.467  -0.200   1.955  1.00  0.00     0.303 C 
ENDROOT
BRANCH   1   7
HETATM    7  C5  UNK     1       3.197  -0.172  -1.400  1.00  0.00     0.312 C 
BRANCH   7   8
HETATM    8  C7  UNK     1       3.147   0.800  -2.527  1.00  0.00    -0.011 A 
HETATM    9  C10 UNK     1       2.398   0.564  -3.613  1.00  0.00     0.092 A 
HETATM   10  C13 UNK     1       2.317   1.495  -4.751  1.00  0.00     0.288 A 
HETATM   11  O1  UNK     1       3.064   2.659  -4.658  1.00  0.00    -0.275 OA
HETATM   12  O3  UNK     1       1.621   1.246  -5.729  1.00  0.00    -0.260 OA
HETATM   13  C11 UNK     1       3.860   2.935  -3.528  1.00  0.00     0.090 A 
HETATM   14  C8  UNK     1       3.927   2.043  -2.457  1.00  0.00     0.006 A 
HETATM   15  C14 UNK     1       4.570   4.137  -3.543  1.00  0.00     0.045 A 
HETATM   16  C12 UNK     1       4.743   2.390  -1.372  1.00  0.00     0.015 A 
HETATM   17  C16 UNK     1       5.460   3.592  -1.372  1.00  0.00     0.007 A 
HETATM   18  C15 UNK     1       5.374   4.464  -2.456  1.00  0.00    -0.059 A 
HETATM   19  C18 UNK     1       6.141   5.743  -2.449  1.00  0.00     0.048 C 
ENDBRANCH   7   8
ENDBRANCH   1   7
BRANCH   2  20
HETATM   20  C6  UNK     1      -0.860  -0.469   2.527  1.00  0.00     0.375 C 
BRANCH  20  21
HETATM   21  C9  UNK     1      -1.993  -1.467   2.362  1.00  0.00     0.250 C 
HETATM   22  O2  UNK     1      -1.816  -2.604   1.936  1.00  0.00    -0.271 OA
HETATM   23  N3  UNK     1      -3.199  -0.897   2.763  1.00  0.00    -0.326 N 
HETATM   24  H15 UNK     1      -3.179   0.062   3.105  1.00  0.00     0.169 HD
BRANCH  23  25
HETATM   25  C17 UNK     1      -4.481  -1.497   2.763  1.00  0.00     0.034 A 
HETATM   26  C19 UNK     1      -5.590  -0.774   3.202  1.00  0.00     0.032 A 
HETATM   27  C21 UNK     1      -6.853  -1.366   3.201  1.00  0.00     0.039 A 
HETATM   28  C23 UNK     1      -7.007  -2.681   2.761  1.00  0.00     0.068 A 
HETATM   29  C22 UNK     1      -5.898  -3.403   2.321  1.00  0.00     0.039 A 
HETATM   30  C20 UNK     1      -4.635  -2.812   2.323  1.00  0.00     0.032 A 
BRANCH  28  31
HETATM   31  O4  UNK     1      -8.240  -3.257   2.757  1.00  0.00    -0.356 OA
HETATM   32  C24 UNK     1      -8.326  -4.604   2.294  1.00  0.00     0.210 C 
ENDBRANCH  28  31
ENDBRANCH  23  25
ENDBRANCH  20  21
ENDBRANCH   2  20
TORSDOF 6
