REMARK  4 active torsions:
REMARK  status: ('A' for Active; 'I' for Inactive)
REMARK    1  A    between atoms: C5_9  and  O2_2 
REMARK    2  A    between atoms: C13_17  and  O3_3 
REMARK    3  A    between atoms: C17_21  and  O3_3 
REMARK    4  A    between atoms: C3_7  and  C4_8 
ROOT
HETATM    1  O1  UNK     1      -1.170  -0.539  -0.214  1.00  0.00    -0.306 OA
HETATM    2  O4  UNK     1      -1.573   1.030   3.526  1.00  0.00    -0.284 OA
HETATM    3  C1  UNK     1      -2.320  -0.532   1.924  1.00  0.00     0.051 A 
HETATM    4  C2  UNK     1      -2.132  -1.023   0.634  1.00  0.00     0.091 A 
HETATM    5  C3  UNK     1      -0.342   0.477   0.237  1.00  0.00     0.123 A 
HETATM    6  C5  UNK     1      -0.424   1.044   1.455  1.00  0.00     0.152 A 
HETATM    7  C6  UNK     1      -1.452   0.554   2.404  1.00  0.00     0.220 A 
HETATM    8  C7  UNK     1      -2.944  -2.051   0.154  1.00  0.00     0.045 A 
HETATM    9  C8  UNK     1      -3.942  -2.586   0.969  1.00  0.00    -0.059 A 
HETATM   10  C9  UNK     1      -3.318  -1.065   2.744  1.00  0.00     0.019 A 
HETATM   11  C10 UNK     1      -4.128  -2.093   2.262  1.00  0.00     0.008 A 
HETATM   12  C16 UNK     1      -4.812  -3.685   0.459  1.00  0.00     0.048 C 
ENDROOT
BRANCH   5  13
HETATM   13  C4  UNK     1       0.645   0.904  -0.771  1.00  0.00     0.001 A 
HETATM   14  C11 UNK     1       2.009   0.820  -0.491  1.00  0.00     0.017 A 
HETATM   15  C14 UNK     1       2.942   1.224  -1.446  1.00  0.00     0.037 A 
HETATM   16  C13 UNK     1       2.512   1.712  -2.680  1.00  0.00     0.068 A 
HETATM   17  C15 UNK     1       1.148   1.796  -2.959  1.00  0.00     0.037 A 
HETATM   18  C12 UNK     1       0.214   1.392  -2.005  1.00  0.00     0.017 A 
BRANCH  16  19
HETATM   19  O3  UNK     1       3.422   2.105  -3.611  1.00  0.00    -0.352 OA
BRANCH  19  20
HETATM   20  C17 UNK     1       4.663   2.621  -3.130  1.00  0.00     0.171 C 
HETATM   21  C18 UNK     1       5.202   3.622  -4.130  1.00  0.00     0.034 C 
ENDBRANCH  19  20
ENDBRANCH  16  19
ENDBRANCH   5  13
BRANCH   6  22
HETATM   22  O2  UNK     1       0.394   2.076   1.861  1.00  0.00    -0.355 OA
HETATM   23  H11 UNK     1       0.137   2.313   2.769  1.00  0.00     0.218 HD
ENDBRANCH   6  22
TORSDOF 4
