REMARK  4 active torsions:
REMARK  status: ('A' for Active; 'I' for Inactive)
REMARK    1  A    between atoms: C10_17  and  O1_1 
REMARK    2  A    between atoms: C3_10  and  O1_1 
REMARK    3  A    between atoms: C14_21  and  N1_7 
REMARK    4  A    between atoms: C10_17  and  C7_14 
ROOT
HETATM    1  O1  UNK     1      -0.401   0.513   0.399  1.00  0.00    -0.274 OA
ENDROOT
BRANCH   1   2
HETATM    2  C10 UNK     1       0.684  -0.241   0.058  1.00  0.00     0.298 C 
HETATM    3  O3  UNK     1       0.901  -1.406   0.356  1.00  0.00    -0.259 OA
BRANCH   2   4
HETATM    4  C7  UNK     1       1.635   0.574  -0.742  1.00  0.00     0.040 A 
HETATM    5  C12 UNK     1       2.983   0.302  -0.651  1.00  0.00     0.020 A 
HETATM    6  C15 UNK     1       3.876   1.066  -1.403  1.00  0.00     0.037 A 
HETATM    7  C14 UNK     1       3.399   2.085  -2.227  1.00  0.00     0.102 A 
HETATM    8  C16 UNK     1       2.030   2.340  -2.301  1.00  0.00     0.037 A 
HETATM    9  C13 UNK     1       1.137   1.575  -1.549  1.00  0.00     0.020 A 
BRANCH   7  10
HETATM   10  N1  UNK     1       4.308   2.863  -2.992  1.00  0.00    -0.116 N 
HETATM   11  O5  UNK     1       5.536   2.618  -2.912  1.00  0.00    -0.532 OA
HETATM   12  O6  UNK     1       3.858   3.775  -3.728  1.00  0.00    -0.532 OA
ENDBRANCH   7  10
ENDBRANCH   2   4
ENDBRANCH   1   2
BRANCH   1  13
HETATM   13  C3  UNK     1      -1.348  -0.158   1.147  1.00  0.00     0.098 A 
HETATM   14  C1  UNK     1      -2.438  -0.878   0.481  1.00  0.00     0.032 A 
HETATM   15  C2  UNK     1      -3.387  -1.510   1.289  1.00  0.00     0.092 A 
HETATM   16  C4  UNK     1      -2.596  -0.991  -0.907  1.00  0.00     0.017 A 
HETATM   17  O2  UNK     1      -3.292  -1.467   2.697  1.00  0.00    -0.275 OA
HETATM   18  C5  UNK     1      -4.467  -2.221   0.762  1.00  0.00     0.038 A 
HETATM   19  C11 UNK     1      -2.251  -0.815   3.341  1.00  0.00     0.290 A 
HETATM   20  O4  UNK     1      -2.153  -0.791   4.563  1.00  0.00    -0.260 OA
HETATM   21  C6  UNK     1      -1.266  -0.140   2.481  1.00  0.00     0.120 A 
HETATM   22  C9  UNK     1      -4.608  -2.313  -0.618  1.00  0.00     0.003 A 
HETATM   23  C8  UNK     1      -3.673  -1.702  -1.451  1.00  0.00     0.001 A 
ENDBRANCH   1  13
TORSDOF 4
