REMARK  6 active torsions:
REMARK  status: ('A' for Active; 'I' for Inactive)
REMARK    1  A    between atoms: C2_8  and  O1_4 
REMARK    2  A    between atoms: C4_10  and  O1_4 
REMARK    3  A    between atoms: C3_9  and  O2_5 
REMARK    4  A    between atoms: C1_7  and  C9_15 
REMARK    5  A    between atoms: C4_10  and  C8_14 
REMARK    6  A    between atoms: C10_16  and  C11_17 
ROOT
HETATM    1  N1  UNK     1      -0.003   2.977  -2.296  1.00  0.00    -0.191 NA
HETATM    2  C9  UNK     1       2.383   0.723  -1.086  1.00  0.00     0.036 C 
HETATM    3  C10 UNK     1       2.265   1.843  -1.812  1.00  0.00     0.055 C 
HETATM    4  C23 UNK     1       1.019   2.471  -2.081  1.00  0.00     0.100 C 
ENDROOT
BRANCH   3   5
HETATM    5  C11 UNK     1       3.477   2.416  -2.378  1.00  0.00    -0.015 A 
HETATM    6  C14 UNK     1       4.191   3.379  -1.665  1.00  0.00     0.014 A 
HETATM    7  C19 UNK     1       5.352   3.929  -2.209  1.00  0.00     0.020 A 
HETATM    8  C21 UNK     1       5.798   3.517  -3.465  1.00  0.00     0.011 A 
HETATM    9 Br2  UNK     1       7.370   4.264  -4.202  1.00  0.00    -0.051 Br
HETATM   10  C20 UNK     1       5.083   2.554  -4.177  1.00  0.00     0.020 A 
HETATM   11  C15 UNK     1       3.922   2.004  -3.633  1.00  0.00     0.014 A 
ENDBRANCH   3   5
BRANCH   2  12
HETATM   12  C1  UNK     1       1.269   0.007  -0.447  1.00  0.00    -0.015 A 
HETATM   13  C5  UNK     1       0.959   0.355   0.862  1.00  0.00     0.052 A 
HETATM   14  C3  UNK     1      -0.088  -0.292   1.516  1.00  0.00     0.102 A 
HETATM   15  C2  UNK     1      -0.817  -1.282   0.858  1.00  0.00     0.103 A 
HETATM   16  C7  UNK     1      -0.498  -1.625  -0.456  1.00  0.00     0.059 A 
HETATM   17  C6  UNK     1       0.550  -0.978  -1.111  1.00  0.00     0.024 A 
HETATM   18 Br1  UNK     1       0.932  -1.493  -2.900  1.00  0.00    -0.050 Br
BRANCH  14  19
HETATM   19  O2  UNK     1      -0.391   0.052   2.800  1.00  0.00    -0.353 OA
HETATM   20  C22 UNK     1       0.276  -0.666   3.837  1.00  0.00     0.210 C 
ENDBRANCH  14  19
BRANCH  15  21
HETATM   21  O1  UNK     1      -1.843  -1.921   1.487  1.00  0.00    -0.344 OA
BRANCH  21  22
HETATM   22  C4  UNK     1      -2.915  -2.387   0.669  1.00  0.00     0.214 C 
BRANCH  22  23
HETATM   23  C8  UNK     1      -4.190  -2.339   1.460  1.00  0.00    -0.034 A 
HETATM   24  C12 UNK     1      -4.579  -3.445   2.206  1.00  0.00     0.011 A 
HETATM   25  C16 UNK     1      -5.764  -3.401   2.940  1.00  0.00     0.024 A 
HETATM   26  C18 UNK     1      -6.553  -2.251   2.922  1.00  0.00     0.034 A 
HETATM   27  C17 UNK     1      -6.156  -1.144   2.171  1.00  0.00     0.024 A 
HETATM   28 Cl1  UNK     1      -8.016  -2.196   3.827  1.00  0.00    -0.084 Cl
HETATM   29  C13 UNK     1      -4.971  -1.189   1.437  1.00  0.00     0.011 A 
ENDBRANCH  22  23
ENDBRANCH  21  22
ENDBRANCH  15  21
ENDBRANCH   2  12
TORSDOF 6
