REMARK  2 active torsions:
REMARK  status: ('A' for Active; 'I' for Inactive)
REMARK    1  A    between atoms: C2_8  and  N1_5 
REMARK       I    between atoms: C8_14  and  N1_5 
REMARK    2  A    between atoms: C8_14  and  C9_15 
ROOT
HETATM    1  O1  UNK     1      -3.384  -1.425   2.635  1.00  0.00    -0.275 OA
HETATM    2  O3  UNK     1      -5.267  -2.681   2.988  1.00  0.00    -0.260 OA
HETATM    3  C1  UNK     1      -2.443  -1.308   0.393  1.00  0.00     0.000 A 
HETATM    4  C2  UNK     1      -0.454   0.022   0.033  1.00  0.00     0.035 A 
HETATM    5  C3  UNK     1      -2.406  -0.949   1.738  1.00  0.00     0.089 A 
HETATM    6  C4  UNK     1      -1.457  -0.816  -0.464  1.00  0.00     0.043 A 
HETATM    7  C5  UNK     1      -0.432   0.371   1.385  1.00  0.00     0.032 A 
HETATM    8  C6  UNK     1      -1.413  -0.115   2.247  1.00  0.00     0.040 A 
HETATM    9  C7  UNK     1      -3.508  -2.182  -0.070  1.00  0.00     0.020 A 
HETATM   10  C10 UNK     1      -4.430  -2.629   0.786  1.00  0.00     0.083 A 
HETATM   11  C11 UNK     1      -4.412  -2.263   2.215  1.00  0.00     0.288 A 
ENDROOT
BRANCH   4  12
HETATM   12  N1  UNK     1       0.531   0.512  -0.827  1.00  0.00    -0.323 N 
HETATM   13  C8  UNK     1       1.605   1.355  -0.515  1.00  0.00     0.259 C 
HETATM   14  O2  UNK     1       1.879   1.822   0.586  1.00  0.00    -0.267 OA
HETATM   15  H4  UNK     1       0.448   0.211  -1.796  1.00  0.00     0.169 HD
BRANCH  13  16
HETATM   16  C9  UNK     1       2.475   1.729  -1.661  1.00  0.00     0.072 A 
HETATM   17  C12 UNK     1       1.899   2.378  -2.729  1.00  0.00     0.022 A 
HETATM   18  C14 UNK     1       2.703   2.732  -3.806  1.00  0.00     0.020 A 
HETATM   19  C15 UNK     1       4.049   2.408  -3.744  1.00  0.00     0.118 A 
HETATM   20  N2  UNK     1       4.627   1.771  -2.701  1.00  0.00    -0.248 NA
HETATM   21  C13 UNK     1       3.813   1.443  -1.672  1.00  0.00     0.141 A 
HETATM   22 Cl1  UNK     1       4.622   0.635  -0.386  1.00  0.00    -0.061 Cl
ENDBRANCH  13  16
ENDBRANCH   4  12
TORSDOF 2
