REMARK  4 active torsions:
REMARK  status: ('A' for Active; 'I' for Inactive)
REMARK    1  A    between atoms: C13_25  and  C14_26 
REMARK    2  A    between atoms: C14_26  and  C15_27 
REMARK    3  A    between atoms: C15_27  and  C18_30 
REMARK    4  A    between atoms: C18_30  and  C19_31 
ROOT
HETATM    1  O1  UNK     1      -2.763  -0.967  -1.741  1.00  0.00    -0.274 OA
HETATM    2  O2  UNK     1      -2.790  -0.672  -4.009  1.00  0.00    -0.260 OA
HETATM    3  N1  UNK     1      -2.717  -1.701   3.059  1.00  0.00    -0.380 N 
HETATM    4  C1  UNK     1      -2.157  -1.128   1.914  1.00  0.00     0.045 A 
HETATM    5  C2  UNK     1      -2.755  -1.298   0.646  1.00  0.00     0.004 A 
HETATM    6  C3  UNK     1      -0.994  -0.328   1.999  1.00  0.00    -0.030 A 
HETATM    7  C4  UNK     1      -3.776  -2.694   2.913  1.00  0.00     0.123 C 
HETATM    8  C5  UNK     1      -1.964  -1.680   4.310  1.00  0.00     0.123 C 
HETATM    9  C6  UNK     1      -4.009  -2.128   0.498  1.00  0.00     0.045 C 
HETATM   10  C7  UNK     1      -4.748  -2.272   1.823  1.00  0.00     0.025 C 
HETATM   11  C8  UNK     1      -0.312  -0.096   3.326  1.00  0.00     0.042 C 
HETATM   12  C9  UNK     1      -1.266  -0.339   4.489  1.00  0.00     0.024 C 
HETATM   13  C10 UNK     1      -2.146  -0.730  -0.490  1.00  0.00     0.099 A 
HETATM   14  C11 UNK     1      -0.983   0.035  -0.419  1.00  0.00     0.012 A 
HETATM   15  C12 UNK     1      -0.417   0.230   0.843  1.00  0.00     0.024 A 
HETATM   16  C13 UNK     1      -0.417   0.591  -1.657  1.00  0.00     0.038 A 
HETATM   17  C16 UNK     1      -1.029   0.345  -2.823  1.00  0.00     0.097 A 
HETATM   18  C17 UNK     1      -2.254  -0.462  -2.927  1.00  0.00     0.288 A 
ENDROOT
BRANCH  16  19
HETATM   19  C14 UNK     1       0.832   1.423  -1.602  1.00  0.00     0.343 C 
HETATM   20  F1  UNK     1       0.859   2.136  -0.449  1.00  0.00    -0.194 F 
HETATM   21  F2  UNK     1       0.795   2.340  -2.605  1.00  0.00    -0.194 F 
BRANCH  19  22
HETATM   22  C15 UNK     1       2.109   0.618  -1.742  1.00  0.00     0.385 C 
HETATM   23  F3  UNK     1       2.129  -0.332  -0.762  1.00  0.00    -0.192 F 
HETATM   24  F4  UNK     1       2.032  -0.066  -2.919  1.00  0.00    -0.192 F 
BRANCH  22  25
HETATM   25  C18 UNK     1       3.442   1.351  -1.701  1.00  0.00     0.409 C 
HETATM   26  F5  UNK     1       3.458   2.232  -2.743  1.00  0.00    -0.189 F 
HETATM   27  F6  UNK     1       4.455   0.478  -1.934  1.00  0.00    -0.189 F 
BRANCH  25  28
HETATM   28  C19 UNK     1       3.747   2.125  -0.443  1.00  0.00     0.461 C 
HETATM   29  F7  UNK     1       3.771   1.329   0.646  1.00  0.00    -0.165 F 
HETATM   30  F8  UNK     1       4.961   2.713  -0.536  1.00  0.00    -0.165 F 
HETATM   31  F9  UNK     1       2.837   3.097  -0.230  1.00  0.00    -0.165 F 
ENDBRANCH  25  28
ENDBRANCH  22  25
ENDBRANCH  19  22
ENDBRANCH  16  19
TORSDOF 4
