REMARK  4 active torsions:
REMARK  status: ('A' for Active; 'I' for Inactive)
REMARK    1  A    between atoms: C3_12  and  N1_9 
REMARK    2  A    between atoms: C3_12  and  C6_15 
REMARK    3  A    between atoms: C13_22  and  C15_24 
REMARK    4  A    between atoms: C14_23  and  C16_25 
ROOT
HETATM    1  O2  UNK     1      -0.052  -1.868   1.052  1.00  0.00    -0.303 OA
HETATM    2  O3  UNK     1       0.554  -5.567  -1.769  1.00  0.00    -0.288 OA
HETATM    3  O4  UNK     1       0.130   0.678  -2.115  1.00  0.00    -0.286 OA
HETATM    4  C6  UNK     1       0.252  -3.740  -0.351  1.00  0.00     0.052 A 
HETATM    5  C7  UNK     1       0.133  -2.356  -0.213  1.00  0.00     0.102 A 
HETATM    6  C8  UNK     1       0.442  -4.298  -1.615  1.00  0.00     0.182 A 
HETATM    7  C9  UNK     1       0.203  -1.537  -1.334  1.00  0.00     0.050 A 
HETATM    8  C10 UNK     1       0.512  -3.475  -2.739  1.00  0.00     0.056 A 
HETATM    9  C11 UNK     1       0.393  -2.092  -2.603  1.00  0.00     0.022 A 
HETATM   10  C12 UNK     1       0.075  -0.084  -1.159  1.00  0.00     0.198 A 
HETATM   11  C13 UNK     1      -0.121   0.407   0.235  1.00  0.00     0.064 A 
HETATM   12  C14 UNK     1      -0.173  -0.497   1.237  1.00  0.00     0.174 A 
ENDROOT
BRANCH   4  13
HETATM   13  C3  UNK     1       0.172  -4.599   0.878  1.00  0.00     0.280 C 
BRANCH  13  14
HETATM   14  N1  UNK     1       0.984  -4.066   2.022  1.00  0.00    -0.063 N 
HETATM   15  C1  UNK     1       2.441  -3.899   1.656  1.00  0.00     0.261 C 
HETATM   16  C4  UNK     1       3.169  -3.308   2.851  1.00  0.00     0.195 C 
HETATM   17  O1  UNK     1       3.021  -4.150   3.995  1.00  0.00    -0.388 OA
HETATM   18  C5  UNK     1       1.649  -4.267   4.378  1.00  0.00     0.195 C 
HETATM   19  C2  UNK     1       0.838  -4.910   3.266  1.00  0.00     0.261 C 
HETATM   20  H1  UNK     1       0.616  -3.137   2.263  1.00  0.00     0.280 HD
ENDBRANCH  13  14
ENDBRANCH   4  13
BRANCH  12  21
HETATM   21  C16 UNK     1      -0.369  -0.156   2.688  1.00  0.00     0.440 C 
HETATM   22  F1  UNK     1      -0.487   1.175   2.853  1.00  0.00    -0.164 F 
HETATM   23  F2  UNK     1      -1.484  -0.737   3.169  1.00  0.00    -0.164 F 
HETATM   24  F3  UNK     1       0.675  -0.579   3.426  1.00  0.00    -0.164 F 
ENDBRANCH  12  21
BRANCH  11  25
HETATM   25  C15 UNK     1      -0.254   1.839   0.474  1.00  0.00    -0.019 A 
HETATM   26  C17 UNK     1      -1.513   2.434   0.450  1.00  0.00     0.014 A 
HETATM   27  C19 UNK     1      -1.640   3.804   0.678  1.00  0.00     0.024 A 
HETATM   28  C21 UNK     1      -0.506   4.577   0.930  1.00  0.00     0.034 A 
HETATM   29  C20 UNK     1       0.754   3.979   0.954  1.00  0.00     0.024 A 
HETATM   30 Cl1  UNK     1      -0.663   6.267   1.212  1.00  0.00    -0.084 Cl
HETATM   31  C18 UNK     1       0.880   2.609   0.726  1.00  0.00     0.014 A 
ENDBRANCH  11  25
TORSDOF 4
