REMARK  5 active torsions:
REMARK  status: ('A' for Active; 'I' for Inactive)
REMARK    1  A    between atoms: C1_4  and  O1_1 
REMARK    2  A    between atoms: C2_5  and  O1_1 
REMARK    3  A    between atoms: C4_7  and  O2_2 
REMARK    4  A    between atoms: C3_6  and  C8_11 
REMARK    5  A    between atoms: C11_14  and  C12_15 
ROOT
HETATM    1  N1  UNK     1       0.605  -1.909  -2.354  1.00  0.00    -0.191 NA
HETATM    2  C8  UNK     1      -0.217   0.988  -0.674  1.00  0.00     0.038 C 
HETATM    3  C11 UNK     1       0.836   0.489  -1.377  1.00  0.00     0.055 C 
HETATM    4  C19 UNK     1       0.699  -0.839  -1.914  1.00  0.00     0.100 C 
ENDROOT
BRANCH   3   5
HETATM    5  C12 UNK     1       2.070   1.221  -1.615  1.00  0.00    -0.015 A 
HETATM    6  C13 UNK     1       2.194   2.031  -2.744  1.00  0.00     0.013 A 
HETATM    7  C15 UNK     1       3.378   2.732  -2.972  1.00  0.00     0.001 A 
HETATM    8  C17 UNK     1       4.437   2.625  -2.071  1.00  0.00     0.000 A 
HETATM    9  C16 UNK     1       4.313   1.815  -0.942  1.00  0.00     0.001 A 
HETATM   10  C14 UNK     1       3.129   1.113  -0.714  1.00  0.00     0.013 A 
ENDBRANCH   3   5
BRANCH   2  11
HETATM   11  C3  UNK     1      -1.483   0.288  -0.416  1.00  0.00     0.002 A 
HETATM   12  C2  UNK     1      -1.633  -0.511   0.709  1.00  0.00     0.112 A 
HETATM   13  C4  UNK     1      -2.845  -1.165   0.931  1.00  0.00     0.102 A 
HETATM   14  C9  UNK     1      -3.896  -1.013   0.026  1.00  0.00     0.040 A 
HETATM   15  C10 UNK     1      -3.734  -0.208  -1.101  1.00  0.00     0.004 A 
HETATM   16  C7  UNK     1      -2.522   0.446  -1.323  1.00  0.00     0.014 A 
BRANCH  12  17
HETATM   17  O1  UNK     1      -0.614  -0.668   1.603  1.00  0.00    -0.343 OA
BRANCH  17  18
HETATM   18  C1  UNK     1      -0.553   0.260   2.682  1.00  0.00     0.121 C 
HETATM   19  C5  UNK     1      -0.696  -0.491   3.997  1.00  0.00     0.040 C 
HETATM   20  C6  UNK     1       0.758   1.029   2.608  1.00  0.00     0.040 C 
ENDBRANCH  17  18
ENDBRANCH  12  17
BRANCH  13  21
HETATM   21  O2  UNK     1      -3.017  -1.955   2.028  1.00  0.00    -0.353 OA
HETATM   22  C18 UNK     1      -2.678  -3.333   1.893  1.00  0.00     0.210 C 
ENDBRANCH  13  21
ENDBRANCH   2  11
TORSDOF 5
