REMARK  4 active torsions:
REMARK  status: ('A' for Active; 'I' for Inactive)
REMARK    1  A    between atoms: C20_25  and  N2_5 
REMARK    2  A    between atoms: C9_14  and  N2_5 
REMARK    3  A    between atoms: C15_20  and  C6_11 
REMARK    4  A    between atoms: C15_20  and  C19_24 
ROOT
HETATM    1  O1  UNK     1      -0.785   0.005   2.788  1.00  0.00    -0.286 OA
HETATM    2  O2  UNK     1       1.496   0.051  -4.308  1.00  0.00    -0.267 OA
HETATM    3  N1  UNK     1      -0.142  -1.019  -3.073  1.00  0.00    -0.317 N 
HETATM    4  C1  UNK     1      -0.086  -0.748  -0.660  1.00  0.00     0.020 A 
HETATM    5  C2  UNK     1       1.269  -0.145  -0.732  1.00  0.00     0.008 C 
HETATM    6  C3  UNK     1      -0.745  -0.806   0.581  1.00  0.00     0.055 A 
HETATM    7  C4  UNK     1      -0.743  -1.224  -1.801  1.00  0.00     0.049 A 
HETATM    8  C5  UNK     1       2.034   0.057   0.543  1.00  0.00    -0.010 A 
HETATM    9  C6  UNK     1       1.695   0.226  -1.962  1.00  0.00     0.095 C 
HETATM   10  C7  UNK     1       1.329   0.087   1.758  1.00  0.00     0.026 A 
HETATM   11  C8  UNK     1      -0.120  -0.209   1.782  1.00  0.00     0.196 C 
HETATM   12  C9  UNK     1      -2.007  -1.395   0.702  1.00  0.00     0.048 A 
HETATM   13  C10 UNK     1       1.008  -0.249  -3.216  1.00  0.00     0.263 C 
HETATM   14  C11 UNK     1      -2.001  -1.839  -1.666  1.00  0.00     0.033 A 
HETATM   15  C12 UNK     1      -2.623  -1.928  -0.422  1.00  0.00     0.033 A 
HETATM   16  C13 UNK     1       3.437   0.091   0.620  1.00  0.00     0.013 A 
HETATM   17  C14 UNK     1       1.985   0.294   2.981  1.00  0.00     0.016 A 
HETATM   18  C16 UNK     1      -0.796  -1.550  -4.267  1.00  0.00     0.159 C 
HETATM   19  C17 UNK     1       4.098   0.288   1.837  1.00  0.00     0.001 A 
HETATM   20  C18 UNK     1       3.371   0.412   3.014  1.00  0.00     0.001 A 
ENDROOT
BRANCH   9  21
HETATM   21  C15 UNK     1       2.852   1.129  -2.143  1.00  0.00     0.198 C 
HETATM   22  O3  UNK     1       3.978   0.665  -2.264  1.00  0.00    -0.286 OA
BRANCH  21  23
HETATM   23  C19 UNK     1       2.614   2.588  -2.195  1.00  0.00     0.015 A 
HETATM   24  C21 UNK     1       1.324   3.065  -2.053  1.00  0.00     0.015 A 
HETATM   25  C25 UNK     1       1.100   4.441  -2.103  1.00  0.00     0.001 A 
HETATM   26  C29 UNK     1       2.170   5.315  -2.295  1.00  0.00     0.000 A 
HETATM   27  C26 UNK     1       3.464   4.814  -2.436  1.00  0.00     0.001 A 
HETATM   28  C22 UNK     1       3.688   3.438  -2.386  1.00  0.00     0.015 A 
ENDBRANCH  21  23
ENDBRANCH   9  21
BRANCH  12  29
HETATM   29  N2  UNK     1      -2.692  -1.510   1.932  1.00  0.00    -0.355 N 
HETATM   30  H8  UNK     1      -2.078  -1.624   2.733  1.00  0.00     0.166 HD
BRANCH  29  31
HETATM   31  C20 UNK     1      -4.060  -1.560   2.258  1.00  0.00     0.032 A 
HETATM   32  C23 UNK     1      -4.486  -2.270   3.383  1.00  0.00     0.029 A 
HETATM   33  C27 UNK     1      -5.842  -2.319   3.707  1.00  0.00     0.002 A 
HETATM   34  C30 UNK     1      -6.775  -1.658   2.907  1.00  0.00     0.000 A 
HETATM   35  C28 UNK     1      -6.352  -0.949   1.783  1.00  0.00     0.002 A 
HETATM   36  C24 UNK     1      -4.996  -0.900   1.459  1.00  0.00     0.029 A 
ENDBRANCH  29  31
ENDBRANCH  12  29
TORSDOF 4
