REMARK  0 active torsions:
REMARK  status: ('A' for Active; 'I' for Inactive)
ROOT
HETATM    1  O1  UNK     1      -0.765  -0.011  -1.762  1.00  0.00    -0.274 OA
HETATM    2  O2  UNK     1      -2.735  -0.994  -1.191  1.00  0.00    -0.258 OA
HETATM    3  N1  UNK     1      -2.917  -1.480   2.305  1.00  0.00    -0.191 NA
HETATM    4  C1  UNK     1       0.862   0.552  -0.040  1.00  0.00     0.005 A 
HETATM    5  C2  UNK     1      -0.055   0.006   0.980  1.00  0.00    -0.022 A 
HETATM    6  C3  UNK     1       0.475   0.524  -1.377  1.00  0.00     0.090 A 
HETATM    7  C4  UNK     1      -1.242  -0.503   0.591  1.00  0.00     0.126 A 
HETATM    8  C5  UNK     1       2.118   1.106   0.253  1.00  0.00     0.015 A 
HETATM    9  C6  UNK     1       0.402   0.054   2.419  1.00  0.00     0.051 C 
HETATM   10  C7  UNK     1       1.282   1.021  -2.404  1.00  0.00     0.038 A 
HETATM   11  C8  UNK     1      -1.655  -0.531  -0.836  1.00  0.00     0.309 A 
HETATM   12  C9  UNK     1       2.940   1.608  -0.763  1.00  0.00     0.001 A 
HETATM   13  C10 UNK     1       2.523   1.565  -2.091  1.00  0.00     0.003 A 
HETATM   14  C11 UNK     1      -2.167  -1.042   1.537  1.00  0.00     0.106 C 
ENDROOT
TORSDOF 0
