REMARK  3 active torsions:
REMARK  status: ('A' for Active; 'I' for Inactive)
REMARK       I    between atoms: C6_12  and  N1_5 
REMARK    1  A    between atoms: C10_16  and  N2_6 
REMARK       I    between atoms: C15_21  and  N2_6 
REMARK    2  A    between atoms: C6_12  and  C7_13 
REMARK    3  A    between atoms: C13_19  and  C15_21 
ROOT
HETATM    1  O3  UNK     1      -1.476   1.203   1.306  1.00  0.00    -0.267 OA
HETATM    2  N2  UNK     1      -0.897  -0.266  -0.448  1.00  0.00    -0.323 N 
HETATM    3  C15 UNK     1      -1.602   0.157   0.681  1.00  0.00     0.262 C 
HETATM    4  H15 UNK     1      -1.119  -1.181  -0.831  1.00  0.00     0.169 HD
ENDROOT
BRANCH   2   5
HETATM    5  C10 UNK     1       0.117   0.410  -1.128  1.00  0.00     0.035 A 
HETATM    6  C12 UNK     1       0.713  -0.171  -2.247  1.00  0.00     0.030 A 
HETATM    7  C9  UNK     1       1.727   0.505  -2.927  1.00  0.00     0.019 A 
HETATM    8  C7  UNK     1       2.141   1.758  -2.485  1.00  0.00     0.032 A 
HETATM    9  C8  UNK     1       1.549   2.341  -1.367  1.00  0.00     0.019 A 
HETATM   10  C11 UNK     1       0.535   1.666  -0.688  1.00  0.00     0.030 A 
BRANCH   8  11
HETATM   11  C6  UNK     1       3.209   2.468  -3.200  1.00  0.00     0.253 C 
HETATM   12  O1  UNK     1       2.851   3.202  -4.120  1.00  0.00    -0.267 OA
HETATM   13  N1  UNK     1       4.529   2.252  -2.796  1.00  0.00    -0.348 N 
HETATM   14  C4  UNK     1       4.810   1.304  -1.718  1.00  0.00     0.126 C 
HETATM   15  C5  UNK     1       5.720   2.864  -3.400  1.00  0.00     0.126 C 
HETATM   16  C2  UNK     1       5.635   1.968  -0.619  1.00  0.00     0.020 C 
HETATM   17  C1  UNK     1       6.897   2.618  -1.186  1.00  0.00     0.003 C 
HETATM   18  C3  UNK     1       6.558   3.568  -2.336  1.00  0.00     0.020 C 
ENDBRANCH   8  11
ENDBRANCH   2   5
BRANCH   3  19
HETATM   19  C13 UNK     1      -2.610  -0.831   1.120  1.00  0.00     0.108 A 
HETATM   20  C16 UNK     1      -2.878  -0.860   2.431  1.00  0.00     0.037 A 
HETATM   21  C14 UNK     1      -3.856  -1.798   2.959  1.00  0.00    -0.001 A 
HETATM   22  C17 UNK     1      -4.504  -2.661   2.080  1.00  0.00     0.089 A 
HETATM   23  C19 UNK     1      -4.168  -1.863   4.319  1.00  0.00     0.014 A 
HETATM   24  O2  UNK     1      -4.217  -2.626   0.702  1.00  0.00    -0.274 OA
HETATM   25  C20 UNK     1      -5.451  -3.583   2.522  1.00  0.00     0.038 A 
HETATM   26  C18 UNK     1      -3.286  -1.739   0.167  1.00  0.00     0.304 A 
HETATM   27  O4  UNK     1      -3.043  -1.716  -1.035  1.00  0.00    -0.259 OA
HETATM   28  C22 UNK     1      -5.756  -3.641   3.880  1.00  0.00     0.003 A 
HETATM   29  C21 UNK     1      -5.116  -2.783   4.777  1.00  0.00     0.001 A 
ENDBRANCH   3  19
TORSDOF 3
