REMARK  5 active torsions:
REMARK  status: ('A' for Active; 'I' for Inactive)
REMARK    1  A    between atoms: C16_23  and  O5_5 
REMARK    2  A    between atoms: C20_27  and  O6_6 
REMARK    3  A    between atoms: C21_28  and  O7_7 
REMARK    4  A    between atoms: C3_10  and  C9_16 
REMARK    5  A    between atoms: C16_23  and  C9_16 
ROOT
HETATM    1  O1  UNK     1      -3.544  -1.758   3.267  1.00  0.00    -0.341 OA
HETATM    2  O2  UNK     1      -1.287  -0.370  -0.573  1.00  0.00    -0.310 OA
HETATM    3  O3  UNK     1       0.868   0.374  -3.408  1.00  0.00    -0.344 OA
HETATM    4  O4  UNK     1       2.039   0.654   1.535  1.00  0.00    -0.286 OA
HETATM    5  C1  UNK     1      -3.635  -1.555   0.849  1.00  0.00     0.081 C 
HETATM    6  C2  UNK     1      -2.371  -1.033   1.419  1.00  0.00     0.013 A 
HETATM    7  C3  UNK     1      -4.458  -1.682   2.141  1.00  0.00     0.163 C 
HETATM    8  C4  UNK     1      -1.262  -0.501   0.785  1.00  0.00     0.099 A 
HETATM    9  C5  UNK     1      -2.382  -1.204   2.794  1.00  0.00     0.079 A 
HETATM   10  C6  UNK     1      -0.164  -0.138   1.563  1.00  0.00     0.050 A 
HETATM   11  C7  UNK     1       0.913   0.648  -0.575  1.00  0.00     0.060 A 
HETATM   12  C8  UNK     1      -0.204   0.224  -1.193  1.00  0.00     0.093 A 
HETATM   13  C10 UNK     1       1.024   0.422   0.893  1.00  0.00     0.198 A 
HETATM   14  C11 UNK     1      -1.302  -0.863   3.585  1.00  0.00     0.038 A 
HETATM   15  C12 UNK     1      -0.179  -0.318   2.959  1.00  0.00     0.021 A 
HETATM   16  C13 UNK     1       1.937   1.286  -1.423  1.00  0.00     0.017 A 
HETATM   17  C14 UNK     1      -0.366   0.356  -2.679  1.00  0.00     0.241 C 
HETATM   18  C15 UNK     1       1.866   1.103  -2.814  1.00  0.00     0.083 A 
HETATM   19  C17 UNK     1       2.986   2.068  -0.919  1.00  0.00     0.055 A 
HETATM   20  C18 UNK     1       2.840   1.627  -3.668  1.00  0.00     0.077 A 
HETATM   21  C20 UNK     1       3.951   2.612  -1.773  1.00  0.00     0.102 A 
HETATM   22  C21 UNK     1       3.883   2.384  -3.145  1.00  0.00     0.104 A 
ENDROOT
BRANCH   7  23
HETATM   23  C9  UNK     1      -5.345  -2.882   2.150  1.00  0.00    -0.037 C 
HETATM   24  C19 UNK     1      -4.907  -4.076   2.578  1.00  0.00     0.019 C 
BRANCH  23  25
HETATM   25  C16 UNK     1      -6.758  -2.683   1.683  1.00  0.00     0.200 C 
BRANCH  25  26
HETATM   26  O5  UNK     1      -6.755  -2.245   0.331  1.00  0.00    -0.397 OA
HETATM   27  H14 UNK     1      -6.336  -2.940  -0.204  1.00  0.00     0.209 HD
ENDBRANCH  25  26
ENDBRANCH  23  25
ENDBRANCH   7  23
BRANCH  21  28
HETATM   28  O6  UNK     1       4.958   3.364  -1.247  1.00  0.00    -0.353 OA
HETATM   29  C22 UNK     1       6.145   2.677  -0.859  1.00  0.00     0.210 C 
ENDBRANCH  21  28
BRANCH  22  30
HETATM   30  O7  UNK     1       4.824   2.903  -3.981  1.00  0.00    -0.353 OA
HETATM   31  C23 UNK     1       4.680   2.622  -5.373  1.00  0.00     0.210 C 
ENDBRANCH  22  30
TORSDOF 5
