REMARK  7 active torsions:
REMARK  status: ('A' for Active; 'I' for Inactive)
REMARK    1  A    between atoms: C14_17  and  O1_1 
REMARK    2  A    between atoms: C1_4  and  N1_3 
REMARK    3  A    between atoms: C2_5  and  N1_3 
REMARK    4  A    between atoms: C3_6  and  N1_3 
REMARK    5  A    between atoms: C17_20  and  C6_9 
REMARK    6  A    between atoms: C13_16  and  C19_22 
REMARK    7  A    between atoms: C19_22  and  C21_24 
ROOT
HETATM    1  O2  UNK     1       2.322   1.097   1.406  1.00  0.00    -0.287 OA
HETATM    2  C19 UNK     1       1.728   0.837   0.350  1.00  0.00     0.184 C 
ENDROOT
BRANCH   2   3
HETATM    3  C13 UNK     1       2.350   1.107  -0.940  1.00  0.00     0.048 A 
HETATM    4  C14 UNK     1       3.237   2.172  -1.102  1.00  0.00     0.090 A 
HETATM    5  C7  UNK     1       3.831   2.425  -2.350  1.00  0.00     0.008 A 
HETATM    6  C10 UNK     1       3.522   1.586  -3.447  1.00  0.00    -0.023 A 
HETATM    7  C18 UNK     1       4.726   3.493  -2.532  1.00  0.00     0.015 A 
HETATM    8  C15 UNK     1       2.628   0.518  -3.264  1.00  0.00     0.013 A 
HETATM    9  C20 UNK     1       4.117   1.839  -4.693  1.00  0.00     0.012 A 
HETATM   10  C16 UNK     1       2.047   0.281  -2.018  1.00  0.00     0.019 A 
HETATM   11  C23 UNK     1       5.003   2.904  -4.857  1.00  0.00     0.001 A 
HETATM   12  C22 UNK     1       5.307   3.729  -3.778  1.00  0.00     0.001 A 
BRANCH   4  13
HETATM   13  O1  UNK     1       3.518   2.966  -0.025  1.00  0.00    -0.359 OA
HETATM   14  H23 UNK     1       3.688   3.876  -0.318  1.00  0.00     0.217 HD
ENDBRANCH   4  13
ENDBRANCH   2   3
BRANCH   2  15
HETATM   15  C21 UNK     1       0.365   0.209   0.371  1.00  0.00     0.056 C 
HETATM   16  C17 UNK     1      -0.234  -0.082   1.536  1.00  0.00     0.015 C 
BRANCH  16  17
HETATM   17  C6  UNK     1      -1.561  -0.710   1.659  1.00  0.00    -0.036 A 
HETATM   18  C11 UNK     1      -2.437  -0.661   0.587  1.00  0.00     0.013 A 
HETATM   19  C4  UNK     1      -3.693  -1.256   0.704  1.00  0.00     0.030 A 
HETATM   20  C1  UNK     1      -4.056  -1.893   1.891  1.00  0.00     0.030 A 
HETATM   21  C5  UNK     1      -3.162  -1.934   2.962  1.00  0.00     0.030 A 
HETATM   22  C12 UNK     1      -1.906  -1.339   2.845  1.00  0.00     0.013 A 
BRANCH  20  23
HETATM   23  N1  UNK     1      -5.326  -2.494   2.009  1.00  0.00    -0.382 N 
BRANCH  23  24
HETATM   24  C2  UNK     1      -6.261  -2.457   0.903  1.00  0.00     0.118 C 
HETATM   25  C8  UNK     1      -6.976  -1.120   0.869  1.00  0.00     0.026 C 
ENDBRANCH  23  24
BRANCH  23  26
HETATM   26  C3  UNK     1      -5.707  -3.170   3.234  1.00  0.00     0.118 C 
HETATM   27  C9  UNK     1      -5.120  -4.568   3.263  1.00  0.00     0.026 C 
ENDBRANCH  23  26
ENDBRANCH  20  23
ENDBRANCH  16  17
ENDBRANCH   2  15
TORSDOF 7
