REMARK  2 active torsions:
REMARK  status: ('A' for Active; 'I' for Inactive)
REMARK       I    between atoms: C11_17  and  N1_6 
REMARK    1  A    between atoms: C2_8  and  N1_6 
REMARK    2  A    between atoms: C11_17  and  C6_12 
ROOT
HETATM    1  O4  UNK     1      -0.743  -0.698  -1.590  1.00  0.00    -0.267 OA
HETATM    2  N1  UNK     1      -0.536  -0.070   0.670  1.00  0.00    -0.323 N 
HETATM    3  C11 UNK     1      -0.154  -0.146  -0.662  1.00  0.00     0.262 C 
HETATM    4  H5  UNK     1       0.058   0.447   1.315  1.00  0.00     0.169 HD
ENDROOT
BRANCH   3   5
HETATM    5  C6  UNK     1       1.119   0.541  -0.913  1.00  0.00     0.108 A 
HETATM    6  C13 UNK     1       2.171   0.648   0.122  1.00  0.00     0.304 A 
HETATM    7  O3  UNK     1       3.335   1.322  -0.237  1.00  0.00    -0.274 OA
HETATM    8  O5  UNK     1       2.031   0.167   1.241  1.00  0.00    -0.259 OA
HETATM    9  C8  UNK     1       3.506   1.878  -1.520  1.00  0.00     0.089 A 
HETATM   10  C15 UNK     1       4.706   2.535  -1.786  1.00  0.00     0.038 A 
HETATM   11  C5  UNK     1       2.504   1.766  -2.478  1.00  0.00    -0.001 A 
HETATM   12  C17 UNK     1       4.904   3.095  -3.046  1.00  0.00     0.003 A 
HETATM   13  C16 UNK     1       3.909   2.994  -4.020  1.00  0.00     0.001 A 
HETATM   14  C14 UNK     1       2.711   2.331  -3.739  1.00  0.00     0.014 A 
HETATM   15  C9  UNK     1       1.276   1.066  -2.134  1.00  0.00     0.037 A 
ENDBRANCH   3   5
BRANCH   2  16
HETATM   16  C2  UNK     1      -1.699  -0.613   1.268  1.00  0.00     0.037 A 
HETATM   17  C4  UNK     1      -2.597  -1.315   0.477  1.00  0.00     0.069 A 
HETATM   18  C1  UNK     1      -3.715  -1.826   1.104  1.00  0.00     0.107 A 
HETATM   19  O1  UNK     1      -4.709  -2.538   0.507  1.00  0.00    -0.323 OA
HETATM   20  C3  UNK     1      -3.933  -1.651   2.451  1.00  0.00     0.105 A 
HETATM   21  C12 UNK     1      -5.578  -2.792   1.630  1.00  0.00     0.352 A 
HETATM   22  O2  UNK     1      -5.092  -2.232   2.866  1.00  0.00    -0.323 OA
HETATM   23  C10 UNK     1      -3.046  -0.955   3.246  1.00  0.00     0.042 A 
HETATM   24  C7  UNK     1      -1.906  -0.426   2.636  1.00  0.00     0.032 A 
ENDBRANCH   2  16
TORSDOF 2
