REMARK  3 active torsions:
REMARK  status: ('A' for Active; 'I' for Inactive)
REMARK       I    between atoms: C15_23  and  N1_7 
REMARK    1  A    between atoms: N1_7  and  N2_8 
REMARK    2  A    between atoms: C13_21  and  C4_12 
REMARK    3  A    between atoms: C10_18  and  C15_23 
ROOT
HETATM    1 Cl1  UNK     1      -3.705  -1.971   4.782  1.00  0.00    -0.081 Cl
HETATM    2 Cl2  UNK     1      -6.263  -3.033   0.169  1.00  0.00    -0.084 Cl
HETATM    3  O1  UNK     1      -1.635  -0.817   3.047  1.00  0.00    -0.319 OA
HETATM    4  O2  UNK     1      -1.638  -0.596  -1.030  1.00  0.00    -0.286 OA
HETATM    5  C1  UNK     1      -2.754  -1.274   0.938  1.00  0.00     0.052 A 
HETATM    6  C2  UNK     1      -2.694  -1.320   2.332  1.00  0.00     0.111 A 
HETATM    7  C3  UNK     1      -1.638  -0.663   0.192  1.00  0.00     0.198 A 
HETATM    8  C4  UNK     1      -0.523  -0.139   1.010  1.00  0.00     0.056 A 
HETATM    9  C5  UNK     1      -3.857  -1.804   0.263  1.00  0.00     0.042 A 
HETATM   10  C6  UNK     1      -3.738  -1.894   3.058  1.00  0.00     0.070 A 
HETATM   11  C7  UNK     1      -0.601  -0.251   2.340  1.00  0.00     0.159 A 
HETATM   12  C8  UNK     1      -4.899  -2.378   0.992  1.00  0.00     0.036 A 
HETATM   13  C9  UNK     1      -4.841  -2.423   2.386  1.00  0.00     0.050 A 
ENDROOT
BRANCH   8  14
HETATM   14  C13 UNK     1       0.666   0.498   0.444  1.00  0.00     0.156 C 
HETATM   15  N2  UNK     1       0.832   0.651  -0.830  1.00  0.00    -0.183 NA
BRANCH  15  16
HETATM   16  N1  UNK     1       1.995   1.261  -1.165  1.00  0.00    -0.243 N 
HETATM   17  C15 UNK     1       2.269   1.473  -2.508  1.00  0.00     0.272 C 
HETATM   18  O3  UNK     1       1.506   1.133  -3.412  1.00  0.00    -0.266 OA
HETATM   19  H10 UNK     1       2.608   1.560  -0.414  1.00  0.00     0.192 HD
BRANCH  17  20
HETATM   20  C10 UNK     1       3.535   2.164  -2.793  1.00  0.00     0.041 A 
HETATM   21  C12 UNK     1       4.666   2.131  -1.957  1.00  0.00     0.031 A 
HETATM   22  C11 UNK     1       5.697   2.873  -2.489  1.00  0.00    -0.021 A 
HETATM   23  S1  UNK     1       5.268   3.587  -3.985  1.00  0.00    -0.106 SA
HETATM   24  C16 UNK     1       7.049   3.100  -1.936  1.00  0.00     0.056 C 
HETATM   25  C14 UNK     1       3.699   2.905  -3.923  1.00  0.00     0.067 A 
ENDBRANCH  17  20
ENDBRANCH  15  16
ENDBRANCH   8  14
TORSDOF 3
