REMARK  1 active torsions:
REMARK  status: ('A' for Active; 'I' for Inactive)
REMARK    1  A    between atoms: C7_10  and  N1_3 
ROOT
HETATM    1  O1  UNK     1      -1.421  -0.402  -1.004  1.00  0.00    -0.293 OA
HETATM    2  O2  UNK     1       0.616   0.148   2.477  1.00  0.00    -0.287 OA
HETATM    3  C1  UNK     1       0.573   0.399   0.128  1.00  0.00     0.048 A 
HETATM    4  C2  UNK     1      -0.179   0.180  -1.024  1.00  0.00     0.092 A 
HETATM    5  C3  UNK     1       0.015  -0.011   1.424  1.00  0.00     0.189 A 
HETATM    6  C4  UNK     1       1.833   0.996   0.048  1.00  0.00     0.018 A 
HETATM    7  C5  UNK     1       0.327   0.559  -2.268  1.00  0.00     0.038 A 
HETATM    8  C6  UNK     1      -1.323  -0.632   1.385  1.00  0.00     0.111 A 
HETATM    9  C7  UNK     1      -1.963  -0.795   0.215  1.00  0.00     0.145 A 
HETATM   10  C8  UNK     1       2.336   1.374  -1.197  1.00  0.00     0.001 A 
HETATM   11  C9  UNK     1       1.585   1.156  -2.353  1.00  0.00     0.003 A 
ENDROOT
BRANCH   9  12
HETATM   12  N1  UNK     1      -3.202  -1.364   0.131  1.00  0.00    -0.380 N 
HETATM   13  H6  UNK     1      -3.638  -1.463  -0.777  1.00  0.00     0.158 HD
HETATM   14  H7  UNK     1      -3.677  -1.682   0.966  1.00  0.00     0.158 HD
ENDBRANCH   9  12
TORSDOF 1
