REMARK  9 active torsions:
REMARK  status: ('A' for Active; 'I' for Inactive)
REMARK    1  A    between atoms: C2_11  and  O1_3 
REMARK    2  A    between atoms: C3_12  and  O1_3 
REMARK    3  A    between atoms: C12_21  and  O2_4 
REMARK    4  A    between atoms: C4_13  and  O2_4 
REMARK    5  A    between atoms: C20_29  and  O3_5 
REMARK    6  A    between atoms: C15_24  and  N1_8 
REMARK    7  A    between atoms: C1_10  and  C5_14 
REMARK    8  A    between atoms: C3_12  and  C4_13 
REMARK    9  A    between atoms: C6_15  and  C8_17 
ROOT
HETATM    1  N2  UNK     1      -0.256   2.858  -3.280  1.00  0.00    -0.191 NA
HETATM    2  C5  UNK     1       1.189   0.236  -1.568  1.00  0.00     0.038 C 
HETATM    3  C8  UNK     1      -0.060   0.674  -1.882  1.00  0.00     0.055 C 
HETATM    4  C23 UNK     1      -0.158   1.884  -2.656  1.00  0.00     0.100 C 
ENDROOT
BRANCH   3   5
HETATM    5  C6  UNK     1      -1.281  -0.010  -1.488  1.00  0.00    -0.015 A 
HETATM    6  C13 UNK     1      -2.224   0.647  -0.697  1.00  0.00     0.015 A 
HETATM    7  C16 UNK     1      -3.396  -0.009  -0.320  1.00  0.00     0.037 A 
HETATM    8  C15 UNK     1      -3.625  -1.322  -0.734  1.00  0.00     0.102 A 
HETATM    9  C17 UNK     1      -2.682  -1.978  -1.524  1.00  0.00     0.037 A 
HETATM   10  C14 UNK     1      -1.510  -1.322  -1.902  1.00  0.00     0.015 A 
BRANCH   8  11
HETATM   11  N1  UNK     1      -4.818  -1.990  -0.350  1.00  0.00    -0.116 N 
HETATM   12  O4  UNK     1      -5.654  -1.382   0.361  1.00  0.00    -0.532 OA
HETATM   13  O5  UNK     1      -5.004  -3.170  -0.734  1.00  0.00    -0.532 OA
ENDBRANCH   8  11
ENDBRANCH   3   5
BRANCH   2  14
HETATM   14  C1  UNK     1       2.448   0.891  -1.951  1.00  0.00     0.002 A 
HETATM   15  C2  UNK     1       3.345   1.350  -0.987  1.00  0.00     0.101 A 
HETATM   16  C9  UNK     1       4.533   1.968  -1.377  1.00  0.00     0.069 A 
HETATM   17  C11 UNK     1       4.824   2.127  -2.732  1.00  0.00     0.050 A 
HETATM   18 Cl1  UNK     1       5.663   2.546  -0.208  1.00  0.00    -0.081 Cl
HETATM   19  C10 UNK     1       3.927   1.668  -3.696  1.00  0.00     0.036 A 
HETATM   20 Cl2  UNK     1       4.287   1.863  -5.368  1.00  0.00    -0.084 Cl
HETATM   21  C7  UNK     1       2.739   1.050  -3.306  1.00  0.00     0.038 A 
BRANCH  15  22
HETATM   22  O1  UNK     1       3.059   1.194   0.339  1.00  0.00    -0.346 OA
BRANCH  22  23
HETATM   23  C3  UNK     1       2.339   2.248   0.972  1.00  0.00     0.202 C 
BRANCH  23  24
HETATM   24  C4  UNK     1       1.479   1.667   2.077  1.00  0.00     0.202 C 
BRANCH  24  25
HETATM   25  O2  UNK     1       0.555   0.746   1.510  1.00  0.00    -0.349 OA
BRANCH  25  26
HETATM   26  C12 UNK     1      -0.292   0.108   2.378  1.00  0.00     0.071 A 
HETATM   27  C18 UNK     1      -0.754  -1.175   2.086  1.00  0.00     0.073 A 
HETATM   28  C20 UNK     1      -1.615  -1.825   2.970  1.00  0.00     0.070 A 
HETATM   29  C22 UNK     1      -2.014  -1.191   4.147  1.00  0.00     0.037 A 
HETATM   30  C21 UNK     1      -1.553   0.092   4.439  1.00  0.00     0.005 A 
HETATM   31  C19 UNK     1      -0.692   0.742   3.554  1.00  0.00     0.037 A 
BRANCH  28  32
HETATM   32  O3  UNK     1      -2.063  -3.078   2.687  1.00  0.00    -0.356 OA
HETATM   33  C24 UNK     1      -2.939  -3.685   3.636  1.00  0.00     0.210 C 
ENDBRANCH  28  32
ENDBRANCH  25  26
ENDBRANCH  24  25
ENDBRANCH  23  24
ENDBRANCH  22  23
ENDBRANCH  15  22
ENDBRANCH   2  14
TORSDOF 9
