REMARK  6 active torsions:
REMARK  status: ('A' for Active; 'I' for Inactive)
REMARK    1  A    between atoms: C13_20  and  O3_4 
REMARK    2  A    between atoms: C11_18  and  N1_6 
REMARK    3  A    between atoms: C1_8  and  C2_9 
REMARK    4  A    between atoms: C6_13  and  C8_15 
REMARK    5  A    between atoms: C14_21  and  C8_15 
REMARK    6  A    between atoms: C14_21  and  C18_25 
ROOT
HETATM    1  O1  UNK     1       2.204   0.691   0.643  1.00  0.00    -0.291 OA
HETATM    2  O2  UNK     1       2.181   1.358  -3.487  1.00  0.00    -0.274 OA
HETATM    3  O4  UNK     1       1.119  -0.634  -3.806  1.00  0.00    -0.259 OA
HETATM    4  N2  UNK     1       0.518  -3.728   1.557  1.00  0.00    -0.191 NA
HETATM    5  C1  UNK     1       0.900  -1.264  -1.005  1.00  0.00     0.109 C 
HETATM    6  C3  UNK     1       1.570  -0.019  -1.554  1.00  0.00     0.066 A 
HETATM    7  C4  UNK     1       2.154   0.863  -0.728  1.00  0.00     0.104 A 
HETATM    8  C5  UNK     1       1.190  -1.468   0.479  1.00  0.00     0.086 C 
HETATM    9  C10 UNK     1       2.777   2.081  -1.241  1.00  0.00     0.033 A 
HETATM   10  C11 UNK     1       1.800  -0.513   1.217  1.00  0.00     0.159 C 
HETATM   11  C12 UNK     1       1.593   0.185  -3.026  1.00  0.00     0.298 A 
HETATM   12  C16 UNK     1       2.767   2.296  -2.616  1.00  0.00     0.092 A 
HETATM   13  C17 UNK     1       3.380   3.046  -0.426  1.00  0.00     0.017 A 
HETATM   14  C19 UNK     1       3.333   3.433  -3.193  1.00  0.00     0.038 A 
HETATM   15  C20 UNK     1       0.819  -2.716   1.074  1.00  0.00     0.100 C 
HETATM   16  C21 UNK     1       3.952   4.191  -0.989  1.00  0.00     0.001 A 
HETATM   17  C22 UNK     1       3.928   4.384  -2.370  1.00  0.00     0.003 A 
ENDROOT
BRANCH   5  18
HETATM   18  C2  UNK     1      -0.582  -1.209  -1.238  1.00  0.00    -0.043 A 
HETATM   19  C7  UNK     1      -1.333  -0.195  -0.656  1.00  0.00     0.018 A 
HETATM   20  C6  UNK     1      -2.710  -0.144  -0.872  1.00  0.00    -0.024 A 
HETATM   21  C13 UNK     1      -3.326  -1.108  -1.669  1.00  0.00     0.074 A 
HETATM   22  C15 UNK     1      -2.566  -2.123  -2.250  1.00  0.00     0.038 A 
HETATM   23  C9  UNK     1      -1.189  -2.174  -2.033  1.00  0.00     0.011 A 
BRANCH  20  24
HETATM   24  C8  UNK     1      -3.508   0.950  -0.244  1.00  0.00     0.046 C 
BRANCH  24  25
HETATM   25  C14 UNK     1      -4.051   0.605   1.156  1.00  0.00     0.043 C 
BRANCH  25  26
HETATM   26  C18 UNK     1      -2.964   0.325   2.164  1.00  0.00    -0.058 A 
HETATM   27  C23 UNK     1      -2.499  -0.971   2.321  1.00  0.00     0.009 A 
HETATM   28  C26 UNK     1      -1.495  -1.230   3.254  1.00  0.00     0.024 A 
HETATM   29  C28 UNK     1      -0.967  -0.188   4.017  1.00  0.00     0.034 A 
HETATM   30  C27 UNK     1      -1.444   1.111   3.849  1.00  0.00     0.024 A 
HETATM   31 Cl1  UNK     1       0.271  -0.508   5.169  1.00  0.00    -0.084 Cl
HETATM   32  C24 UNK     1      -2.449   1.370   2.916  1.00  0.00     0.009 A 
ENDBRANCH  25  26
ENDBRANCH  24  25
ENDBRANCH  20  24
BRANCH  21  33
HETATM   33  O3  UNK     1      -4.670  -1.074  -1.891  1.00  0.00    -0.355 OA
HETATM   34  C25 UNK     1      -5.122  -0.330  -3.021  1.00  0.00     0.210 C 
ENDBRANCH  21  33
ENDBRANCH   5  18
BRANCH  10  35
HETATM   35  N1  UNK     1       2.083  -0.608   2.552  1.00  0.00    -0.379 N 
HETATM   36  H11 UNK     1       2.537   0.170   3.011  1.00  0.00     0.158 HD
HETATM   37  H12 UNK     1       1.835  -1.436   3.079  1.00  0.00     0.158 HD
ENDBRANCH  10  35
TORSDOF 6
