REMARK  5 active torsions:
REMARK  status: ('A' for Active; 'I' for Inactive)
REMARK    1  A    between atoms: C13_21  and  O1_3 
REMARK    2  A    between atoms: C21_29  and  O1_3 
REMARK       I    between atoms: C15_23  and  N1_8 
REMARK    3  A    between atoms: C6_14  and  N1_8 
REMARK    4  A    between atoms: C13_21  and  C3_11 
REMARK    5  A    between atoms: C15_23  and  C16_24 
ROOT
HETATM    1  S1  UNK     1       0.164  -0.318   2.530  1.00  0.00    -0.075 SA
HETATM    2  C1  UNK     1      -2.217  -1.120   1.991  1.00  0.00     0.006 A 
HETATM    3  C2  UNK     1      -3.547  -1.631   2.209  1.00  0.00    -0.017 A 
HETATM    4  C3  UNK     1      -1.632  -0.753   0.745  1.00  0.00     0.085 A 
HETATM    5  C4  UNK     1      -1.349  -0.933   3.045  1.00  0.00    -0.007 A 
HETATM    6  C5  UNK     1      -4.615  -0.771   2.455  1.00  0.00    -0.051 A 
HETATM    7  C6  UNK     1      -0.359  -0.310   0.913  1.00  0.00     0.094 A 
HETATM    8  C7  UNK     1      -3.751  -3.009   2.170  1.00  0.00     0.019 A 
HETATM    9  C8  UNK     1      -5.029  -3.529   2.378  1.00  0.00    -0.061 A 
HETATM   10  C9  UNK     1      -5.893  -1.290   2.663  1.00  0.00     0.008 A 
HETATM   11  C10 UNK     1      -1.556  -1.186   4.491  1.00  0.00     0.057 C 
HETATM   12  C11 UNK     1      -6.099  -2.669   2.625  1.00  0.00     0.007 A 
HETATM   13  C12 UNK     1      -4.433   0.712   2.503  1.00  0.00     0.049 C 
HETATM   14  C14 UNK     1      -5.251  -5.003   2.340  1.00  0.00     0.048 C 
ENDROOT
BRANCH   7  15
HETATM   15  N1  UNK     1       0.574   0.145  -0.023  1.00  0.00    -0.316 N 
HETATM   16  C15 UNK     1       1.863   0.581   0.251  1.00  0.00     0.262 C 
HETATM   17  O4  UNK     1       2.433   0.655   1.339  1.00  0.00    -0.267 OA
HETATM   18  H7  UNK     1       0.234   0.159  -0.981  1.00  0.00     0.169 HD
BRANCH  16  19
HETATM   19  C16 UNK     1       2.573   0.989  -0.967  1.00  0.00     0.108 A 
HETATM   20  C18 UNK     1       3.494   1.950  -0.821  1.00  0.00     0.037 A 
HETATM   21  C17 UNK     1       4.250   2.421  -1.970  1.00  0.00     0.000 A 
HETATM   22  C19 UNK     1       4.000   1.858  -3.217  1.00  0.00     0.089 A 
HETATM   23  C22 UNK     1       5.219   3.422  -1.864  1.00  0.00     0.033 A 
HETATM   24  O2  UNK     1       3.031   0.847  -3.365  1.00  0.00    -0.274 OA
HETATM   25  C23 UNK     1       4.689   2.265  -4.358  1.00  0.00     0.039 A 
HETATM   26  C20 UNK     1       2.291   0.375  -2.284  1.00  0.00     0.304 A 
HETATM   27  O5  UNK     1       1.449  -0.505  -2.421  1.00  0.00    -0.259 OA
HETATM   28  C25 UNK     1       5.654   3.263  -4.244  1.00  0.00     0.022 A 
HETATM   29  C24 UNK     1       5.919   3.840  -3.000  1.00  0.00     0.011 A 
HETATM   30 Br1  UNK     1       7.231   5.194  -2.851  1.00  0.00    -0.051 Br
ENDBRANCH  16  19
ENDBRANCH   7  15
BRANCH   4  31
HETATM   31  C13 UNK     1      -2.278  -0.831  -0.542  1.00  0.00     0.297 C 
HETATM   32  O3  UNK     1      -3.155  -1.659  -0.850  1.00  0.00    -0.259 OA
BRANCH  31  33
HETATM   33  O1  UNK     1      -1.816   0.127  -1.409  1.00  0.00    -0.318 OA
BRANCH  33  34
HETATM   34  C21 UNK     1      -2.383   0.154  -2.723  1.00  0.00     0.174 C 
HETATM   35  C26 UNK     1      -1.742   1.274  -3.515  1.00  0.00     0.034 C 
ENDBRANCH  33  34
ENDBRANCH  31  33
ENDBRANCH   4  31
TORSDOF 5
