REMARK  5 active torsions:
REMARK  status: ('A' for Active; 'I' for Inactive)
REMARK    1  A    between atoms: C14_24  and  O2_2 
REMARK    2  A    between atoms: C5_15  and  O2_2 
REMARK    3  A    between atoms: C15_25  and  N1_9 
REMARK    4  A    between atoms: C16_26  and  N2_10 
REMARK    5  A    between atoms: C14_24  and  C9_19 
ROOT
HETATM    1  O4  UNK     1      -0.052   1.574   0.822  1.00  0.00    -0.259 OA
HETATM    2  C14 UNK     1       0.312   0.971  -0.176  1.00  0.00     0.298 C 
ENDROOT
BRANCH   2   3
HETATM    3  O2  UNK     1      -0.341  -0.124  -0.748  1.00  0.00    -0.275 OA
BRANCH   3   4
HETATM    4  C5  UNK     1      -1.478  -0.500  -0.101  1.00  0.00     0.082 A 
HETATM    5  C6  UNK     1      -1.420  -1.437   0.925  1.00  0.00     0.075 A 
HETATM    6  C2  UNK     1      -2.598  -1.808   1.576  1.00  0.00     0.092 A 
HETATM    7  C1  UNK     1      -3.840  -1.270   1.234  1.00  0.00     0.004 A 
HETATM    8  O1  UNK     1      -2.476  -2.761   2.607  1.00  0.00    -0.275 OA
HETATM    9  C3  UNK     1      -5.028  -1.719   1.972  1.00  0.00    -0.043 A 
HETATM   10  C4  UNK     1      -3.877  -0.327   0.198  1.00  0.00     0.017 A 
HETATM   11  C10 UNK     1      -6.378  -1.160   1.628  1.00  0.00     0.049 C 
HETATM   12  C8  UNK     1      -4.882  -2.626   2.948  1.00  0.00     0.090 A 
HETATM   13  C11 UNK     1      -3.579  -3.203   3.320  1.00  0.00     0.288 A 
HETATM   14  O3  UNK     1      -3.484  -4.031   4.219  1.00  0.00    -0.260 OA
HETATM   15  C7  UNK     1      -2.704   0.054  -0.464  1.00  0.00     0.038 A 
ENDBRANCH   3   4
ENDBRANCH   2   3
BRANCH   2  16
HETATM   16  C9  UNK     1       1.540   1.320  -0.936  1.00  0.00     0.044 A 
HETATM   17  C12 UNK     1       2.605   1.878  -0.259  1.00  0.00     0.053 A 
HETATM   18  C16 UNK     1       3.758   2.207  -0.972  1.00  0.00     0.106 A 
HETATM   19  C17 UNK     1       3.821   1.970  -2.346  1.00  0.00     0.072 A 
HETATM   20  C15 UNK     1       2.730   1.405  -3.006  1.00  0.00     0.106 A 
HETATM   21  C13 UNK     1       1.577   1.076  -2.293  1.00  0.00     0.053 A 
BRANCH  18  22
HETATM   22  N2  UNK     1       4.869   2.783  -0.300  1.00  0.00    -0.116 N 
HETATM   23  O6  UNK     1       4.792   2.987   0.936  1.00  0.00    -0.532 OA
HETATM   24  O8  UNK     1       5.897   3.070  -0.960  1.00  0.00    -0.532 OA
ENDBRANCH  18  22
BRANCH  20  25
HETATM   25  N1  UNK     1       2.793   1.164  -4.404  1.00  0.00    -0.116 N 
HETATM   26  O5  UNK     1       1.801   0.654  -4.978  1.00  0.00    -0.532 OA
HETATM   27  O7  UNK     1       3.839   1.467  -5.026  1.00  0.00    -0.532 OA
ENDBRANCH  20  25
ENDBRANCH   2  16
TORSDOF 5
