REMARK  2 active torsions:
REMARK  status: ('A' for Active; 'I' for Inactive)
REMARK    1  A    between atoms: C1_5  and  C4_8 
REMARK    2  A    between atoms: C2_6  and  C3_7 
ROOT
HETATM    1  N1  UNK     1      -3.681  -1.666  -2.280  1.00  0.00    -0.191 NA
HETATM    2  C3  UNK     1      -1.516  -0.671  -1.238  1.00  0.00     0.055 C 
HETATM    3  C4  UNK     1      -0.561  -0.210  -2.089  1.00  0.00     0.036 C 
HETATM    4  C15 UNK     1      -2.711  -1.220  -1.824  1.00  0.00     0.100 C 
ENDROOT
BRANCH   2   5
HETATM    5  C2  UNK     1      -1.391  -0.645   0.211  1.00  0.00    -0.015 A 
HETATM    6  C7  UNK     1      -0.817  -1.725   0.881  1.00  0.00     0.014 A 
HETATM    7  C11 UNK     1      -0.698  -1.700   2.271  1.00  0.00     0.024 A 
HETATM    8  C14 UNK     1      -1.152  -0.595   2.990  1.00  0.00     0.034 A 
HETATM    9  C12 UNK     1      -1.726   0.486   2.320  1.00  0.00     0.024 A 
HETATM   10 Cl3  UNK     1      -1.005  -0.564   4.704  1.00  0.00    -0.084 Cl
HETATM   11  C8  UNK     1      -1.846   0.461   0.930  1.00  0.00     0.014 A 
ENDBRANCH   2   5
BRANCH   3  12
HETATM   12  C1  UNK     1       0.715   0.405  -1.693  1.00  0.00    -0.013 A 
HETATM   13  C5  UNK     1       0.840   1.775  -1.503  1.00  0.00     0.045 A 
HETATM   14 Cl1  UNK     1      -0.488   2.862  -1.719  1.00  0.00    -0.083 Cl
HETATM   15  C9  UNK     1       2.072   2.308  -1.126  1.00  0.00     0.048 A 
HETATM   16  C13 UNK     1       3.169   1.467  -0.942  1.00  0.00     0.035 A 
HETATM   17  C10 UNK     1       3.034   0.092  -1.134  1.00  0.00     0.024 A 
HETATM   18 Cl2  UNK     1       4.691   2.124  -0.478  1.00  0.00    -0.084 Cl
HETATM   19  C6  UNK     1       1.802  -0.441  -1.511  1.00  0.00     0.015 A 
ENDBRANCH   3  12
TORSDOF 2
