REMARK  5 active torsions:
REMARK  status: ('A' for Active; 'I' for Inactive)
REMARK    1  A    between atoms: C5_13  and  N1_6 
REMARK    2  A    between atoms: C7_15  and  N2_7 
REMARK    3  A    between atoms: C13_21  and  N3_8 
REMARK    4  A    between atoms: C7_15  and  N3_8 
REMARK    5  A    between atoms: C5_13  and  C6_14 
ROOT
HETATM    1  N1  UNK     1       1.124   0.066  -2.906  1.00  0.00     0.095 N 
HETATM    2  N2  UNK     1      -1.611  -0.579  -2.456  1.00  0.00    -0.355 N 
HETATM    3  C1  UNK     1       0.215   1.061  -2.315  1.00  0.00     0.292 C 
HETATM    4  C2  UNK     1       0.402  -0.800  -3.852  1.00  0.00     0.292 C 
HETATM    5  C3  UNK     1      -0.941   0.377  -1.586  1.00  0.00     0.155 C 
HETATM    6  C4  UNK     1      -0.751  -1.523  -3.155  1.00  0.00     0.155 C 
ENDROOT
BRANCH   2   7
HETATM    7  C7  UNK     1      -2.962  -0.657  -2.526  1.00  0.00     0.174 C 
HETATM    8  S1  UNK     1      -3.704  -1.070  -3.973  1.00  0.00    -0.041 SA
BRANCH   7   9
HETATM    9  N3  UNK     1      -3.723  -0.337  -1.432  1.00  0.00    -0.333 N 
HETATM   10  H13 UNK     1      -4.643   0.043  -1.646  1.00  0.00     0.168 HD
BRANCH   9  11
HETATM   11  C13 UNK     1      -3.462  -0.462  -0.046  1.00  0.00     0.036 A 
HETATM   12  C14 UNK     1      -2.619  -1.461   0.397  1.00  0.00     0.067 A 
HETATM   13  C17 UNK     1      -2.374  -1.565   1.768  1.00  0.00     0.092 A 
HETATM   14  C16 UNK     1      -2.951  -0.698   2.696  1.00  0.00     0.004 A 
HETATM   15  O3  UNK     1      -1.507  -2.599   2.177  1.00  0.00    -0.275 OA
HETATM   16  C19 UNK     1      -3.801   0.304   2.209  1.00  0.00     0.017 A 
HETATM   17  C20 UNK     1      -2.637  -0.881   4.120  1.00  0.00    -0.043 A 
HETATM   18  C15 UNK     1      -4.056   0.422   0.838  1.00  0.00     0.030 A 
HETATM   19  C21 UNK     1      -1.810  -1.872   4.480  1.00  0.00     0.090 A 
HETATM   20  C22 UNK     1      -3.242   0.036   5.143  1.00  0.00     0.049 C 
HETATM   21  C23 UNK     1      -1.193  -2.795   3.513  1.00  0.00     0.288 A 
HETATM   22  O4  UNK     1      -0.441  -3.691   3.879  1.00  0.00    -0.260 OA
ENDBRANCH   9  11
ENDBRANCH   7   9
ENDBRANCH   2   7
BRANCH   1  23
HETATM   23  C5  UNK     1       2.246   0.727  -3.571  1.00  0.00     0.311 C 
BRANCH  23  24
HETATM   24  C6  UNK     1       3.048   1.567  -2.619  1.00  0.00    -0.027 A 
HETATM   25  C8  UNK     1       3.389   1.051  -1.371  1.00  0.00     0.048 A 
HETATM   26  C10 UNK     1       4.126   1.860  -0.531  1.00  0.00     0.105 A 
HETATM   27  O1  UNK     1       4.551   1.535   0.721  1.00  0.00    -0.323 OA
HETATM   28  C11 UNK     1       4.513   3.127  -0.901  1.00  0.00     0.105 A 
HETATM   29  C18 UNK     1       5.249   2.740   1.096  1.00  0.00     0.352 A 
HETATM   30  O2  UNK     1       5.229   3.754   0.071  1.00  0.00    -0.323 OA
HETATM   31  C12 UNK     1       4.185   3.656  -2.133  1.00  0.00     0.040 A 
HETATM   32  C9  UNK     1       3.439   2.857  -3.003  1.00  0.00     0.012 A 
ENDBRANCH  23  24
ENDBRANCH   1  23
TORSDOF 5
