REMARK  9 active torsions:
REMARK  status: ('A' for Active; 'I' for Inactive)
REMARK    1  A    between atoms: C5_9  and  N1_3 
REMARK       I    between atoms: C7_11  and  N1_3 
REMARK       I    between atoms: C7_11  and  N2_4 
REMARK    2  A    between atoms: C8_12  and  N2_4 
REMARK    3  A    between atoms: C1_5  and  C2_6 
REMARK    4  A    between atoms: C1_5  and  C3_7 
REMARK    5  A    between atoms: C2_6  and  C4_8 
REMARK    6  A    between atoms: C3_7  and  C5_9 
REMARK    7  A    between atoms: C4_8  and  C6_10 
REMARK    8  A    between atoms: C14_18  and  C9_13 
REMARK    9  A    between atoms: C15_19  and  C16_20 
ROOT
HETATM    1  C8  UNK     1       0.163  -0.592  -1.176  1.00  0.00     0.036 A 
HETATM    2  C9  UNK     1      -1.673  -1.537   0.700  1.00  0.00    -0.036 A 
HETATM    3  C10 UNK     1      -0.872   0.233  -0.737  1.00  0.00     0.030 A 
HETATM    4  C11 UNK     1       0.280  -1.890  -0.677  1.00  0.00     0.030 A 
HETATM    5  C12 UNK     1      -1.790  -0.239   0.201  1.00  0.00     0.013 A 
HETATM    6  C13 UNK     1      -0.638  -2.362   0.260  1.00  0.00     0.013 A 
ENDROOT
BRANCH   1   7
HETATM    7  N2  UNK     1       1.094  -0.114  -2.127  1.00  0.00    -0.309 N 
HETATM    8  C7  UNK     1       1.133   1.146  -2.731  1.00  0.00     0.320 C 
HETATM    9  O1  UNK     1       0.352   2.075  -2.538  1.00  0.00    -0.247 OA
HETATM   10  N1  UNK     1       2.213   1.233  -3.622  1.00  0.00    -0.343 N 
HETATM   11  H13 UNK     1       2.820   0.426  -3.726  1.00  0.00     0.164 HD
HETATM   12  H14 UNK     1       1.820  -0.772  -2.399  1.00  0.00     0.170 HD
BRANCH  10  13
HETATM   13  C5  UNK     1       2.510   2.409  -4.391  1.00  0.00     0.124 C 
BRANCH  13  14
HETATM   14  C3  UNK     1       3.452   3.360  -3.660  1.00  0.00     0.020 C 
BRANCH  14  15
HETATM   15  C1  UNK     1       4.810   2.722  -3.353  1.00  0.00     0.002 C 
BRANCH  15  16
HETATM   16  C2  UNK     1       5.751   3.721  -2.673  1.00  0.00     0.001 C 
BRANCH  16  17
HETATM   17  C4  UNK     1       7.099   3.074  -2.341  1.00  0.00     0.015 C 
BRANCH  17  18
HETATM   18  C6  UNK     1       8.073   4.027  -1.655  1.00  0.00     0.114 C 
HETATM   19 Cl1  UNK     1       7.441   4.627  -0.105  1.00  0.00    -0.130 Cl
ENDBRANCH  17  18
ENDBRANCH  16  17
ENDBRANCH  15  16
ENDBRANCH  14  15
ENDBRANCH  13  14
ENDBRANCH  10  13
ENDBRANCH   1   7
BRANCH   2  20
HETATM   20  C14 UNK     1      -2.630  -2.029   1.678  1.00  0.00     0.012 C 
HETATM   21  C15 UNK     1      -3.860  -1.507   1.898  1.00  0.00     0.012 C 
BRANCH  21  22
HETATM   22  C16 UNK     1      -4.838  -2.018   2.875  1.00  0.00    -0.036 A 
HETATM   23  C17 UNK     1      -4.412  -2.823   3.932  1.00  0.00     0.011 A 
HETATM   24  C19 UNK     1      -5.337  -3.306   4.857  1.00  0.00     0.001 A 
HETATM   25  C21 UNK     1      -6.688  -2.985   4.726  1.00  0.00     0.000 A 
HETATM   26  C20 UNK     1      -7.114  -2.180   3.669  1.00  0.00     0.001 A 
HETATM   27  C18 UNK     1      -6.189  -1.697   2.743  1.00  0.00     0.011 A 
ENDBRANCH  21  22
ENDBRANCH   2  20
TORSDOF 9
