REMARK  6 active torsions:
REMARK  status: ('A' for Active; 'I' for Inactive)
REMARK    1  A    between atoms: C23_30  and  O3_3 
REMARK    2  A    between atoms: C25_32  and  O3_3 
REMARK    3  A    between atoms: C5_12  and  N1_5 
REMARK    4  A    between atoms: C6_13  and  N2_6 
REMARK       I    between atoms: C7_14  and  N3_7 
REMARK    5  A    between atoms: C5_12  and  C7_14 
REMARK    6  A    between atoms: C12_19  and  C6_13 
ROOT
HETATM    1  N1  UNK     1      -0.825  -0.532   1.341  1.00  0.00     0.100 N 
HETATM    2  N2  UNK     1       1.584   0.078  -0.137  1.00  0.00     0.096 N 
HETATM    3  C1  UNK     1      -0.691  -0.885  -0.078  1.00  0.00     0.303 C 
HETATM    4  C2  UNK     1      -0.021   0.656   1.651  1.00  0.00     0.303 C 
HETATM    5  C3  UNK     1       0.779  -1.109  -0.449  1.00  0.00     0.303 C 
HETATM    6  C4  UNK     1       1.450   0.431   1.282  1.00  0.00     0.303 C 
ENDROOT
BRANCH   2   7
HETATM    7  C6  UNK     1       2.986  -0.140  -0.487  1.00  0.00     0.312 C 
BRANCH   7   8
HETATM    8  C12 UNK     1       3.732   1.140  -0.642  1.00  0.00    -0.011 A 
HETATM    9  C13 UNK     1       3.795   1.798  -1.955  1.00  0.00     0.009 A 
HETATM   10  C17 UNK     1       4.501   2.996  -2.069  1.00  0.00     0.090 A 
HETATM   11  C20 UNK     1       3.183   1.291  -3.109  1.00  0.00     0.051 A 
HETATM   12  O2  UNK     1       5.144   3.572  -0.955  1.00  0.00    -0.275 OA
HETATM   13  C22 UNK     1       4.610   3.685  -3.278  1.00  0.00     0.041 A 
HETATM   14  C21 UNK     1       5.100   2.975   0.296  1.00  0.00     0.288 A 
HETATM   15  C16 UNK     1       4.352   1.711   0.400  1.00  0.00     0.092 A 
HETATM   16  O4  UNK     1       5.655   3.468   1.272  1.00  0.00    -0.260 OA
HETATM   17  C24 UNK     1       3.996   3.166  -4.413  1.00  0.00     0.039 A 
HETATM   18  C23 UNK     1       3.283   1.971  -4.329  1.00  0.00     0.069 A 
BRANCH  18  19
HETATM   19  O3  UNK     1       2.681   1.462  -5.439  1.00  0.00    -0.351 OA
BRANCH  19  20
HETATM   20  C25 UNK     1       2.236   2.396  -6.421  1.00  0.00     0.171 C 
HETATM   21  C26 UNK     1       1.038   1.817  -7.143  1.00  0.00     0.034 C 
ENDBRANCH  19  20
ENDBRANCH  18  19
ENDBRANCH   7   8
ENDBRANCH   2   7
BRANCH   1  22
HETATM   22  C5  UNK     1      -2.227  -0.316   1.692  1.00  0.00     0.375 C 
BRANCH  22  23
HETATM   23  C7  UNK     1      -2.947  -1.625   1.916  1.00  0.00     0.252 C 
HETATM   24  O1  UNK     1      -2.319  -2.681   1.828  1.00  0.00    -0.271 OA
HETATM   25  N3  UNK     1      -4.298  -1.504   2.212  1.00  0.00    -0.316 N 
HETATM   26  C10 UNK     1      -5.188  -2.569   2.462  1.00  0.00     0.043 A 
HETATM   27  C8  UNK     1      -5.049  -0.235   2.317  1.00  0.00     0.137 A 
HETATM   28  C11 UNK     1      -6.466  -2.071   2.725  1.00  0.00    -0.030 A 
HETATM   29  C14 UNK     1      -4.946  -3.935   2.471  1.00  0.00     0.030 A 
HETATM   30  C9  UNK     1      -6.501  -0.579   2.665  1.00  0.00     0.061 A 
HETATM   31  C15 UNK     1      -7.527  -2.920   3.003  1.00  0.00     0.009 A 
HETATM   32  C19 UNK     1      -7.292  -4.295   3.014  1.00  0.00     0.001 A 
HETATM   33  C18 UNK     1      -6.011  -4.798   2.750  1.00  0.00     0.002 A 
ENDBRANCH  22  23
ENDBRANCH   1  22
TORSDOF 6
