REMARK  6 active torsions:
REMARK  status: ('A' for Active; 'I' for Inactive)
REMARK    1  A    between atoms: C11_19  and  O2_2 
REMARK    2  A    between atoms: C8_16  and  O2_2 
REMARK    3  A    between atoms: C16_24  and  N1_8 
REMARK    4  A    between atoms: C11_19  and  C3_11 
REMARK    5  A    between atoms: C10_18  and  C5_13 
REMARK    6  A    between atoms: C10_18  and  C8_16 
ROOT
HETATM    1  O2  UNK     1       0.291   0.160  -0.420  1.00  0.00    -0.309 OA
ENDROOT
BRANCH   1   2
HETATM    2  C11 UNK     1       0.723   0.214  -1.704  1.00  0.00     0.299 C 
HETATM    3  O5  UNK     1       0.186  -0.250  -2.696  1.00  0.00    -0.259 OA
BRANCH   2   4
HETATM    4  C3  UNK     1       1.995   0.945  -1.739  1.00  0.00     0.115 A 
HETATM    5  C4  UNK     1       2.256   1.624  -2.863  1.00  0.00     0.038 A 
HETATM    6  C1  UNK     1       3.493   2.379  -2.992  1.00  0.00    -0.001 A 
HETATM    7  C2  UNK     1       4.393   2.383  -1.932  1.00  0.00     0.089 A 
HETATM    8  C6  UNK     1       3.806   3.102  -4.146  1.00  0.00     0.014 A 
HETATM    9  O1  UNK     1       4.112   1.667  -0.752  1.00  0.00    -0.274 OA
HETATM   10  C7  UNK     1       5.595   3.086  -1.992  1.00  0.00     0.038 A 
HETATM   11  C9  UNK     1       2.938   0.935  -0.598  1.00  0.00     0.304 A 
HETATM   12  O3  UNK     1       2.702   0.314   0.433  1.00  0.00    -0.259 OA
HETATM   13  C13 UNK     1       5.900   3.804  -3.146  1.00  0.00     0.003 A 
HETATM   14  C12 UNK     1       5.008   3.812  -4.221  1.00  0.00     0.001 A 
ENDBRANCH   2   4
ENDBRANCH   1   2
BRANCH   1  15
HETATM   15  C8  UNK     1      -0.949  -0.528  -0.221  1.00  0.00     0.263 C 
BRANCH  15  16
HETATM   16  C10 UNK     1      -1.319  -0.517   1.249  1.00  0.00     0.183 C 
HETATM   17  O4  UNK     1      -0.590  -0.003   2.094  1.00  0.00    -0.290 OA
BRANCH  16  18
HETATM   18  C5  UNK     1      -2.602  -1.151   1.670  1.00  0.00     0.012 A 
HETATM   19  C14 UNK     1      -3.403  -1.724   0.708  1.00  0.00     0.017 A 
HETATM   20  C17 UNK     1      -4.603  -2.315   1.103  1.00  0.00     0.037 A 
HETATM   21  C16 UNK     1      -4.970  -2.318   2.449  1.00  0.00     0.102 A 
HETATM   22  C18 UNK     1      -4.137  -1.730   3.400  1.00  0.00     0.037 A 
HETATM   23  C15 UNK     1      -2.936  -1.139   3.005  1.00  0.00     0.017 A 
BRANCH  21  24
HETATM   24  N1  UNK     1      -6.193  -2.918   2.850  1.00  0.00    -0.116 N 
HETATM   25  O6  UNK     1      -6.929  -3.440   1.978  1.00  0.00    -0.532 OA
HETATM   26  O7  UNK     1      -6.504  -2.911   4.065  1.00  0.00    -0.532 OA
ENDBRANCH  21  24
ENDBRANCH  16  18
ENDBRANCH  15  16
ENDBRANCH   1  15
TORSDOF 6
