REMARK  8 active torsions:
REMARK  status: ('A' for Active; 'I' for Inactive)
REMARK    1  A    between atoms: C16_28  and  S1_1 
REMARK    2  A    between atoms: C3_15  and  S1_1 
REMARK    3  A    between atoms: C1_13  and  N1_7 
REMARK       I    between atoms: C20_32  and  N4_10 
REMARK    4  A    between atoms: C22_34  and  N4_10 
REMARK       I    between atoms: C21_33  and  N5_11 
REMARK    5  A    between atoms: N5_11  and  N6_12 
REMARK    6  A    between atoms: C22_34  and  N6_12 
REMARK    7  A    between atoms: C20_32  and  C9_21 
REMARK    8  A    between atoms: C16_28  and  C21_33 
ROOT
HETATM    1  N6  UNK     1      -0.249   0.597  -1.688  1.00  0.00    -0.273 N 
HETATM    2  H18 UNK     1       0.107   0.332  -2.600  1.00  0.00     0.189 HD
ENDROOT
BRANCH   1   3
HETATM    3  C22 UNK     1       0.418   1.475  -0.856  1.00  0.00     0.193 C 
HETATM    4  S2  UNK     1      -0.109   1.983   0.659  1.00  0.00    -0.039 SA
BRANCH   3   5
HETATM    5  N4  UNK     1       1.635   1.963  -1.345  1.00  0.00    -0.298 N 
HETATM    6  C20 UNK     1       2.275   1.689  -2.558  1.00  0.00     0.264 C 
HETATM    7  O3  UNK     1       1.886   0.950  -3.454  1.00  0.00    -0.267 OA
HETATM    8  H16 UNK     1       2.109   2.604  -0.713  1.00  0.00     0.171 HD
BRANCH   6   9
HETATM    9  C9  UNK     1       3.555   2.412  -2.689  1.00  0.00     0.108 A 
HETATM   10  C13 UNK     1       3.629   3.890  -2.656  1.00  0.00     0.304 A 
HETATM   11  O1  UNK     1       4.894   4.456  -2.790  1.00  0.00    -0.274 OA
HETATM   12  O2  UNK     1       2.629   4.587  -2.517  1.00  0.00    -0.259 OA
HETATM   13  C5  UNK     1       6.048   3.665  -2.949  1.00  0.00     0.089 A 
HETATM   14  C12 UNK     1       7.271   4.323  -3.074  1.00  0.00     0.038 A 
HETATM   15  C4  UNK     1       5.956   2.278  -2.977  1.00  0.00    -0.001 A 
HETATM   16  C18 UNK     1       8.430   3.567  -3.233  1.00  0.00     0.003 A 
HETATM   17  C17 UNK     1       8.358   2.173  -3.265  1.00  0.00     0.001 A 
HETATM   18  C11 UNK     1       7.124   1.528  -3.137  1.00  0.00     0.014 A 
HETATM   19  C6  UNK     1       4.648   1.656  -2.840  1.00  0.00     0.037 A 
ENDBRANCH   6   9
ENDBRANCH   3   5
ENDBRANCH   1   3
BRANCH   1  20
HETATM   20  N5  UNK     1      -1.464   0.052  -1.340  1.00  0.00    -0.267 N 
HETATM   21  C21 UNK     1      -1.580  -1.321  -1.253  1.00  0.00     0.245 C 
HETATM   22  O4  UNK     1      -0.675  -2.127  -1.463  1.00  0.00    -0.271 OA
HETATM   23  H17 UNK     1      -2.223   0.701  -1.161  1.00  0.00     0.190 HD
BRANCH  21  24
HETATM   24  C16 UNK     1      -2.962  -1.764  -0.838  1.00  0.00     0.186 C 
BRANCH  24  25
HETATM   25  S1  UNK     1      -3.020  -1.879   0.966  1.00  0.00    -0.080 SA
BRANCH  25  26
HETATM   26  C3  UNK     1      -4.695  -2.400   1.188  1.00  0.00     0.196 A 
HETATM   27  N1  UNK     1      -5.267  -2.640   2.401  1.00  0.00    -0.276 N 
HETATM   28  C2  UNK     1      -6.549  -3.015   2.134  1.00  0.00     0.131 A 
HETATM   29  C10 UNK     1      -7.532  -3.371   3.175  1.00  0.00     0.093 C 
HETATM   30  N2  UNK     1      -6.752  -3.006   0.835  1.00  0.00    -0.134 NA
HETATM   31  N3  UNK     1      -5.572  -2.615   0.234  1.00  0.00    -0.122 NA
BRANCH  27  32
HETATM   32  C1  UNK     1      -4.685  -2.532   3.664  1.00  0.00     0.043 A 
HETATM   33  C7  UNK     1      -4.175  -1.308   4.095  1.00  0.00     0.030 A 
HETATM   34  C14 UNK     1      -3.590  -1.201   5.356  1.00  0.00     0.002 A 
HETATM   35  C19 UNK     1      -3.515  -2.319   6.188  1.00  0.00     0.000 A 
HETATM   36  C15 UNK     1      -4.026  -3.543   5.757  1.00  0.00     0.002 A 
HETATM   37  C8  UNK     1      -4.611  -3.650   4.495  1.00  0.00     0.030 A 
ENDBRANCH  27  32
ENDBRANCH  25  26
ENDBRANCH  24  25
ENDBRANCH  21  24
ENDBRANCH   1  20
TORSDOF 8
