REMARK  5 active torsions:
REMARK  status: ('A' for Active; 'I' for Inactive)
REMARK    1  A    between atoms: C14_19  and  O1_1 
REMARK    2  A    between atoms: C9_14  and  N1_5 
REMARK    3  A    between atoms: C1_6  and  C4_9 
REMARK    4  A    between atoms: C14_19  and  C2_7 
REMARK    5  A    between atoms: C2_7  and  C3_8 
ROOT
HETATM    1  C2  UNK     1      -2.047  -0.794  -0.128  1.00  0.00     0.048 C 
HETATM    2  C4  UNK     1      -1.568  -0.411  -1.314  1.00  0.00     0.030 C 
ENDROOT
BRANCH   1   3
HETATM    3  C14 UNK     1      -3.404  -1.416  -0.172  1.00  0.00     0.177 C 
HETATM    4  O2  UNK     1      -4.071  -1.601  -1.178  1.00  0.00    -0.646 OA
BRANCH   3   5
HETATM    5  O1  UNK     1      -3.819  -1.751   1.073  1.00  0.00    -0.773 OA
HETATM    6  H11 UNK     1      -4.712  -2.159   1.065  1.00  0.00     0.167 HD
ENDBRANCH   3   5
ENDBRANCH   1   3
BRANCH   1   7
HETATM    7  C3  UNK     1      -1.332  -0.620   1.152  1.00  0.00    -0.019 A 
HETATM    8  C7  UNK     1      -1.521   0.542   1.879  1.00  0.00     0.012 A 
HETATM    9  C12 UNK     1      -0.845   0.707   3.088  1.00  0.00     0.001 A 
HETATM   10  C15 UNK     1       0.009  -0.294   3.551  1.00  0.00     0.000 A 
HETATM   11  C13 UNK     1       0.187  -1.459   2.805  1.00  0.00     0.001 A 
HETATM   12  C8  UNK     1      -0.489  -1.624   1.596  1.00  0.00     0.012 A 
ENDBRANCH   1   7
BRANCH   2  13
HETATM   13  C1  UNK     1      -0.263   0.211  -1.477  1.00  0.00    -0.035 A 
HETATM   14  C5  UNK     1      -0.132   1.595  -1.368  1.00  0.00     0.014 A 
HETATM   15  C10 UNK     1       1.119   2.192  -1.523  1.00  0.00     0.037 A 
HETATM   16  C9  UNK     1       2.240   1.404  -1.786  1.00  0.00     0.102 A 
HETATM   17  C11 UNK     1       2.109   0.019  -1.895  1.00  0.00     0.037 A 
HETATM   18  C6  UNK     1       0.858  -0.577  -1.740  1.00  0.00     0.014 A 
BRANCH  16  19
HETATM   19  N1  UNK     1       3.514   2.011  -1.943  1.00  0.00    -0.116 N 
HETATM   20  O3  UNK     1       3.610   3.258  -1.841  1.00  0.00    -0.532 OA
HETATM   21  O4  UNK     1       4.509   1.285  -2.179  1.00  0.00    -0.532 OA
ENDBRANCH  16  19
ENDBRANCH   2  13
TORSDOF 5
