REMARK  5 active torsions:
REMARK  status: ('A' for Active; 'I' for Inactive)
REMARK    1  A    between atoms: C17_24  and  O1_1 
REMARK    2  A    between atoms: C4_11  and  O1_1 
REMARK    3  A    between atoms: C1_8  and  C15_22 
REMARK    4  A    between atoms: C16_23  and  C2_9 
REMARK    5  A    between atoms: C12_19  and  C17_24 
ROOT
HETATM    1  O3  UNK     1       2.990  -1.706  -0.482  1.00  0.00    -0.293 OA
HETATM    2  N1  UNK     1       1.655   2.293   1.665  1.00  0.00    -0.362 N 
HETATM    3  C1  UNK     1       1.038  -0.436   1.197  1.00  0.00     0.104 C 
HETATM    4  C2  UNK     1       4.133   1.730  -1.134  1.00  0.00     0.056 C 
HETATM    5  C3  UNK     1       2.217   0.283   0.547  1.00  0.00     0.024 C 
HETATM    6  C5  UNK     1       3.586   2.356   0.156  1.00  0.00     0.069 C 
HETATM    7  C6  UNK     1       2.456   1.588   0.787  1.00  0.00     0.021 C 
HETATM    8  C9  UNK     1       4.302   0.217  -1.000  1.00  0.00     0.095 C 
HETATM    9  C12 UNK     1       0.326   0.422   2.244  1.00  0.00     0.052 C 
HETATM   10  C13 UNK     1       3.140  -0.492  -0.335  1.00  0.00     0.159 C 
HETATM   11  C14 UNK     1       0.636   1.728   2.415  1.00  0.00     0.018 C 
HETATM   12  C18 UNK     1      -0.040   2.661   3.382  1.00  0.00     0.069 C 
HETATM   13  H16 UNK     1       1.870   3.271   1.823  1.00  0.00     0.165 HD
ENDROOT
BRANCH   3  14
HETATM   14  C15 UNK     1       0.058  -0.892   0.150  1.00  0.00     0.029 A 
HETATM   15  C19 UNK     1      -0.614   0.134  -0.687  1.00  0.00     0.194 A 
HETATM   16  O6  UNK     1      -0.396   1.331  -0.550  1.00  0.00    -0.287 OA
HETATM   17  C22 UNK     1      -1.565  -0.367  -1.697  1.00  0.00     0.049 A 
HETATM   18  C23 UNK     1      -1.775  -1.741  -1.808  1.00  0.00     0.089 A 
HETATM   19  C26 UNK     1      -2.249   0.520  -2.534  1.00  0.00     0.025 A 
HETATM   20  O4  UNK     1      -1.131  -2.656  -1.014  1.00  0.00    -0.321 OA
HETATM   21  C27 UNK     1      -2.670  -2.237  -2.757  1.00  0.00     0.039 A 
HETATM   22  C20 UNK     1      -0.249  -2.175  -0.077  1.00  0.00     0.154 A 
HETATM   23  C29 UNK     1      -3.353  -1.355  -3.593  1.00  0.00     0.009 A 
HETATM   24  C28 UNK     1      -3.143   0.021  -3.482  1.00  0.00    -0.061 A 
HETATM   25  C30 UNK     1      -3.876   0.960  -4.380  1.00  0.00     0.048 C 
ENDBRANCH   3  14
BRANCH   9  26
HETATM   26  C17 UNK     1      -0.669  -0.255   3.091  1.00  0.00     0.292 C 
HETATM   27  O5  UNK     1      -0.388  -0.822   4.130  1.00  0.00    -0.259 OA
BRANCH  26  28
HETATM   28  O1  UNK     1      -1.886  -0.122   2.510  1.00  0.00    -0.312 OA
BRANCH  28  29
HETATM   29  C4  UNK     1      -2.962  -0.729   3.218  1.00  0.00     0.132 C 
HETATM   30  C7  UNK     1      -2.736  -2.241   3.315  1.00  0.00     0.032 C 
HETATM   31  C10 UNK     1      -3.857  -2.888   2.504  1.00  0.00     0.002 C 
HETATM   32  C11 UNK     1      -4.356  -1.790   1.579  1.00  0.00     0.002 C 
HETATM   33  C8  UNK     1      -4.266  -0.543   2.447  1.00  0.00     0.032 C 
ENDBRANCH  28  29
ENDBRANCH  26  28
ENDBRANCH   9  26
BRANCH   4  34
HETATM   34  C16 UNK     1       3.348   2.180  -2.369  1.00  0.00     0.057 A 
HETATM   35  O2  UNK     1       2.056   1.785  -2.419  1.00  0.00    -0.327 OA
HETATM   36  C25 UNK     1       1.555   2.284  -3.580  1.00  0.00     0.142 A 
HETATM   37  C24 UNK     1       2.521   2.989  -4.259  1.00  0.00     0.027 A 
HETATM   38  C21 UNK     1       3.691   2.918  -3.466  1.00  0.00     0.035 A 
ENDBRANCH   4  34
TORSDOF 5
