REMARK  0 active torsions:
REMARK  status: ('A' for Active; 'I' for Inactive)
ROOT
HETATM    1  O1  UNK     1       1.177   1.019  -2.815  1.00  0.00    -0.321 OA
HETATM    2  O2  UNK     1      -2.336  -0.932  -0.121  1.00  0.00    -0.275 OA
HETATM    3  O3  UNK     1      -3.940  -1.836   1.241  1.00  0.00    -0.260 OA
HETATM    4  C1  UNK     1       1.418   0.873  -0.573  1.00  0.00     0.006 A 
HETATM    5  C2  UNK     1       0.586   0.609  -1.657  1.00  0.00     0.088 A 
HETATM    6  C3  UNK     1      -0.277  -0.084   0.866  1.00  0.00    -0.001 A 
HETATM    7  C4  UNK     1       2.581   1.479  -1.118  1.00  0.00    -0.027 A 
HETATM    8  C5  UNK     1       0.981   0.521   0.719  1.00  0.00     0.029 A 
HETATM    9  C6  UNK     1      -1.067  -0.323  -0.258  1.00  0.00     0.092 A 
HETATM   10  C7  UNK     1      -0.668   0.012  -1.555  1.00  0.00     0.076 A 
HETATM   11  C8  UNK     1       2.384   1.544  -2.478  1.00  0.00     0.150 A 
HETATM   12  C9  UNK     1      -0.785  -0.471   2.173  1.00  0.00     0.020 A 
HETATM   13  C10 UNK     1       3.770   1.949  -0.382  1.00  0.00     0.051 C 
HETATM   14  C11 UNK     1      -1.985  -1.044   2.290  1.00  0.00     0.083 A 
HETATM   15  C12 UNK     1      -2.840  -1.310   1.119  1.00  0.00     0.288 A 
ENDROOT
TORSDOF 0
