REMARK  3 active torsions:
REMARK  status: ('A' for Active; 'I' for Inactive)
REMARK    1  A    between atoms: C7_15  and  N1_7 
REMARK    2  A    between atoms: C1_9  and  C3_11 
REMARK    3  A    between atoms: C15_23  and  C20_28 
ROOT
HETATM    1  O1  UNK     1       0.497   1.641  -2.457  1.00  0.00    -0.291 OA
HETATM    2  O2  UNK     1       3.200   0.098   0.339  1.00  0.00    -0.274 OA
HETATM    3  O3  UNK     1       1.912  -1.771   0.557  1.00  0.00    -0.259 OA
HETATM    4  N2  UNK     1      -2.865  -1.671  -3.425  1.00  0.00    -0.191 NA
HETATM    5  C1  UNK     1      -0.155  -0.873  -1.235  1.00  0.00     0.108 C 
HETATM    6  C2  UNK     1       1.105  -0.090  -0.919  1.00  0.00     0.066 A 
HETATM    7  C4  UNK     1       1.347   1.086  -1.518  1.00  0.00     0.104 A 
HETATM    8  C5  UNK     1      -0.914  -0.290  -2.423  1.00  0.00     0.086 C 
HETATM    9  C6  UNK     1       2.541   1.864  -1.200  1.00  0.00     0.033 A 
HETATM   10  C7  UNK     1      -0.574   0.904  -2.960  1.00  0.00     0.159 C 
HETATM   11  C8  UNK     1       2.079  -0.670   0.043  1.00  0.00     0.298 A 
HETATM   12  C9  UNK     1       3.437   1.345  -0.270  1.00  0.00     0.092 A 
HETATM   13  C12 UNK     1       2.834   3.106  -1.777  1.00  0.00     0.017 A 
HETATM   14  C16 UNK     1       4.600   2.022   0.097  1.00  0.00     0.038 A 
HETATM   15  C17 UNK     1      -1.992  -1.053  -2.977  1.00  0.00     0.100 C 
HETATM   16  C18 UNK     1       3.996   3.797  -1.420  1.00  0.00     0.001 A 
HETATM   17  C19 UNK     1       4.878   3.255  -0.484  1.00  0.00     0.003 A 
ENDROOT
BRANCH   5  18
HETATM   18  C3  UNK     1      -1.051  -0.935  -0.031  1.00  0.00    -0.044 A 
HETATM   19  C10 UNK     1      -1.357  -2.167   0.535  1.00  0.00     0.009 A 
HETATM   20  C13 UNK     1      -2.188  -2.224   1.654  1.00  0.00     0.017 A 
HETATM   21  C15 UNK     1      -2.708  -1.049   2.197  1.00  0.00     0.047 A 
HETATM   22  C14 UNK     1      -2.396   0.183   1.623  1.00  0.00     0.017 A 
HETATM   23  C11 UNK     1      -1.564   0.240   0.504  1.00  0.00     0.009 A 
BRANCH  21  24
HETATM   24  C20 UNK     1      -3.597  -1.111   3.393  1.00  0.00     0.417 C 
HETATM   25  F1  UNK     1      -3.801  -2.382   3.828  1.00  0.00    -0.166 F 
HETATM   26  F2  UNK     1      -3.098  -0.422   4.454  1.00  0.00    -0.166 F 
HETATM   27  F3  UNK     1      -4.823  -0.587   3.130  1.00  0.00    -0.166 F 
ENDBRANCH  21  24
ENDBRANCH   5  18
BRANCH  10  28
HETATM   28  N1  UNK     1      -1.209   1.504  -4.013  1.00  0.00    -0.379 N 
HETATM   29  H10 UNK     1      -0.872   2.401  -4.338  1.00  0.00     0.158 HD
HETATM   30  H9  UNK     1      -2.002   1.065  -4.461  1.00  0.00     0.158 HD
ENDBRANCH  10  28
TORSDOF 3
