REMARK  1 active torsions:
REMARK  status: ('A' for Active; 'I' for Inactive)
REMARK       I    between atoms: C5_11  and  N1_5 
REMARK    1  A    between atoms: C5_11  and  C7_13 
ROOT
HETATM    1 Cl1  UNK     1       5.187   3.265  -1.572  1.00  0.00    -0.084 Cl
HETATM    2  O1  UNK     1       0.856  -0.540  -0.402  1.00  0.00    -0.304 OA
HETATM    3  O3  UNK     1       0.081   2.467  -3.045  1.00  0.00    -0.287 OA
HETATM    4  C7  UNK     1      -0.370  -0.396  -1.016  1.00  0.00     0.147 A 
HETATM    5  C8  UNK     1      -0.697   0.563  -1.891  1.00  0.00     0.098 A 
HETATM    6  C9  UNK     1       1.836   0.372  -0.706  1.00  0.00     0.090 A 
HETATM    7  C10 UNK     1       1.638   1.424  -1.601  1.00  0.00     0.050 A 
HETATM    8  C11 UNK     1       0.323   1.569  -2.251  1.00  0.00     0.187 A 
HETATM    9  C12 UNK     1       3.072   0.214  -0.078  1.00  0.00     0.040 A 
HETATM   10  C13 UNK     1       2.671   2.323  -1.874  1.00  0.00     0.042 A 
HETATM   11  C14 UNK     1       4.106   1.111  -0.348  1.00  0.00     0.026 A 
HETATM   12  C15 UNK     1       3.906   2.163  -1.243  1.00  0.00     0.035 A 
ENDROOT
BRANCH   4  13
HETATM   13  C5  UNK     1      -1.410  -1.387  -0.675  1.00  0.00     0.277 C 
HETATM   14  O2  UNK     1      -1.480  -2.403  -1.370  1.00  0.00    -0.265 OA
HETATM   15  N1  UNK     1      -2.247  -1.105   0.402  1.00  0.00    -0.343 N 
HETATM   16  C1  UNK     1      -2.192   0.094   1.249  1.00  0.00     0.156 C 
HETATM   17  C2  UNK     1      -3.384  -1.987   0.670  1.00  0.00     0.156 C 
HETATM   18  C3  UNK     1      -2.385  -0.251   2.729  1.00  0.00     0.291 C 
HETATM   19  N2  UNK     1      -3.600  -1.050   2.936  1.00  0.00     0.087 N 
HETATM   20  C4  UNK     1      -3.527  -2.294   2.158  1.00  0.00     0.291 C 
HETATM   21  C6  UNK     1      -3.786  -1.342   4.357  1.00  0.00     0.310 C 
ENDBRANCH   4  13
TORSDOF 1
