REMARK  3 active torsions:
REMARK  status: ('A' for Active; 'I' for Inactive)
REMARK    1  A    between atoms: C4_9  and  O3_3 
REMARK    2  A    between atoms: C1_6  and  C4_9 
REMARK    3  A    between atoms: C6_11  and  C7_12 
ROOT
HETATM    1  O4  UNK     1       2.766   1.503   0.436  1.00  0.00    -0.321 OA
HETATM    2  O5  UNK     1      -0.428   0.013  -1.621  1.00  0.00    -0.287 OA
HETATM    3  C7  UNK     1       0.621   0.372   0.478  1.00  0.00     0.070 A 
HETATM    4  C8  UNK     1       0.529   0.459  -1.001  1.00  0.00     0.198 A 
HETATM    5  C9  UNK     1       1.709   0.890   1.063  1.00  0.00     0.158 A 
HETATM    6  C10 UNK     1       1.656   1.114  -1.689  1.00  0.00     0.049 A 
HETATM    7  C11 UNK     1       2.721   1.605  -0.932  1.00  0.00     0.089 A 
HETATM    8  C12 UNK     1       1.664   1.246  -3.080  1.00  0.00     0.018 A 
HETATM    9  C13 UNK     1       3.798   2.229  -1.561  1.00  0.00     0.038 A 
HETATM   10  C14 UNK     1       2.742   1.871  -3.707  1.00  0.00     0.001 A 
HETATM   11  C15 UNK     1       3.807   2.361  -2.950  1.00  0.00     0.003 A 
ENDROOT
BRANCH   3  12
HETATM   12  C6  UNK     1      -0.491  -0.284   1.223  1.00  0.00     0.300 C 
HETATM   13  O1  UNK     1      -1.688   0.456   0.972  1.00  0.00    -0.356 OA
HETATM   14  C2  UNK     1      -2.799  -0.123   1.659  1.00  0.00     0.184 C 
HETATM   15  C1  UNK     1      -2.982  -1.598   1.256  1.00  0.00     0.020 C 
HETATM   16  C3  UNK     1      -1.638  -2.326   1.454  1.00  0.00     0.184 C 
HETATM   17  C5  UNK     1      -3.399  -1.680  -0.225  1.00  0.00     0.022 C 
HETATM   18  O2  UNK     1      -0.585  -1.638   0.777  1.00  0.00    -0.356 OA
BRANCH  15  19
HETATM   19  C4  UNK     1      -4.066  -2.250   2.123  1.00  0.00     0.177 C 
BRANCH  19  20
HETATM   20  O3  UNK     1      -5.273  -1.540   1.931  1.00  0.00    -0.400 OA
HETATM   21  H11 UNK     1      -5.948  -1.965   2.486  1.00  0.00     0.209 HD
ENDBRANCH  19  20
ENDBRANCH  15  19
ENDBRANCH   3  12
TORSDOF 3
