REMARK  1 active torsions:
REMARK  status: ('A' for Active; 'I' for Inactive)
REMARK    1  A    between atoms: C2_7  and  C4_9 
ROOT
HETATM    1 Br1  UNK     1       6.242   2.728  -0.992  1.00  0.00    -0.051 Br
HETATM    2  O1  UNK     1       0.723   1.047  -2.865  1.00  0.00    -0.274 OA
HETATM    3  O2  UNK     1      -1.363   0.231  -2.428  1.00  0.00    -0.259 OA
HETATM    4  C4  UNK     1       0.121   0.409  -0.574  1.00  0.00     0.086 A 
HETATM    5  C5  UNK     1       2.328   1.305  -1.060  1.00  0.00     0.000 A 
HETATM    6  C7  UNK     1       1.337   0.771  -0.139  1.00  0.00     0.035 A 
HETATM    7  C10 UNK     1       1.998   1.428  -2.404  1.00  0.00     0.089 A 
HETATM    8  C11 UNK     1      -0.252   0.542  -2.008  1.00  0.00     0.302 A 
HETATM    9  C13 UNK     1       3.602   1.695  -0.640  1.00  0.00     0.033 A 
HETATM   10  C14 UNK     1       2.901   1.930  -3.339  1.00  0.00     0.039 A 
HETATM   11  C16 UNK     1       4.519   2.200  -1.565  1.00  0.00     0.011 A 
HETATM   12  C17 UNK     1       4.169   2.317  -2.912  1.00  0.00     0.022 A 
ENDROOT
BRANCH   4  13
HETATM   13  C2  UNK     1      -0.827  -0.119   0.358  1.00  0.00     0.145 A 
HETATM   14  N1  UNK     1      -1.739  -1.020  -0.118  1.00  0.00    -0.338 N 
HETATM   15  C1  UNK     1      -2.543  -1.394   0.928  1.00  0.00     0.063 A 
HETATM   16  H1  UNK     1      -1.813  -1.369  -1.065  1.00  0.00     0.167 HD
HETATM   17  C3  UNK     1      -2.055  -0.673   2.015  1.00  0.00     0.086 A 
HETATM   18  C6  UNK     1      -3.622  -2.274   1.015  1.00  0.00     0.038 A 
HETATM   19  N2  UNK     1      -0.989   0.113   1.641  1.00  0.00    -0.228 NA
HETATM   20  C9  UNK     1      -2.668  -0.827   3.270  1.00  0.00     0.034 A 
HETATM   21  C12 UNK     1      -3.753  -1.705   3.380  1.00  0.00     0.009 A 
HETATM   22  C8  UNK     1      -4.220  -2.415   2.271  1.00  0.00    -0.060 A 
HETATM   23  C15 UNK     1      -5.380  -3.343   2.429  1.00  0.00     0.048 C 
ENDBRANCH   4  13
TORSDOF 1
