REMARK  5 active torsions:
REMARK  status: ('A' for Active; 'I' for Inactive)
REMARK    1  A    between atoms: C10_14  and  O2_2 
REMARK    2  A    between atoms: C13_17  and  O2_2 
REMARK    3  A    between atoms: C3_7  and  C5_9 
REMARK    4  A    between atoms: C13_17  and  C15_19 
REMARK    5  A    between atoms: C14_18  and  C15_19 
ROOT
HETATM    1  O1  UNK     1      -2.611  -1.533  -0.310  1.00  0.00    -0.274 OA
HETATM    2  O3  UNK     1      -4.661  -2.270  -0.946  1.00  0.00    -0.259 OA
HETATM    3  C1  UNK     1      -3.593  -1.258   2.331  1.00  0.00    -0.037 A 
HETATM    4  C2  UNK     1      -2.195  -0.907   2.004  1.00  0.00     0.005 A 
HETATM    5  C3  UNK     1      -4.418  -1.680   1.350  1.00  0.00     0.024 A 
HETATM    6  C4  UNK     1      -1.752  -1.059   0.694  1.00  0.00     0.092 A 
HETATM    7  C6  UNK     1      -1.271  -0.413   2.939  1.00  0.00     0.017 A 
HETATM    8  C7  UNK     1      -3.933  -1.853  -0.050  1.00  0.00     0.295 A 
HETATM    9  C8  UNK     1      -0.447  -0.751   0.300  1.00  0.00     0.075 A 
HETATM   10  C9  UNK     1      -4.008  -1.131   3.776  1.00  0.00     0.050 C 
HETATM   11  C10 UNK     1       0.453  -0.269   1.244  1.00  0.00     0.072 A 
HETATM   12  C11 UNK     1       0.041  -0.099   2.562  1.00  0.00     0.038 A 
ENDROOT
BRANCH  11  13
HETATM   13  O2  UNK     1       1.727   0.037   0.881  1.00  0.00    -0.344 OA
BRANCH  13  14
HETATM   14  C13 UNK     1       1.933   0.478  -0.461  1.00  0.00     0.259 C 
BRANCH  14  15
HETATM   15  C15 UNK     1       3.120   1.420  -0.522  1.00  0.00     0.183 C 
HETATM   16  O4  UNK     1       3.742   1.740   0.488  1.00  0.00    -0.290 OA
BRANCH  15  17
HETATM   17  C14 UNK     1       3.532   1.969  -1.846  1.00  0.00     0.012 A 
HETATM   18  C17 UNK     1       2.820   1.600  -2.965  1.00  0.00     0.016 A 
HETATM   19  C19 UNK     1       3.205   2.115  -4.203  1.00  0.00     0.007 A 
HETATM   20  C16 UNK     1       4.292   2.985  -4.289  1.00  0.00    -0.062 A 
HETATM   21  C20 UNK     1       4.994   3.340  -3.137  1.00  0.00     0.007 A 
HETATM   22  C21 UNK     1       4.704   3.534  -5.613  1.00  0.00     0.048 C 
HETATM   23  C18 UNK     1       4.609   2.825  -1.899  1.00  0.00     0.016 A 
ENDBRANCH  15  17
ENDBRANCH  14  15
ENDBRANCH  13  14
ENDBRANCH  11  13
BRANCH   5  24
HETATM   24  C5  UNK     1      -5.878  -2.009   1.533  1.00  0.00     0.041 C 
HETATM   25  C12 UNK     1      -6.075  -3.466   1.892  1.00  0.00     0.010 C 
ENDBRANCH   5  24
TORSDOF 5
