REMARK  3 active torsions:
REMARK  status: ('A' for Active; 'I' for Inactive)
REMARK    1  A    between atoms: C10_15  and  O2_2 
REMARK    2  A    between atoms: C2_7  and  N1_5 
REMARK       I    between atoms: C8_13  and  N1_5 
REMARK    3  A    between atoms: C7_12  and  C8_13 
ROOT
HETATM    1  O3  UNK     1       0.183   1.060  -1.807  1.00  0.00    -0.267 OA
HETATM    2  N1  UNK     1       0.928   0.464   0.341  1.00  0.00    -0.323 N 
HETATM    3  C8  UNK     1       1.046   1.025  -0.937  1.00  0.00     0.259 C 
HETATM    4  H4  UNK     1       1.746   0.464   0.944  1.00  0.00     0.169 HD
ENDROOT
BRANCH   2   5
HETATM    5  C2  UNK     1      -0.181  -0.172   0.901  1.00  0.00     0.035 A 
HETATM    6  C4  UNK     1      -1.357  -0.305   0.157  1.00  0.00     0.043 A 
HETATM    7  C1  UNK     1      -2.468  -0.941   0.714  1.00  0.00     0.000 A 
HETATM    8  C3  UNK     1      -2.379  -1.434   2.013  1.00  0.00     0.089 A 
HETATM    9  C9  UNK     1      -3.714  -1.106  -0.014  1.00  0.00     0.020 A 
HETATM   10  O1  UNK     1      -3.479  -2.082   2.611  1.00  0.00    -0.275 OA
HETATM   11  C6  UNK     1      -1.214  -1.309   2.767  1.00  0.00     0.040 A 
HETATM   12  C14 UNK     1      -4.682  -2.252   1.933  1.00  0.00     0.288 A 
HETATM   13  C12 UNK     1      -4.751  -1.721   0.559  1.00  0.00     0.083 A 
HETATM   14  O4  UNK     1      -5.643  -2.814   2.446  1.00  0.00    -0.260 OA
HETATM   15  C5  UNK     1      -0.110  -0.674   2.203  1.00  0.00     0.032 A 
ENDBRANCH   2   5
BRANCH   3  16
HETATM   16  C7  UNK     1       2.374   1.612  -1.255  1.00  0.00     0.065 A 
HETATM   17  C10 UNK     1       2.826   1.620  -2.558  1.00  0.00     0.084 A 
HETATM   18  C13 UNK     1       4.076   2.175  -2.835  1.00  0.00     0.038 A 
HETATM   19  C16 UNK     1       4.846   2.709  -1.803  1.00  0.00     0.003 A 
HETATM   20  C15 UNK     1       4.367   2.689  -0.493  1.00  0.00     0.001 A 
HETATM   21  C11 UNK     1       3.118   2.134  -0.215  1.00  0.00     0.020 A 
BRANCH  17  22
HETATM   22  O2  UNK     1       2.089   1.102  -3.581  1.00  0.00    -0.355 OA
HETATM   23  C17 UNK     1       2.658   1.167  -4.887  1.00  0.00     0.210 C 
ENDBRANCH  17  22
ENDBRANCH   3  16
TORSDOF 3
