REMARK  5 active torsions:
REMARK  status: ('A' for Active; 'I' for Inactive)
REMARK    1  A    between atoms: C5_13  and  N1_6 
REMARK    2  A    between atoms: C6_14  and  N2_7 
REMARK    3  A    between atoms: C17_25  and  N3_8 
REMARK       I    between atoms: C9_17  and  N3_8 
REMARK    4  A    between atoms: C5_13  and  C7_15 
REMARK    5  A    between atoms: C6_14  and  C9_17 
ROOT
HETATM    1  N1  UNK     1       1.430  -0.207  -1.801  1.00  0.00     0.096 N 
HETATM    2  N2  UNK     1      -1.153  -1.305  -1.110  1.00  0.00     0.100 N 
HETATM    3  C1  UNK     1       0.703  -1.086  -2.726  1.00  0.00     0.303 C 
HETATM    4  C2  UNK     1       1.085  -0.528  -0.411  1.00  0.00     0.303 C 
HETATM    5  C3  UNK     1      -0.809  -0.984  -2.500  1.00  0.00     0.303 C 
HETATM    6  C4  UNK     1      -0.427  -0.425  -0.186  1.00  0.00     0.303 C 
ENDROOT
BRANCH   1   7
HETATM    7  C5  UNK     1       2.873  -0.308  -2.015  1.00  0.00     0.312 C 
BRANCH   7   8
HETATM    8  C7  UNK     1       3.606   0.867  -1.468  1.00  0.00    -0.011 A 
HETATM    9  C10 UNK     1       4.059   0.875  -0.206  1.00  0.00     0.092 A 
HETATM   10  C13 UNK     1       4.788   2.013   0.378  1.00  0.00     0.288 A 
HETATM   11  O1  UNK     1       4.997   3.108  -0.446  1.00  0.00    -0.275 OA
HETATM   12  O3  UNK     1       5.188   1.985   1.537  1.00  0.00    -0.260 OA
HETATM   13  C11 UNK     1       4.533   3.129  -1.776  1.00  0.00     0.090 A 
HETATM   14  C8  UNK     1       3.843   2.042  -2.316  1.00  0.00     0.006 A 
HETATM   15  C14 UNK     1       4.800   4.284  -2.513  1.00  0.00     0.045 A 
HETATM   16  C12 UNK     1       3.414   2.141  -3.647  1.00  0.00     0.015 A 
HETATM   17  C16 UNK     1       3.674   3.293  -4.399  1.00  0.00     0.007 A 
HETATM   18  C15 UNK     1       4.366   4.362  -3.833  1.00  0.00    -0.059 A 
HETATM   19  C18 UNK     1       4.640   5.586  -4.639  1.00  0.00     0.048 C 
ENDBRANCH   7   8
ENDBRANCH   1   7
BRANCH   2  20
HETATM   20  C6  UNK     1      -2.595  -1.206  -0.896  1.00  0.00     0.375 C 
BRANCH  20  21
HETATM   21  C9  UNK     1      -2.977  -1.993   0.346  1.00  0.00     0.250 C 
HETATM   22  O2  UNK     1      -2.355  -2.983   0.719  1.00  0.00    -0.271 OA
HETATM   23  N3  UNK     1      -4.092  -1.421   0.956  1.00  0.00    -0.323 N 
HETATM   24  H15 UNK     1      -4.501  -0.597   0.521  1.00  0.00     0.169 HD
BRANCH  23  25
HETATM   25  C17 UNK     1      -4.753  -1.855   2.129  1.00  0.00     0.073 A 
HETATM   26  C19 UNK     1      -5.864  -1.159   2.605  1.00  0.00     0.144 A 
HETATM   27  F1  UNK     1      -6.317  -0.076   1.958  1.00  0.00    -0.204 F 
HETATM   28  C21 UNK     1      -6.514  -1.590   3.762  1.00  0.00     0.063 A 
HETATM   29  C23 UNK     1      -6.052  -2.716   4.443  1.00  0.00     0.014 A 
HETATM   30 Br1  UNK     1      -6.932  -3.300   6.011  1.00  0.00    -0.051 Br
HETATM   31  C22 UNK     1      -4.940  -3.412   3.967  1.00  0.00     0.021 A 
HETATM   32  C20 UNK     1      -4.291  -2.981   2.810  1.00  0.00     0.034 A 
ENDBRANCH  23  25
ENDBRANCH  20  21
ENDBRANCH   2  20
TORSDOF 5
