REMARK  6 active torsions:
REMARK  status: ('A' for Active; 'I' for Inactive)
REMARK    1  A    between atoms: C11_20  and  O2_5 
REMARK    2  A    between atoms: C22_31  and  O2_5 
REMARK    3  A    between atoms: C3_12  and  N1_9 
REMARK       I    between atoms: C9_18  and  N1_9 
REMARK    4  A    between atoms: C1_10  and  C4_13 
REMARK    5  A    between atoms: C11_20  and  C2_11 
REMARK    6  A    between atoms: C6_15  and  C9_18 
ROOT
HETATM    1  S1  UNK     1       0.190   0.334   2.658  1.00  0.00    -0.082 SA
HETATM    2  C1  UNK     1      -1.999  -0.949   2.253  1.00  0.00    -0.000 A 
HETATM    3  C2  UNK     1      -1.500  -0.602   0.964  1.00  0.00     0.085 A 
HETATM    4  C3  UNK     1      -0.334   0.087   1.060  1.00  0.00     0.094 A 
HETATM    5  C5  UNK     1      -1.176  -0.502   3.264  1.00  0.00     0.065 A 
ENDROOT
BRANCH   4   6
HETATM    6  N1  UNK     1       0.492   0.615   0.063  1.00  0.00    -0.316 N 
HETATM    7  C9  UNK     1       1.676   1.310   0.264  1.00  0.00     0.262 C 
HETATM    8  O3  UNK     1       2.227   1.596   1.326  1.00  0.00    -0.267 OA
HETATM    9  H2  UNK     1       0.169   0.437  -0.884  1.00  0.00     0.169 HD
BRANCH   7  10
HETATM   10  C6  UNK     1       2.289   1.724  -1.003  1.00  0.00     0.108 A 
HETATM   11  C14 UNK     1       1.481   2.023  -2.207  1.00  0.00     0.304 A 
HETATM   12  O1  UNK     1       2.178   2.407  -3.349  1.00  0.00    -0.274 OA
HETATM   13  O5  UNK     1       0.257   1.939  -2.203  1.00  0.00    -0.259 OA
HETATM   14  C10 UNK     1       3.583   2.507  -3.364  1.00  0.00     0.089 A 
HETATM   15  C7  UNK     1       4.324   2.222  -2.221  1.00  0.00     0.000 A 
HETATM   16  C16 UNK     1       4.191   2.900  -4.554  1.00  0.00     0.039 A 
HETATM   17  C15 UNK     1       5.715   2.333  -2.276  1.00  0.00     0.033 A 
HETATM   18  C8  UNK     1       3.624   1.818  -1.011  1.00  0.00     0.037 A 
HETATM   19  C19 UNK     1       6.340   2.725  -3.463  1.00  0.00     0.011 A 
HETATM   20 Br1  UNK     1       8.224   2.875  -3.530  1.00  0.00    -0.051 Br
HETATM   21  C21 UNK     1       5.579   3.008  -4.600  1.00  0.00     0.022 A 
ENDBRANCH   7  10
ENDBRANCH   4   6
BRANCH   3  22
HETATM   22  C11 UNK     1      -2.129  -0.924  -0.293  1.00  0.00     0.297 C 
HETATM   23  O4  UNK     1      -1.667  -0.605  -1.398  1.00  0.00    -0.259 OA
BRANCH  22  24
HETATM   24  O2  UNK     1      -3.307  -1.627  -0.164  1.00  0.00    -0.318 OA
BRANCH  24  25
HETATM   25  C22 UNK     1      -3.985  -1.980  -1.376  1.00  0.00     0.174 C 
HETATM   26  C23 UNK     1      -5.247  -2.741  -1.031  1.00  0.00     0.034 C 
ENDBRANCH  24  25
ENDBRANCH  22  24
ENDBRANCH   3  22
BRANCH   2  27
HETATM   27  C4  UNK     1      -3.203  -1.675   2.565  1.00  0.00    -0.024 A 
HETATM   28  C12 UNK     1      -4.398  -0.987   2.757  1.00  0.00     0.014 A 
HETATM   29  C17 UNK     1      -5.564  -1.690   3.060  1.00  0.00     0.024 A 
HETATM   30  C20 UNK     1      -5.531  -3.080   3.171  1.00  0.00     0.034 A 
HETATM   31  C18 UNK     1      -4.332  -3.767   2.979  1.00  0.00     0.024 A 
HETATM   32 Cl1  UNK     1      -6.969  -3.947   3.545  1.00  0.00    -0.084 Cl
HETATM   33  C13 UNK     1      -3.166  -3.063   2.676  1.00  0.00     0.014 A 
ENDBRANCH   2  27
TORSDOF 6
