REMARK  5 active torsions:
REMARK  status: ('A' for Active; 'I' for Inactive)
REMARK    1  A    between atoms: C5_10  and  O2_2 
REMARK    2  A    between atoms: C14_19  and  O4_4 
REMARK    3  A    between atoms: C3_8  and  N1_5 
REMARK    4  A    between atoms: C1_6  and  C3_8 
REMARK    5  A    between atoms: C10_15  and  C6_11 
ROOT
HETATM    1  O1  UNK     1       0.939   1.084   0.368  1.00  0.00    -0.320 OA
HETATM    2  O3  UNK     1      -1.609  -1.457  -1.557  1.00  0.00    -0.286 OA
HETATM    3  C1  UNK     1       2.047   1.601  -1.652  1.00  0.00     0.038 A 
HETATM    4  C2  UNK     1       1.050   0.890  -0.985  1.00  0.00     0.100 A 
HETATM    5  C4  UNK     1       0.215   0.026  -1.693  1.00  0.00     0.050 A 
HETATM    6  C5  UNK     1       2.208   1.445  -3.029  1.00  0.00     0.076 A 
HETATM    7  C6  UNK     1      -0.909  -0.487   0.502  1.00  0.00     0.050 A 
HETATM    8  C7  UNK     1      -0.836  -0.712  -0.968  1.00  0.00     0.198 A 
HETATM    9  C8  UNK     1       0.373  -0.132  -3.073  1.00  0.00     0.021 A 
HETATM   10  C9  UNK     1       1.373   0.580  -3.738  1.00  0.00     0.038 A 
HETATM   11  C11 UNK     1      -0.030   0.375   1.036  1.00  0.00     0.159 A 
ENDROOT
BRANCH   7  12
HETATM   12  C10 UNK     1      -1.885  -1.190   1.350  1.00  0.00     0.013 A 
HETATM   13  C14 UNK     1      -3.145  -0.644   1.610  1.00  0.00     0.079 A 
HETATM   14  C16 UNK     1      -4.054  -1.329   2.417  1.00  0.00     0.037 A 
HETATM   15  C18 UNK     1      -3.705  -2.563   2.968  1.00  0.00     0.003 A 
HETATM   16  C17 UNK     1      -2.449  -3.111   2.711  1.00  0.00     0.001 A 
HETATM   17  C15 UNK     1      -1.541  -2.426   1.904  1.00  0.00     0.015 A 
BRANCH  13  18
HETATM   18  O4  UNK     1      -3.511   0.560   1.085  1.00  0.00    -0.355 OA
HETATM   19  C19 UNK     1      -4.151   0.542  -0.189  1.00  0.00     0.210 C 
ENDBRANCH  13  18
ENDBRANCH   7  12
BRANCH   3  20
HETATM   20  C3  UNK     1       2.947   2.530  -0.901  1.00  0.00     0.315 C 
BRANCH  20  21
HETATM   21  N1  UNK     1       3.438   1.938   0.343  1.00  0.00     0.084 N 
HETATM   22  C12 UNK     1       4.312   2.877   1.045  1.00  0.00     0.309 C 
HETATM   23  C13 UNK     1       4.146   0.688   0.071  1.00  0.00     0.309 C 
ENDBRANCH  20  21
ENDBRANCH   3  20
BRANCH   6  24
HETATM   24  O2  UNK     1       3.176   2.129  -3.701  1.00  0.00    -0.360 OA
HETATM   25  H14 UNK     1       3.136   1.893  -4.644  1.00  0.00     0.217 HD
ENDBRANCH   6  24
TORSDOF 5
