REMARK  7 active torsions:
REMARK  status: ('A' for Active; 'I' for Inactive)
REMARK    1  A    between atoms: C20_27  and  O3_3 
REMARK    2  A    between atoms: C23_30  and  O3_3 
REMARK    3  A    between atoms: C21_28  and  O4_4 
REMARK    4  A    between atoms: C15_22  and  N1_6 
REMARK    5  A    between atoms: C1_8  and  C4_11 
REMARK    6  A    between atoms: C2_9  and  C5_12 
REMARK    7  A    between atoms: C13_20  and  C20_27 
ROOT
HETATM    1  O1  UNK     1       2.529  -0.467  -2.629  1.00  0.00    -0.291 OA
HETATM    2  O2  UNK     1       2.426   3.713  -2.775  1.00  0.00    -0.274 OA
HETATM    3  O5  UNK     1       3.156   3.810  -0.618  1.00  0.00    -0.259 OA
HETATM    4  N2  UNK     1       4.441  -1.872   1.563  1.00  0.00    -0.191 NA
HETATM    5  C1  UNK     1       3.188   0.958  -0.225  1.00  0.00     0.109 C 
HETATM    6  C3  UNK     1       2.810   1.640  -1.527  1.00  0.00     0.066 A 
HETATM    7  C6  UNK     1       2.502   0.916  -2.613  1.00  0.00     0.104 A 
HETATM    8  C7  UNK     1       3.393  -0.544  -0.400  1.00  0.00     0.086 C 
HETATM    9  C12 UNK     1       2.107   1.560  -3.863  1.00  0.00     0.033 A 
HETATM   10  C15 UNK     1       3.058  -1.173  -1.550  1.00  0.00     0.159 C 
HETATM   11  C16 UNK     1       2.820   3.125  -1.578  1.00  0.00     0.298 A 
HETATM   12  C17 UNK     1       2.075   2.951  -3.906  1.00  0.00     0.092 A 
HETATM   13  C26 UNK     1       1.755   0.856  -5.021  1.00  0.00     0.017 A 
HETATM   14  C27 UNK     1       1.706   3.650  -5.055  1.00  0.00     0.038 A 
HETATM   15  C28 UNK     1       3.972  -1.277   0.684  1.00  0.00     0.100 C 
HETATM   16  C29 UNK     1       1.383   1.542  -6.182  1.00  0.00     0.001 A 
HETATM   17  C30 UNK     1       1.358   2.937  -6.199  1.00  0.00     0.003 A 
ENDROOT
BRANCH   5  18
HETATM   18  C4  UNK     1       2.147   1.217   0.826  1.00  0.00    -0.043 A 
HETATM   19  C11 UNK     1       0.846   0.770   0.630  1.00  0.00     0.020 A 
HETATM   20  C13 UNK     1      -0.121   1.012   1.606  1.00  0.00    -0.000 A 
HETATM   21  C21 UNK     1       0.221   1.699   2.771  1.00  0.00     0.076 A 
HETATM   22  C22 UNK     1       1.530   2.144   2.960  1.00  0.00     0.038 A 
HETATM   23  C14 UNK     1       2.496   1.902   1.983  1.00  0.00     0.011 A 
BRANCH  20  24
HETATM   24  C20 UNK     1      -1.516   0.527   1.389  1.00  0.00     0.217 C 
BRANCH  24  25
HETATM   25  O3  UNK     1      -1.645  -0.787   1.915  1.00  0.00    -0.347 OA
BRANCH  25  26
HETATM   26  C23 UNK     1      -2.863  -1.396   1.764  1.00  0.00     0.069 A 
HETATM   27  C24 UNK     1      -3.055  -2.682   2.257  1.00  0.00     0.037 A 
HETATM   28  C18 UNK     1      -4.294  -3.303   2.102  1.00  0.00     0.011 A 
HETATM   29  C5  UNK     1      -5.334  -2.634   1.456  1.00  0.00    -0.050 A 
HETATM   30  C19 UNK     1      -5.134  -1.344   0.965  1.00  0.00     0.011 A 
HETATM   31  C25 UNK     1      -3.895  -0.723   1.119  1.00  0.00     0.037 A 
BRANCH  29  32
HETATM   32  C2  UNK     1      -6.659  -3.298   1.292  1.00  0.00    -0.024 C 
HETATM   33  C10 UNK     1      -7.747  -2.451   0.551  1.00  0.00     0.019 C 
HETATM   34  C8  UNK     1      -7.286  -3.659   2.674  1.00  0.00     0.019 C 
HETATM   35  C9  UNK     1      -6.533  -4.619   0.472  1.00  0.00     0.019 C 
ENDBRANCH  29  32
ENDBRANCH  25  26
ENDBRANCH  24  25
ENDBRANCH  20  24
BRANCH  21  36
HETATM   36  O4  UNK     1      -0.710   1.943   3.735  1.00  0.00    -0.355 OA
HETATM   37  C31 UNK     1      -0.860   0.959   4.756  1.00  0.00     0.210 C 
ENDBRANCH  21  36
ENDBRANCH   5  18
BRANCH  10  38
HETATM   38  N1  UNK     1       3.195  -2.513  -1.784  1.00  0.00    -0.379 N 
HETATM   39  H22 UNK     1       2.913  -2.883  -2.683  1.00  0.00     0.158 HD
HETATM   40  H23 UNK     1       3.567  -3.131  -1.074  1.00  0.00     0.158 HD
ENDBRANCH  10  38
TORSDOF 7
