REMARK  6 active torsions:
REMARK  status: ('A' for Active; 'I' for Inactive)
REMARK    1  A    between atoms: C8_14  and  O3_3 
REMARK    2  A    between atoms: C9_15  and  O4_4 
REMARK    3  A    between atoms: C10_16  and  O5_5 
REMARK    4  A    between atoms: C13_19  and  C3_9 
REMARK    5  A    between atoms: C15_21  and  C5_11 
REMARK    6  A    between atoms: C13_19  and  C16_22 
ROOT
HETATM    1  C15 UNK     1      -0.606  -2.250  -1.976  1.00  0.00     0.015 C 
HETATM    2  C16 UNK     1      -0.011  -1.661  -3.024  1.00  0.00     0.056 C 
ENDROOT
BRANCH   1   3
HETATM    3  C5  UNK     1      -1.137  -1.532  -0.804  1.00  0.00    -0.031 A 
HETATM    4  C11 UNK     1      -2.142  -0.579  -0.967  1.00  0.00     0.051 A 
HETATM    5  C9  UNK     1      -2.646   0.100   0.142  1.00  0.00     0.105 A 
HETATM    6  C8  UNK     1      -2.145  -0.175   1.415  1.00  0.00     0.135 A 
HETATM    7  C10 UNK     1      -1.140  -1.128   1.578  1.00  0.00     0.105 A 
HETATM    8  C12 UNK     1      -0.636  -1.807   0.468  1.00  0.00     0.051 A 
BRANCH   5   9
HETATM    9  O4  UNK     1      -3.627   1.029  -0.031  1.00  0.00    -0.353 OA
HETATM   10  C18 UNK     1      -3.212   2.374  -0.265  1.00  0.00     0.210 C 
ENDBRANCH   5   9
BRANCH   6  11
HETATM   11  O3  UNK     1      -2.638   0.489   2.499  1.00  0.00    -0.351 OA
HETATM   12  C17 UNK     1      -1.713   1.262   3.260  1.00  0.00     0.210 C 
ENDBRANCH   6  11
BRANCH   7  13
HETATM   13  O5  UNK     1      -0.642  -1.405   2.815  1.00  0.00    -0.353 OA
HETATM   14  C19 UNK     1       0.384  -2.393   2.894  1.00  0.00     0.210 C 
ENDBRANCH   7  13
ENDBRANCH   1   3
BRANCH   2  15
HETATM   15  C13 UNK     1       0.155  -0.168  -3.069  1.00  0.00     0.182 C 
HETATM   16  O6  UNK     1      -0.355   0.496  -3.984  1.00  0.00    -0.288 OA
BRANCH  15  17
HETATM   17  C3  UNK     1       0.900   0.482  -2.002  1.00  0.00     0.017 A 
HETATM   18  C4  UNK     1       0.582   1.791  -1.632  1.00  0.00     0.055 A 
HETATM   19  C1  UNK     1       1.316   2.366  -0.615  1.00  0.00     0.105 A 
HETATM   20  O1  UNK     1       1.151   3.624  -0.123  1.00  0.00    -0.323 OA
HETATM   21  C2  UNK     1       2.328   1.685   0.022  1.00  0.00     0.105 A 
HETATM   22  C14 UNK     1       2.172   3.658   0.894  1.00  0.00     0.352 A 
HETATM   23  O2  UNK     1       2.924   2.431   0.991  1.00  0.00    -0.323 OA
HETATM   24  C6  UNK     1       2.662   0.391  -0.324  1.00  0.00     0.040 A 
HETATM   25  C7  UNK     1       1.935  -0.214  -1.352  1.00  0.00     0.018 A 
ENDBRANCH  15  17
ENDBRANCH   2  15
TORSDOF 6
