REMARK  3 active torsions:
REMARK  status: ('A' for Active; 'I' for Inactive)
REMARK    1  A    between atoms: C26_33  and  O4_4 
REMARK    2  A    between atoms: C8_15  and  O4_4 
REMARK    3  A    between atoms: C1_8  and  C4_11 
ROOT
HETATM    1  O1  UNK     1       0.516   1.501  -2.313  1.00  0.00    -0.308 OA
HETATM    2  O2  UNK     1       3.336  -0.278   0.226  1.00  0.00    -0.274 OA
HETATM    3  O5  UNK     1       2.016  -2.126   0.420  1.00  0.00    -0.259 OA
HETATM    4  C1  UNK     1      -0.111  -1.109  -1.202  1.00  0.00     0.105 C 
HETATM    5  C2  UNK     1       1.168  -0.351  -0.919  1.00  0.00     0.066 A 
HETATM    6  C3  UNK     1      -0.896  -0.479  -2.333  1.00  0.00    -0.011 A 
HETATM    7  C5  UNK     1       1.397   0.858  -1.458  1.00  0.00     0.102 A 
HETATM    8  C6  UNK     1      -0.554   0.792  -2.807  1.00  0.00     0.083 A 
HETATM    9  C7  UNK     1       2.625   1.593  -1.156  1.00  0.00     0.033 A 
HETATM   10  C9  UNK     1       2.181  -1.002  -0.045  1.00  0.00     0.298 A 
HETATM   11  C10 UNK     1      -1.984  -1.147  -2.915  1.00  0.00     0.011 A 
HETATM   12  C13 UNK     1       3.562   1.000  -0.316  1.00  0.00     0.092 A 
HETATM   13  C14 UNK     1      -1.291   1.397  -3.827  1.00  0.00     0.038 A 
HETATM   14  C16 UNK     1      -2.718  -0.546  -3.939  1.00  0.00     0.001 A 
HETATM   15  C17 UNK     1       2.910   2.866  -1.667  1.00  0.00     0.017 A 
HETATM   16  C18 UNK     1      -2.374   0.726  -4.391  1.00  0.00     0.003 A 
HETATM   17  C19 UNK     1       4.758   1.632   0.026  1.00  0.00     0.038 A 
HETATM   18  C21 UNK     1       4.105   3.513  -1.335  1.00  0.00     0.001 A 
HETATM   19  C23 UNK     1       5.028   2.896  -0.489  1.00  0.00     0.003 A 
ENDROOT
BRANCH   4  20
HETATM   20  C4  UNK     1      -0.958  -1.213   0.037  1.00  0.00     0.066 A 
HETATM   21  C11 UNK     1      -1.202  -2.613   0.491  1.00  0.00     0.298 A 
HETATM   22  O3  UNK     1      -1.986  -2.789   1.623  1.00  0.00    -0.274 OA
HETATM   23  O6  UNK     1      -0.734  -3.579  -0.104  1.00  0.00    -0.259 OA
HETATM   24  C15 UNK     1      -2.533  -1.704   2.328  1.00  0.00     0.092 A 
HETATM   25  C12 UNK     1      -2.304  -0.398   1.910  1.00  0.00     0.033 A 
HETATM   26  C22 UNK     1      -3.304  -2.002   3.452  1.00  0.00     0.038 A 
HETATM   27  C8  UNK     1      -1.482  -0.176   0.718  1.00  0.00     0.105 A 
HETATM   28  C20 UNK     1      -2.878   0.639   2.658  1.00  0.00     0.017 A 
HETATM   29  C24 UNK     1      -3.655   0.358   3.787  1.00  0.00     0.001 A 
HETATM   30  C25 UNK     1      -3.868  -0.961   4.183  1.00  0.00     0.003 A 
BRANCH  27  31
HETATM   31  O4  UNK     1      -1.307   1.149   0.382  1.00  0.00    -0.277 OA
BRANCH  31  32
HETATM   32  C26 UNK     1      -0.209   1.733   0.963  1.00  0.00     0.260 C 
HETATM   33  O7  UNK     1       0.603   1.208   1.713  1.00  0.00    -0.265 OA
HETATM   34  C27 UNK     1      -0.127   3.166   0.523  1.00  0.00     0.126 C 
ENDBRANCH  31  32
ENDBRANCH  27  31
ENDBRANCH   4  20
TORSDOF 3
