REMARK  4 active torsions:
REMARK  status: ('A' for Active; 'I' for Inactive)
REMARK    1  A    between atoms: C4_11  and  O3_3 
REMARK    2  A    between atoms: C6_13  and  O4_4 
REMARK    3  A    between atoms: C14_21  and  O6_6 
REMARK    4  A    between atoms: C11_18  and  C14_21 
ROOT
HETATM    1  O1  UNK     1      -1.677  -0.737   2.905  1.00  0.00    -0.319 OA
HETATM    2  O2  UNK     1       1.594   1.007  -0.148  1.00  0.00    -0.300 OA
HETATM    3  O5  UNK     1      -0.866   0.164  -3.287  1.00  0.00    -0.287 OA
HETATM    4  C1  UNK     1      -0.529   0.114  -0.932  1.00  0.00     0.085 A 
HETATM    5  C2  UNK     1      -2.103  -0.738   0.687  1.00  0.00     0.037 A 
HETATM    6  C3  UNK     1       0.368   0.431   0.093  1.00  0.00     0.129 A 
HETATM    7  C4  UNK     1      -1.775  -0.473  -0.655  1.00  0.00     0.098 A 
HETATM    8  C5  UNK     1      -1.185  -0.408   1.678  1.00  0.00     0.124 A 
HETATM    9  C6  UNK     1       0.058   0.175   1.433  1.00  0.00     0.138 A 
HETATM   10  C7  UNK     1      -0.149   0.407  -2.326  1.00  0.00     0.190 A 
HETATM   11  C8  UNK     1      -3.217  -1.300   1.365  1.00  0.00     0.042 A 
HETATM   12  C9  UNK     1      -2.908  -1.276   2.705  1.00  0.00     0.143 A 
HETATM   13  C10 UNK     1       1.177   1.024  -2.529  1.00  0.00     0.100 A 
HETATM   14  C11 UNK     1       1.936   1.275  -1.456  1.00  0.00     0.153 A 
ENDROOT
BRANCH  14  15
HETATM   15  C14 UNK     1       3.245   1.889  -1.685  1.00  0.00     0.201 C 
HETATM   16  O7  UNK     1       3.687   2.185  -2.781  1.00  0.00    -0.645 OA
BRANCH  15  17
HETATM   17  O6  UNK     1       3.874   2.071  -0.505  1.00  0.00    -0.771 OA
HETATM   18  H10 UNK     1       4.758   2.482  -0.617  1.00  0.00     0.167 HD
ENDBRANCH  15  17
ENDBRANCH  14  15
BRANCH   9  19
HETATM   19  O4  UNK     1       0.922   0.479   2.443  1.00  0.00    -0.351 OA
HETATM   20  C13 UNK     1       1.854  -0.531   2.823  1.00  0.00     0.210 C 
ENDBRANCH   9  19
BRANCH   7  21
HETATM   21  O3  UNK     1      -2.667  -0.789  -1.640  1.00  0.00    -0.354 OA
HETATM   22  C12 UNK     1      -3.042  -2.159  -1.754  1.00  0.00     0.210 C 
ENDBRANCH   7  21
TORSDOF 4
