REMARK  2 active torsions:
REMARK  status: ('A' for Active; 'I' for Inactive)
REMARK    1  A    between atoms: C4_8  and  N1_4 
REMARK       I    between atoms: C8_12  and  N1_4 
REMARK    2  A    between atoms: C3_7  and  C8_12 
ROOT
HETATM    1  O1  UNK     1       0.684   0.604  -1.198  1.00  0.00    -0.304 OA
HETATM    2  O2  UNK     1       4.179   2.058   0.320  1.00  0.00    -0.287 OA
HETATM    3  C1  UNK     1       2.841   1.655  -1.588  1.00  0.00     0.048 A 
HETATM    4  C2  UNK     1       1.626   1.140  -2.042  1.00  0.00     0.090 A 
HETATM    5  C3  UNK     1       0.968   0.581   0.151  1.00  0.00     0.147 A 
HETATM    6  C5  UNK     1       3.133   1.625  -0.145  1.00  0.00     0.187 A 
HETATM    7  C6  UNK     1       2.090   1.039   0.721  1.00  0.00     0.098 A 
HETATM    8  C7  UNK     1       3.763   2.188  -2.492  1.00  0.00     0.018 A 
HETATM    9  C9  UNK     1       1.326   1.156  -3.404  1.00  0.00     0.038 A 
HETATM   10  C15 UNK     1       3.460   2.203  -3.854  1.00  0.00     0.001 A 
HETATM   11  C16 UNK     1       2.245   1.688  -4.309  1.00  0.00     0.003 A 
ENDROOT
BRANCH   5  12
HETATM   12  C8  UNK     1      -0.049   0.005   1.034  1.00  0.00     0.280 C 
HETATM   13  O3  UNK     1       0.149  -0.043   2.248  1.00  0.00    -0.265 OA
HETATM   14  N1  UNK     1      -1.165  -0.435   0.334  1.00  0.00    -0.321 N 
HETATM   15  H4  UNK     1      -1.163  -0.317  -0.677  1.00  0.00     0.169 HD
BRANCH  14  16
HETATM   16  C4  UNK     1      -2.333  -1.042   0.859  1.00  0.00     0.035 A 
HETATM   17  C11 UNK     1      -2.433  -1.247   2.224  1.00  0.00     0.030 A 
HETATM   18  C13 UNK     1      -3.582  -1.844   2.742  1.00  0.00     0.009 A 
HETATM   19  C10 UNK     1      -4.615  -2.227   1.885  1.00  0.00    -0.062 A 
HETATM   20  C14 UNK     1      -4.497  -2.013   0.512  1.00  0.00     0.009 A 
HETATM   21  C17 UNK     1      -5.844  -2.865   2.438  1.00  0.00     0.048 C 
HETATM   22  C12 UNK     1      -3.348  -1.416  -0.005  1.00  0.00     0.030 A 
ENDBRANCH  14  16
ENDBRANCH   5  12
TORSDOF 2
