REMARK  7 active torsions:
REMARK  status: ('A' for Active; 'I' for Inactive)
REMARK    1  A    between atoms: C20_27  and  O4_4 
REMARK    2  A    between atoms: C5_12  and  N1_5 
REMARK    3  A    between atoms: C6_13  and  N2_6 
REMARK    4  A    between atoms: C18_25  and  N3_7 
REMARK       I    between atoms: C9_16  and  N3_7 
REMARK    5  A    between atoms: C5_12  and  C7_14 
REMARK    6  A    between atoms: C6_13  and  C9_16 
REMARK    7  A    between atoms: C13_20  and  C17_24 
ROOT
HETATM    1  N1  UNK     1       1.895  -0.202  -0.936  1.00  0.00     0.096 N 
HETATM    2  N2  UNK     1       0.047  -1.312   0.991  1.00  0.00     0.100 N 
HETATM    3  C1  UNK     1       0.501  -0.489  -1.294  1.00  0.00     0.303 C 
HETATM    4  C2  UNK     1       2.351  -1.114   0.121  1.00  0.00     0.303 C 
HETATM    5  C3  UNK     1      -0.409  -0.399  -0.064  1.00  0.00     0.303 C 
HETATM    6  C4  UNK     1       1.441  -1.023   1.351  1.00  0.00     0.303 C 
ENDROOT
BRANCH   1   7
HETATM    7  C5  UNK     1       2.762  -0.292  -2.109  1.00  0.00     0.312 C 
BRANCH   7   8
HETATM    8  C7  UNK     1       2.700   0.937  -2.949  1.00  0.00    -0.011 A 
HETATM    9  C10 UNK     1       1.807   1.051  -3.942  1.00  0.00     0.092 A 
HETATM   10  C14 UNK     1       1.708   2.245  -4.799  1.00  0.00     0.288 A 
HETATM   11  O1  UNK     1       2.594   3.277  -4.535  1.00  0.00    -0.275 OA
HETATM   12  O3  UNK     1       0.876   2.314  -5.698  1.00  0.00    -0.260 OA
HETATM   13  C11 UNK     1       3.544   3.186  -3.497  1.00  0.00     0.090 A 
HETATM   14  C8  UNK     1       3.627   2.048  -2.694  1.00  0.00     0.007 A 
HETATM   15  C15 UNK     1       4.386   4.285  -3.323  1.00  0.00     0.039 A 
HETATM   16  C12 UNK     1       4.598   2.035  -1.684  1.00  0.00     0.022 A 
HETATM   17  C13 UNK     1       5.450   3.129  -1.496  1.00  0.00    -0.058 A 
HETATM   18  C16 UNK     1       5.343   4.253  -2.315  1.00  0.00     0.010 A 
BRANCH  17  19
HETATM   19  C17 UNK     1       6.477   3.094  -0.415  1.00  0.00     0.034 C 
HETATM   20  C19 UNK     1       5.949   3.647   0.906  1.00  0.00     0.010 C 
ENDBRANCH  17  19
ENDBRANCH   7   8
ENDBRANCH   1   7
BRANCH   2  21
HETATM   21  C6  UNK     1      -0.820  -1.224   2.164  1.00  0.00     0.375 C 
BRANCH  21  22
HETATM   22  C9  UNK     1      -2.077  -2.044   1.926  1.00  0.00     0.250 C 
HETATM   23  O2  UNK     1      -2.088  -3.045   1.217  1.00  0.00    -0.271 OA
HETATM   24  N3  UNK     1      -3.151  -1.491   2.620  1.00  0.00    -0.323 N 
HETATM   25  H15 UNK     1      -2.977  -0.660   3.180  1.00  0.00     0.169 HD
BRANCH  24  26
HETATM   26  C18 UNK     1      -4.487  -1.957   2.656  1.00  0.00     0.069 A 
HETATM   27  C20 UNK     1      -5.454  -1.287   3.405  1.00  0.00     0.095 A 
HETATM   28  C23 UNK     1      -6.767  -1.758   3.431  1.00  0.00     0.039 A 
HETATM   29  C24 UNK     1      -7.112  -2.900   2.708  1.00  0.00     0.009 A 
HETATM   30  C22 UNK     1      -6.144  -3.571   1.960  1.00  0.00    -0.060 A 
HETATM   31  C21 UNK     1      -4.832  -3.099   1.934  1.00  0.00     0.039 A 
HETATM   32  C25 UNK     1      -6.513  -4.792   1.187  1.00  0.00     0.048 C 
BRANCH  27  33
HETATM   33  O4  UNK     1      -5.138  -0.169   4.118  1.00  0.00    -0.354 OA
HETATM   34  C26 UNK     1      -5.268   1.084   3.449  1.00  0.00     0.210 C 
ENDBRANCH  27  33
ENDBRANCH  24  26
ENDBRANCH  21  22
ENDBRANCH   2  21
TORSDOF 7
