REMARK  2 active torsions:
REMARK  status: ('A' for Active; 'I' for Inactive)
REMARK    1  A    between atoms: C5_10  and  N1_5 
REMARK       I    between atoms: C6_11  and  N1_5 
REMARK    2  A    between atoms: C2_7  and  C6_11 
ROOT
HETATM    1  O2  UNK     1      -1.447   0.370  -1.723  1.00  0.00    -0.267 OA
HETATM    2  N1  UNK     1      -0.884  -0.317   0.458  1.00  0.00    -0.323 N 
HETATM    3  C6  UNK     1      -0.665   0.276  -0.778  1.00  0.00     0.262 C 
HETATM    4  H3  UNK     1      -0.120  -0.330   1.129  1.00  0.00     0.169 HD
ENDROOT
BRANCH   3   5
HETATM    5  C2  UNK     1       0.686   0.836  -0.893  1.00  0.00     0.108 A 
HETATM    6  C10 UNK     1       1.425   1.352   0.282  1.00  0.00     0.304 A 
HETATM    7  O1  UNK     1       2.699   1.860   0.046  1.00  0.00    -0.274 OA
HETATM    8  O3  UNK     1       0.942   1.336   1.409  1.00  0.00    -0.259 OA
HETATM    9  C3  UNK     1       3.263   1.883  -1.244  1.00  0.00     0.089 A 
HETATM   10  C1  UNK     1       2.552   1.393  -2.335  1.00  0.00    -0.001 A 
HETATM   11  C12 UNK     1       4.546   2.409  -1.382  1.00  0.00     0.038 A 
HETATM   12  C4  UNK     1       1.217   0.856  -2.121  1.00  0.00     0.037 A 
HETATM   13  C9  UNK     1       3.144   1.433  -3.600  1.00  0.00     0.014 A 
HETATM   14  C15 UNK     1       4.431   1.958  -3.753  1.00  0.00     0.001 A 
HETATM   15  C16 UNK     1       5.130   2.445  -2.646  1.00  0.00     0.003 A 
ENDBRANCH   3   5
BRANCH   2  16
HETATM   16  C5  UNK     1      -2.064  -0.952   0.915  1.00  0.00     0.035 A 
HETATM   17  C11 UNK     1      -3.163  -1.021   0.075  1.00  0.00     0.031 A 
HETATM   18  C14 UNK     1      -4.325  -1.647   0.524  1.00  0.00     0.022 A 
HETATM   19  C13 UNK     1      -4.372  -2.195   1.806  1.00  0.00     0.017 A 
HETATM   20 Br1  UNK     1      -5.975  -3.036   2.372  1.00  0.00    -0.051 Br
HETATM   21  C7  UNK     1      -3.256  -2.116   2.639  1.00  0.00    -0.043 A 
HETATM   22  C17 UNK     1      -3.259  -2.689   4.020  1.00  0.00     0.049 C 
HETATM   23  C8  UNK     1      -2.093  -1.490   2.190  1.00  0.00     0.037 A 
ENDBRANCH   2  16
TORSDOF 2
