REMARK  4 active torsions:
REMARK  status: ('A' for Active; 'I' for Inactive)
REMARK    1  A    between atoms: C5_9  and  N1_3 
REMARK       I    between atoms: C6_10  and  N2_4 
REMARK    2  A    between atoms: C6_10  and  C7_11 
REMARK    3  A    between atoms: C10_14  and  C7_11 
REMARK    4  A    between atoms: C11_15  and  C15_19 
ROOT
HETATM    1  C7  UNK     1      -1.505   0.231   0.941  1.00  0.00     0.043 C 
HETATM    2  C11 UNK     1      -2.590   0.071   0.163  1.00  0.00     0.031 C 
ENDROOT
BRANCH   1   3
HETATM    3  C10 UNK     1      -0.961  -0.774   1.864  1.00  0.00    -0.021 A 
HETATM    4  C16 UNK     1      -0.009  -1.676   1.409  1.00  0.00     0.012 A 
HETATM    5  C18 UNK     1       0.509  -2.628   2.287  1.00  0.00     0.001 A 
HETATM    6  C22 UNK     1       0.070  -2.669   3.610  1.00  0.00     0.000 A 
HETATM    7  C19 UNK     1      -0.887  -1.757   4.056  1.00  0.00     0.001 A 
HETATM    8  C17 UNK     1      -1.405  -0.805   3.178  1.00  0.00     0.012 A 
ENDBRANCH   1   3
BRANCH   1   9
HETATM    9  C6  UNK     1      -0.840   1.545   0.822  1.00  0.00     0.254 C 
HETATM   10  O1  UNK     1      -1.202   2.448   1.578  1.00  0.00    -0.267 OA
HETATM   11  N2  UNK     1       0.164   1.666  -0.136  1.00  0.00    -0.345 N 
HETATM   12  C3  UNK     1       0.858   2.943  -0.283  1.00  0.00     0.146 C 
HETATM   13  C4  UNK     1       0.595   0.590  -1.036  1.00  0.00     0.146 C 
HETATM   14  C1  UNK     1       2.335   2.747  -0.618  1.00  0.00     0.143 C 
HETATM   15  N1  UNK     1       2.488   1.950  -1.839  1.00  0.00    -0.378 N 
HETATM   16  C2  UNK     1       1.371   1.098  -2.252  1.00  0.00     0.143 C 
BRANCH  15  17
HETATM   17  C5  UNK     1       3.642   2.056  -2.613  1.00  0.00     0.030 A 
HETATM   18  C8  UNK     1       4.892   2.375  -2.032  1.00  0.00     0.029 A 
HETATM   19  C12 UNK     1       6.047   2.480  -2.806  1.00  0.00     0.002 A 
HETATM   20  C14 UNK     1       5.986   2.267  -4.183  1.00  0.00     0.000 A 
HETATM   21  C13 UNK     1       4.768   1.951  -4.786  1.00  0.00     0.002 A 
HETATM   22  C9  UNK     1       3.613   1.847  -4.012  1.00  0.00     0.029 A 
ENDBRANCH  15  17
ENDBRANCH   1   9
BRANCH   2  23
HETATM   23  C15 UNK     1      -3.409  -1.146   0.070  1.00  0.00    -0.013 A 
HETATM   24  C20 UNK     1      -4.499  -1.360   0.904  1.00  0.00     0.044 A 
HETATM   25 Cl1  UNK     1      -4.977  -0.219   2.112  1.00  0.00    -0.083 Cl
HETATM   26  C23 UNK     1      -5.245  -2.532   0.775  1.00  0.00     0.024 A 
HETATM   27  C25 UNK     1      -4.895  -3.479  -0.187  1.00  0.00     0.002 A 
HETATM   28  C24 UNK     1      -3.799  -3.255  -1.021  1.00  0.00     0.001 A 
HETATM   29  C21 UNK     1      -3.053  -2.083  -0.891  1.00  0.00     0.013 A 
ENDBRANCH   2  23
TORSDOF 4
