REMARK  5 active torsions:
REMARK  status: ('A' for Active; 'I' for Inactive)
REMARK    1  A    between atoms: C16_24  and  O2_4 
REMARK       I    between atoms: C12_20  and  N1_8 
REMARK    2  A    between atoms: C4_12  and  N1_8 
REMARK    3  A    between atoms: C1_9  and  C3_11 
REMARK    4  A    between atoms: C16_24  and  C2_10 
REMARK    5  A    between atoms: C12_20  and  C8_16 
ROOT
HETATM    1  S1  UNK     1      -2.415  -0.274  -1.737  1.00  0.00    -0.082 SA
HETATM    2  C1  UNK     1      -3.188  -1.294   0.491  1.00  0.00    -0.000 A 
HETATM    3  C2  UNK     1      -1.879  -0.783   0.724  1.00  0.00     0.085 A 
HETATM    4  C4  UNK     1      -1.368  -0.215  -0.399  1.00  0.00     0.094 A 
HETATM    5  C5  UNK     1      -3.602  -1.084  -0.806  1.00  0.00     0.065 A 
ENDROOT
BRANCH   4   6
HETATM    6  N1  UNK     1      -0.133   0.401  -0.623  1.00  0.00    -0.316 N 
HETATM    7  C12 UNK     1       0.300   0.956  -1.819  1.00  0.00     0.262 C 
HETATM    8  O3  UNK     1      -0.293   1.020  -2.894  1.00  0.00    -0.267 OA
HETATM    9  H4  UNK     1       0.487   0.408   0.181  1.00  0.00     0.169 HD
BRANCH   7  10
HETATM   10  C8  UNK     1       1.651   1.520  -1.703  1.00  0.00     0.108 A 
HETATM   11  C11 UNK     1       2.394   1.507  -2.815  1.00  0.00     0.037 A 
HETATM   12  C9  UNK     1       3.746   2.044  -2.800  1.00  0.00     0.001 A 
HETATM   13  C13 UNK     1       4.248   2.569  -1.614  1.00  0.00     0.089 A 
HETATM   14  C18 UNK     1       4.559   2.049  -3.937  1.00  0.00     0.038 A 
HETATM   15  O1  UNK     1       3.460   2.581  -0.446  1.00  0.00    -0.274 OA
HETATM   16  C19 UNK     1       5.535   3.098  -1.532  1.00  0.00     0.040 A 
HETATM   17  C17 UNK     1       2.164   2.074  -0.430  1.00  0.00     0.304 A 
HETATM   18  O5  UNK     1       1.485   2.089   0.591  1.00  0.00    -0.259 OA
HETATM   19  C22 UNK     1       6.338   3.100  -2.670  1.00  0.00     0.026 A 
HETATM   20  C21 UNK     1       5.851   2.577  -3.870  1.00  0.00     0.035 A 
HETATM   21 Cl1  UNK     1       6.849   2.583  -5.274  1.00  0.00    -0.084 Cl
ENDBRANCH   7  10
ENDBRANCH   4   6
BRANCH   3  22
HETATM   22  C16 UNK     1      -1.164  -0.845   1.975  1.00  0.00     0.296 C 
HETATM   23  O4  UNK     1      -1.620  -1.360   3.006  1.00  0.00    -0.259 OA
BRANCH  22  24
HETATM   24  O2  UNK     1       0.090  -0.274   1.931  1.00  0.00    -0.322 OA
HETATM   25  C23 UNK     1       0.855  -0.301   3.141  1.00  0.00     0.213 C 
ENDBRANCH  22  24
ENDBRANCH   3  22
BRANCH   2  26
HETATM   26  C3  UNK     1      -4.052  -1.962   1.429  1.00  0.00    -0.024 A 
HETATM   27  C6  UNK     1      -3.996  -3.347   1.559  1.00  0.00     0.013 A 
HETATM   28  C14 UNK     1      -4.832  -3.994   2.469  1.00  0.00     0.007 A 
HETATM   29  C10 UNK     1      -5.723  -3.254   3.246  1.00  0.00    -0.062 A 
HETATM   30  C15 UNK     1      -5.777  -1.866   3.114  1.00  0.00     0.007 A 
HETATM   31  C20 UNK     1      -6.615  -3.945   4.220  1.00  0.00     0.048 C 
HETATM   32  C7  UNK     1      -4.940  -1.219   2.204  1.00  0.00     0.013 A 
ENDBRANCH   2  26
TORSDOF 5
