REMARK  2 active torsions:
REMARK  status: ('A' for Active; 'I' for Inactive)
REMARK    1  A    between atoms: C13_16  and  N1_3 
REMARK    2  A    between atoms: C1_4  and  C3_6 
ROOT
HETATM    1  O1  UNK     1       2.120   1.062   0.524  1.00  0.00    -0.274 OA
HETATM    2  O2  UNK     1       0.825   0.304   2.242  1.00  0.00    -0.259 OA
HETATM    3  C1  UNK     1      -0.096   0.112   0.056  1.00  0.00     0.051 A 
HETATM    4  C2  UNK     1       1.292   0.957  -1.755  1.00  0.00    -0.001 A 
HETATM    5  C4  UNK     1       0.075   0.339  -1.255  1.00  0.00     0.032 A 
HETATM    6  C5  UNK     1       2.290   1.303  -0.852  1.00  0.00     0.089 A 
HETATM    7  C6  UNK     1       0.961   0.485   1.036  1.00  0.00     0.299 A 
HETATM    8  C9  UNK     1       1.495   1.212  -3.114  1.00  0.00     0.014 A 
HETATM    9  C10 UNK     1       3.481   1.896  -1.265  1.00  0.00     0.038 A 
HETATM   10  C14 UNK     1       2.685   1.806  -3.544  1.00  0.00     0.001 A 
HETATM   11  C15 UNK     1       3.676   2.147  -2.621  1.00  0.00     0.003 A 
ENDROOT
BRANCH   3  12
HETATM   12  C3  UNK     1      -1.342  -0.532   0.513  1.00  0.00    -0.020 A 
HETATM   13  C7  UNK     1      -1.413  -1.922   0.609  1.00  0.00     0.014 A 
HETATM   14  C11 UNK     1      -2.591  -2.531   1.041  1.00  0.00     0.030 A 
HETATM   15  C13 UNK     1      -3.698  -1.751   1.377  1.00  0.00     0.025 A 
HETATM   16  C12 UNK     1      -3.626  -0.361   1.282  1.00  0.00     0.030 A 
HETATM   17  C8  UNK     1      -2.448   0.248   0.850  1.00  0.00     0.014 A 
BRANCH  15  18
HETATM   18  N1  UNK     1      -4.888  -2.367   1.816  1.00  0.00    -0.399 N 
HETATM   19  H10 UNK     1      -5.692  -1.802   2.056  1.00  0.00     0.156 HD
HETATM   20  H11 UNK     1      -4.942  -3.375   1.881  1.00  0.00     0.156 HD
ENDBRANCH  15  18
ENDBRANCH   3  12
TORSDOF 2
