REMARK  8 active torsions:
REMARK  status: ('A' for Active; 'I' for Inactive)
REMARK    1  A    between atoms: C2_6  and  O1_1 
REMARK    2  A    between atoms: C4_8  and  O1_1 
REMARK    3  A    between atoms: C6_10  and  O2_2 
REMARK    4  A    between atoms: C23_27  and  O3_3 
REMARK    5  A    between atoms: C1_5  and  C2_6 
REMARK    6  A    between atoms: C16_20  and  C8_12 
REMARK    7  A    between atoms: C17_21  and  C19_23 
REMARK    8  A    between atoms: C18_22  and  C19_23 
ROOT
HETATM    1  C1  UNK     1      -2.846  -0.089   0.437  1.00  0.00     0.000 A 
HETATM    2  C6  UNK     1      -3.406  -1.063   1.264  1.00  0.00     0.076 A 
HETATM    3  C7  UNK     1      -2.287  -0.450  -0.788  1.00  0.00     0.023 A 
HETATM    4  C8  UNK     1      -2.288  -1.787  -1.188  1.00  0.00    -0.035 A 
HETATM    5  C10 UNK     1      -3.406  -2.400   0.864  1.00  0.00     0.038 A 
HETATM    6  C12 UNK     1      -2.847  -2.762  -0.361  1.00  0.00     0.014 A 
ENDROOT
BRANCH   4   7
HETATM    7  C16 UNK     1      -1.697  -2.169  -2.482  1.00  0.00     0.015 C 
HETATM    8  C17 UNK     1      -0.417  -1.965  -2.824  1.00  0.00     0.056 C 
BRANCH   8   9
HETATM    9  C19 UNK     1       0.535  -1.306  -1.866  1.00  0.00     0.182 C 
HETATM   10  O4  UNK     1       0.766  -1.814  -0.758  1.00  0.00    -0.288 OA
BRANCH   9  11
HETATM   11  C18 UNK     1       1.201  -0.080  -2.279  1.00  0.00     0.014 A 
HETATM   12  C21 UNK     1       0.950   0.459  -3.540  1.00  0.00     0.018 A 
HETATM   13  C24 UNK     1       1.589   1.634  -3.936  1.00  0.00     0.037 A 
HETATM   14  C23 UNK     1       2.480   2.269  -3.071  1.00  0.00     0.068 A 
HETATM   15  C25 UNK     1       2.730   1.730  -1.809  1.00  0.00     0.037 A 
HETATM   16  C22 UNK     1       2.091   0.555  -1.413  1.00  0.00     0.018 A 
BRANCH  14  17
HETATM   17  O3  UNK     1       3.103   3.416  -3.458  1.00  0.00    -0.356 OA
HETATM   18  C26 UNK     1       4.001   4.013  -2.523  1.00  0.00     0.210 C 
ENDBRANCH  14  17
ENDBRANCH   9  11
ENDBRANCH   8   9
ENDBRANCH   4   7
BRANCH   1  19
HETATM   19  C2  UNK     1      -2.836   1.347   0.849  1.00  0.00     0.217 C 
BRANCH  19  20
HETATM   20  O1  UNK     1      -2.116   1.482   2.068  1.00  0.00    -0.346 OA
BRANCH  20  21
HETATM   21  C4  UNK     1      -0.776   1.751   1.966  1.00  0.00     0.075 A 
HETATM   22  C3  UNK     1       0.171   0.879   2.504  1.00  0.00    -0.023 A 
HETATM   23  C13 UNK     1      -0.277  -0.367   3.199  1.00  0.00     0.052 C 
HETATM   24  C5  UNK     1       1.530   1.170   2.391  1.00  0.00    -0.053 A 
HETATM   25  C11 UNK     1       1.943   2.333   1.741  1.00  0.00     0.007 A 
HETATM   26  C15 UNK     1       2.564   0.252   2.957  1.00  0.00     0.049 C 
HETATM   27  C14 UNK     1       0.996   3.205   1.204  1.00  0.00     0.003 A 
HETATM   28  C9  UNK     1      -0.364   2.914   1.316  1.00  0.00     0.037 A 
ENDBRANCH  20  21
ENDBRANCH  19  20
ENDBRANCH   1  19
BRANCH   2  29
HETATM   29  O2  UNK     1      -3.955  -0.727   2.464  1.00  0.00    -0.355 OA
HETATM   30  C20 UNK     1      -4.504  -1.787   3.245  1.00  0.00     0.210 C 
ENDBRANCH   2  29
TORSDOF 8
