REMARK  3 active torsions:
REMARK  status: ('A' for Active; 'I' for Inactive)
REMARK    1  A    between atoms: C11_19  and  O2_7 
REMARK    2  A    between atoms: C13_21  and  O2_7 
REMARK    3  A    between atoms: C13_21  and  C14_22 
ROOT
HETATM    1  O1  UNK     1       1.675   1.473  -3.069  1.00  0.00    -0.274 OA
HETATM    2  O3  UNK     1       2.670   2.295  -4.967  1.00  0.00    -0.259 OA
HETATM    3  C1  UNK     1       5.324   2.490  -1.096  1.00  0.00     0.040 C 
HETATM    4  C2  UNK     1       4.006   2.089  -1.663  1.00  0.00    -0.033 A 
HETATM    5  C3  UNK     1       5.914   3.351  -2.219  1.00  0.00     0.009 C 
HETATM    6  C4  UNK     1       5.170   2.966  -3.502  1.00  0.00     0.046 C 
HETATM    7  C5  UNK     1       3.925   2.351  -2.969  1.00  0.00     0.025 A 
HETATM    8  C6  UNK     1       2.903   1.476  -0.952  1.00  0.00     0.005 A 
HETATM    9  C7  UNK     1       1.750   1.182  -1.684  1.00  0.00     0.092 A 
HETATM   10  C8  UNK     1       2.734   2.053  -3.769  1.00  0.00     0.295 A 
HETATM   11  C9  UNK     1       2.928   1.164   0.409  1.00  0.00     0.017 A 
HETATM   12  C10 UNK     1       0.633   0.593  -1.094  1.00  0.00     0.075 A 
HETATM   13  C11 UNK     1       0.670   0.288   0.264  1.00  0.00     0.071 A 
HETATM   14  C12 UNK     1       1.814   0.573   1.013  1.00  0.00     0.038 A 
ENDROOT
BRANCH  13  15
HETATM   15  O2  UNK     1      -0.408  -0.287   0.863  1.00  0.00    -0.346 OA
BRANCH  15  16
HETATM   16  C13 UNK     1      -1.543  -0.551   0.040  1.00  0.00     0.221 C 
BRANCH  16  17
HETATM   17  C14 UNK     1      -2.630  -1.152   0.882  1.00  0.00     0.050 A 
HETATM   18  C15 UNK     1      -3.556  -0.324   1.506  1.00  0.00     0.169 A 
HETATM   19  F1  UNK     1      -3.491   1.007   1.363  1.00  0.00    -0.202 F 
HETATM   20  C18 UNK     1      -4.566  -0.883   2.289  1.00  0.00     0.197 A 
HETATM   21  F4  UNK     1      -5.463  -0.090   2.891  1.00  0.00    -0.199 F 
HETATM   22  C19 UNK     1      -4.644  -2.267   2.443  1.00  0.00     0.199 A 
HETATM   23  C17 UNK     1      -3.711  -3.092   1.814  1.00  0.00     0.197 A 
HETATM   24  F5  UNK     1      -5.614  -2.803   3.195  1.00  0.00    -0.199 F 
HETATM   25  C16 UNK     1      -2.701  -2.533   1.032  1.00  0.00     0.169 A 
HETATM   26  F3  UNK     1      -3.785  -4.421   1.963  1.00  0.00    -0.199 F 
HETATM   27  F2  UNK     1      -1.809  -3.334   0.432  1.00  0.00    -0.202 F 
ENDBRANCH  16  17
ENDBRANCH  15  16
ENDBRANCH  13  15
TORSDOF 3
