REMARK  1 active torsions:
REMARK  status: ('A' for Active; 'I' for Inactive)
REMARK    1  A    between atoms: C1_3  and  C5_7 
ROOT
HETATM    1  O1  UNK     1       1.820   0.904   0.923  1.00  0.00    -0.321 OA
HETATM    2  O2  UNK     1      -0.959  -0.009  -1.922  1.00  0.00    -0.286 OA
HETATM    3  C1  UNK     1      -0.352  -0.038   0.381  1.00  0.00     0.048 A 
HETATM    4  C2  UNK     1       1.168   0.862  -1.415  1.00  0.00     0.049 A 
HETATM    5  C3  UNK     1      -0.123   0.243  -1.064  1.00  0.00     0.197 A 
HETATM    6  C4  UNK     1       2.075   1.162  -0.399  1.00  0.00     0.089 A 
HETATM    7  C6  UNK     1       0.622   0.309   1.236  1.00  0.00     0.159 A 
HETATM    8  C7  UNK     1       1.483   1.148  -2.746  1.00  0.00     0.018 A 
HETATM    9  C8  UNK     1       3.302   1.751  -0.709  1.00  0.00     0.038 A 
HETATM   10  C11 UNK     1       2.710   1.736  -3.053  1.00  0.00     0.001 A 
HETATM   11  C12 UNK     1       3.618   2.037  -2.037  1.00  0.00     0.003 A 
ENDROOT
BRANCH   3  12
HETATM   12  C5  UNK     1      -1.582  -0.688   0.862  1.00  0.00    -0.020 A 
HETATM   13  C10 UNK     1      -1.653  -2.080   0.944  1.00  0.00     0.012 A 
HETATM   14  C14 UNK     1      -2.819  -2.696   1.400  1.00  0.00     0.001 A 
HETATM   15  C15 UNK     1      -3.916  -1.921   1.776  1.00  0.00     0.000 A 
HETATM   16  C13 UNK     1      -3.848  -0.530   1.695  1.00  0.00     0.001 A 
HETATM   17  C9  UNK     1      -2.682   0.086   1.239  1.00  0.00     0.012 A 
ENDBRANCH   3  12
TORSDOF 1
