REMARK  5 active torsions:
REMARK  status: ('A' for Active; 'I' for Inactive)
REMARK    1  A    between atoms: C11_18  and  O3_4 
REMARK    2  A    between atoms: C19_26  and  O3_4 
REMARK    3  A    between atoms: C7_14  and  N1_7 
REMARK    4  A    between atoms: C1_8  and  C4_11 
REMARK    5  A    between atoms: C11_18  and  C3_10 
ROOT
HETATM    1  O1  UNK     1       1.638   0.471   1.062  1.00  0.00    -0.292 OA
HETATM    2  O2  UNK     1       1.155   1.767  -2.888  1.00  0.00    -0.274 OA
HETATM    3  O4  UNK     1      -1.098   1.460  -2.717  1.00  0.00    -0.259 OA
HETATM    4  C1  UNK     1      -1.016   0.416  -0.034  1.00  0.00     0.111 C 
HETATM    5  C2  UNK     1       0.201   0.886  -0.810  1.00  0.00     0.066 A 
HETATM    6  C3  UNK     1      -0.700   0.213   1.438  1.00  0.00     0.081 C 
HETATM    7  C5  UNK     1       1.417   0.877  -0.243  1.00  0.00     0.104 A 
HETATM    8  C6  UNK     1       2.601   1.297  -0.988  1.00  0.00     0.033 A 
HETATM    9  C7  UNK     1       0.561   0.236   1.920  1.00  0.00     0.155 C 
HETATM   10  C9  UNK     1       0.010   1.385  -2.197  1.00  0.00     0.298 A 
HETATM   11  C10 UNK     1       2.434   1.728  -2.301  1.00  0.00     0.092 A 
HETATM   12  C13 UNK     1       3.896   1.287  -0.457  1.00  0.00     0.017 A 
HETATM   13  C16 UNK     1       3.508   2.143  -3.088  1.00  0.00     0.038 A 
HETATM   14  C17 UNK     1       4.984   1.700  -1.233  1.00  0.00     0.001 A 
HETATM   15  C18 UNK     1       4.790   2.127  -2.546  1.00  0.00     0.003 A 
ENDROOT
BRANCH   4  16
HETATM   16  C4  UNK     1      -1.627  -0.805  -0.641  1.00  0.00     0.002 A 
HETATM   17  C8  UNK     1      -2.876  -0.952  -1.181  1.00  0.00    -0.047 A 
HETATM   18  C12 UNK     1      -3.087  -2.277  -1.661  1.00  0.00     0.015 A 
HETATM   19  C14 UNK     1      -3.895   0.121  -1.265  1.00  0.00     0.049 C 
HETATM   20  C15 UNK     1      -1.986  -3.080  -1.464  1.00  0.00     0.051 A 
HETATM   21  S1  UNK     1      -0.704  -2.238  -0.703  1.00  0.00    -0.105 SA
ENDBRANCH   4  16
BRANCH   6  22
HETATM   22  C11 UNK     1      -1.852   0.017   2.337  1.00  0.00     0.294 C 
HETATM   23  O5  UNK     1      -2.442   0.935   2.875  1.00  0.00    -0.259 OA
BRANCH  22  24
HETATM   24  O3  UNK     1      -2.099  -1.311   2.429  1.00  0.00    -0.318 OA
BRANCH  24  25
HETATM   25  C19 UNK     1      -3.200  -1.665   3.273  1.00  0.00     0.174 C 
HETATM   26  C20 UNK     1      -3.353  -3.171   3.278  1.00  0.00     0.034 C 
ENDBRANCH  24  25
ENDBRANCH  22  24
ENDBRANCH   6  22
BRANCH   9  27
HETATM   27  N1  UNK     1       0.937   0.048   3.219  1.00  0.00    -0.379 N 
HETATM   28  H10 UNK     1       1.920   0.089   3.456  1.00  0.00     0.158 HD
HETATM   29  H9  UNK     1       0.245  -0.134   3.934  1.00  0.00     0.158 HD
ENDBRANCH   9  27
TORSDOF 5
