REMARK  8 active torsions:
REMARK  status: ('A' for Active; 'I' for Inactive)
REMARK    1  A    between atoms: C1_11  and  O1_1 
REMARK    2  A    between atoms: C9_19  and  O1_1 
REMARK    3  A    between atoms: C11_21  and  O3_3 
REMARK    4  A    between atoms: C14_24  and  O3_3 
REMARK    5  A    between atoms: C5_15  and  N1_9 
REMARK       I    between atoms: C9_19  and  N1_9 
REMARK    6  A    between atoms: C23_33  and  N2_10 
REMARK    7  A    between atoms: C14_24  and  C5_15 
REMARK    8  A    between atoms: C12_22  and  C8_18 
ROOT
HETATM    1  O2  UNK     1      -1.558   1.142   0.553  1.00  0.00    -0.321 OA
HETATM    2  O5  UNK     1      -1.835  -2.926   0.701  1.00  0.00    -0.286 OA
HETATM    3  C6  UNK     1      -0.722  -1.029  -0.139  1.00  0.00     0.049 A 
HETATM    4  C7  UNK     1      -0.682   0.365  -0.161  1.00  0.00     0.091 A 
HETATM    5  C8  UNK     1      -2.664  -0.824   1.452  1.00  0.00     0.048 A 
HETATM    6  C10 UNK     1      -1.746  -1.705   0.678  1.00  0.00     0.197 A 
HETATM    7  C11 UNK     1       1.194   0.287  -1.678  1.00  0.00     0.082 A 
HETATM    8  C13 UNK     1       0.276   1.025  -0.931  1.00  0.00     0.075 A 
HETATM    9  C15 UNK     1       0.196  -1.770  -0.888  1.00  0.00     0.021 A 
HETATM   10  C17 UNK     1       1.153  -1.108  -1.657  1.00  0.00     0.038 A 
HETATM   11  C18 UNK     1      -2.494   0.501   1.327  1.00  0.00     0.159 A 
ENDROOT
BRANCH   7  12
HETATM   12  O3  UNK     1       2.131   0.928  -2.429  1.00  0.00    -0.277 OA
BRANCH  12  13
HETATM   13  C14 UNK     1       1.731   1.211  -3.746  1.00  0.00     0.286 C 
HETATM   14  O6  UNK     1       0.633   0.925  -4.214  1.00  0.00    -0.263 OA
BRANCH  13  15
HETATM   15  C5  UNK     1       2.808   1.927  -4.549  1.00  0.00     0.183 C 
HETATM   16  C16 UNK     1       3.199   1.098  -5.763  1.00  0.00     0.043 C 
BRANCH  15  17
HETATM   17  N1  UNK     1       3.969   2.223  -3.750  1.00  0.00    -0.323 N 
HETATM   18  C9  UNK     1       4.107   3.365  -2.985  1.00  0.00     0.362 C 
HETATM   19  O4  UNK     1       3.276   4.262  -2.885  1.00  0.00    -0.238 OA
HETATM   20  H11 UNK     1       4.712   1.532  -3.701  1.00  0.00     0.165 HD
BRANCH  18  21
HETATM   21  O1  UNK     1       5.316   3.353  -2.348  1.00  0.00    -0.294 OA
BRANCH  21  22
HETATM   22  C1  UNK     1       5.593   4.484  -1.514  1.00  0.00     0.061 C 
HETATM   23  C2  UNK     1       4.523   4.561  -0.426  1.00  0.00     0.046 C 
HETATM   24  C3  UNK     1       6.973   4.273  -0.896  1.00  0.00     0.046 C 
HETATM   25  C4  UNK     1       5.579   5.742  -2.381  1.00  0.00     0.046 C 
ENDBRANCH  21  22
ENDBRANCH  18  21
ENDBRANCH  15  17
ENDBRANCH  13  15
ENDBRANCH  12  13
ENDBRANCH   7  12
BRANCH   5  26
HETATM   26  C12 UNK     1      -3.706  -1.369   2.337  1.00  0.00    -0.020 A 
HETATM   27  C19 UNK     1      -4.988  -1.615   1.843  1.00  0.00     0.015 A 
HETATM   28  C21 UNK     1      -5.974  -2.135   2.682  1.00  0.00     0.037 A 
HETATM   29  C23 UNK     1      -5.680  -2.410   4.018  1.00  0.00     0.102 A 
HETATM   30  C22 UNK     1      -4.399  -2.165   4.514  1.00  0.00     0.037 A 
HETATM   31  C20 UNK     1      -3.413  -1.646   3.675  1.00  0.00     0.015 A 
BRANCH  29  32
HETATM   32  N2  UNK     1      -6.683  -2.938   4.873  1.00  0.00    -0.116 N 
HETATM   33  O7  UNK     1      -7.828  -3.150   4.407  1.00  0.00    -0.532 OA
HETATM   34  O8  UNK     1      -6.396  -3.178   6.070  1.00  0.00    -0.532 OA
ENDBRANCH  29  32
ENDBRANCH   5  26
TORSDOF 8
