REMARK  7 active torsions:
REMARK  status: ('A' for Active; 'I' for Inactive)
REMARK    1  A    between atoms: C24_32  and  O4_4 
REMARK    2  A    between atoms: C5_13  and  N1_6 
REMARK    3  A    between atoms: C6_14  and  N2_7 
REMARK    4  A    between atoms: C17_25  and  N3_8 
REMARK       I    between atoms: C9_17  and  N3_8 
REMARK    5  A    between atoms: C5_13  and  C7_15 
REMARK    6  A    between atoms: C6_14  and  C9_17 
REMARK    7  A    between atoms: C19_27  and  C24_32 
ROOT
HETATM    1  N1  UNK     1       1.850  -0.176  -1.794  1.00  0.00     0.096 N 
HETATM    2  N2  UNK     1      -0.105  -1.730  -0.338  1.00  0.00     0.100 N 
HETATM    3  C1  UNK     1       0.414   0.115  -1.897  1.00  0.00     0.303 C 
HETATM    4  C2  UNK     1       2.066  -1.600  -1.511  1.00  0.00     0.303 C 
HETATM    5  C3  UNK     1      -0.321  -0.306  -0.620  1.00  0.00     0.303 C 
HETATM    6  C4  UNK     1       1.330  -2.020  -0.233  1.00  0.00     0.303 C 
ENDROOT
BRANCH   2   7
HETATM    7  C6  UNK     1      -0.805  -2.130   0.881  1.00  0.00     0.375 C 
BRANCH   7   8
HETATM    8  C9  UNK     1      -2.274  -2.360   0.568  1.00  0.00     0.250 C 
HETATM    9  O2  UNK     1      -2.663  -2.749  -0.528  1.00  0.00    -0.271 OA
HETATM   10  N3  UNK     1      -3.055  -2.073   1.685  1.00  0.00    -0.325 N 
HETATM   11  H15 UNK     1      -2.568  -1.773   2.525  1.00  0.00     0.169 HD
BRANCH  10  12
HETATM   12  C17 UNK     1      -4.463  -2.161   1.800  1.00  0.00     0.051 A 
HETATM   13  C19 UNK     1      -5.108  -1.840   2.994  1.00  0.00     0.066 A 
HETATM   14  C21 UNK     1      -6.497  -1.936   3.085  1.00  0.00     0.020 A 
HETATM   15  C23 UNK     1      -7.240  -2.353   1.981  1.00  0.00     0.001 A 
HETATM   16  C22 UNK     1      -6.595  -2.675   0.787  1.00  0.00     0.002 A 
HETATM   17  C20 UNK     1      -5.207  -2.579   0.696  1.00  0.00     0.030 A 
BRANCH  13  18
HETATM   18  C24 UNK     1      -4.362  -1.401   4.167  1.00  0.00     0.295 C 
HETATM   19  O5  UNK     1      -3.292  -0.782   4.121  1.00  0.00    -0.259 OA
BRANCH  18  20
HETATM   20  O4  UNK     1      -4.994  -1.758   5.325  1.00  0.00    -0.322 OA
HETATM   21  C25 UNK     1      -4.357  -1.381   6.550  1.00  0.00     0.213 C 
ENDBRANCH  18  20
ENDBRANCH  13  18
ENDBRANCH  10  12
ENDBRANCH   7   8
ENDBRANCH   2   7
BRANCH   1  22
HETATM   22  C5  UNK     1       2.549   0.223  -3.014  1.00  0.00     0.312 C 
BRANCH  22  23
HETATM   23  C7  UNK     1       2.823   1.686  -3.053  1.00  0.00    -0.011 A 
HETATM   24  C10 UNK     1       1.943   2.542  -3.590  1.00  0.00     0.092 A 
HETATM   25  C13 UNK     1       2.171   3.996  -3.651  1.00  0.00     0.288 A 
HETATM   26  O1  UNK     1       3.362   4.463  -3.116  1.00  0.00    -0.275 OA
HETATM   27  O3  UNK     1       1.343   4.749  -4.150  1.00  0.00    -0.260 OA
HETATM   28  C11 UNK     1       4.306   3.587  -2.544  1.00  0.00     0.090 A 
HETATM   29  C14 UNK     1       5.470   4.168  -2.037  1.00  0.00     0.045 A 
HETATM   30  C8  UNK     1       4.077   2.211  -2.494  1.00  0.00     0.006 A 
HETATM   31  C15 UNK     1       6.439   3.353  -1.460  1.00  0.00    -0.059 A 
HETATM   32  C16 UNK     1       6.237   1.976  -1.397  1.00  0.00     0.007 A 
HETATM   33  C18 UNK     1       7.690   3.952  -0.911  1.00  0.00     0.048 C 
HETATM   34  C12 UNK     1       5.065   1.408  -1.909  1.00  0.00     0.015 A 
ENDBRANCH  22  23
ENDBRANCH   1  22
TORSDOF 7
