REMARK  10 active torsions:
REMARK  status: ('A' for Active; 'I' for Inactive)
REMARK    1  A    between atoms: C15_28  and  O3_8 
REMARK       I    between atoms: C4_17  and  N1_11 
REMARK    2  A    between atoms: C5_18  and  N1_11 
REMARK    3  A    between atoms: C6_19  and  N1_11 
REMARK    4  A    between atoms: C19_32  and  N2_12 
REMARK    5  A    between atoms: C7_20  and  N2_12 
REMARK    6  A    between atoms: C13_26  and  N3_13 
REMARK    7  A    between atoms: C19_32  and  N3_13 
REMARK    8  A    between atoms: C1_14  and  C4_17 
REMARK    9  A    between atoms: C15_28  and  C3_16 
REMARK   10  A    between atoms: C14_27  and  C21_34 
ROOT
HETATM    1  N2  UNK     1      -0.133  -0.914   2.694  1.00  0.00    -0.326 N 
HETATM    2  H8  UNK     1       0.008  -0.882   3.701  1.00  0.00     0.169 HD
ENDROOT
BRANCH   1   3
HETATM    3  C19 UNK     1       0.813  -0.266   1.949  1.00  0.00     0.177 C 
HETATM    4  S2  UNK     1       2.286   0.123   2.667  1.00  0.00    -0.040 SA
BRANCH   3   5
HETATM    5  N3  UNK     1       0.582   0.098   0.634  1.00  0.00    -0.333 N 
HETATM    6  H18 UNK     1      -0.408   0.169   0.408  1.00  0.00     0.168 HD
BRANCH   5   7
HETATM    7  C13 UNK     1       1.406   0.755  -0.280  1.00  0.00     0.036 A 
HETATM    8  C16 UNK     1       2.706   0.309  -0.495  1.00  0.00     0.067 A 
HETATM    9  C12 UNK     1       3.513   0.980  -1.415  1.00  0.00     0.092 A 
HETATM   10  O1  UNK     1       4.820   0.482  -1.589  1.00  0.00    -0.275 OA
HETATM   11  C9  UNK     1       3.062   2.089  -2.133  1.00  0.00     0.013 A 
HETATM   12  C22 UNK     1       5.708   1.070  -2.477  1.00  0.00     0.289 A 
HETATM   13  C20 UNK     1       5.217   2.239  -3.226  1.00  0.00     0.099 A 
HETATM   14  O5  UNK     1       6.846   0.644  -2.636  1.00  0.00    -0.260 OA
HETATM   15  C14 UNK     1       3.980   2.734  -3.081  1.00  0.00     0.066 A 
HETATM   16  C17 UNK     1       1.750   2.523  -1.902  1.00  0.00     0.017 A 
HETATM   17  C18 UNK     1       0.929   1.860  -0.983  1.00  0.00     0.030 A 
BRANCH  15  18
HETATM   18  C21 UNK     1       3.526   3.929  -3.868  1.00  0.00     0.418 C 
HETATM   19  F1  UNK     1       2.253   4.249  -3.561  1.00  0.00    -0.166 F 
HETATM   20  F2  UNK     1       4.299   5.000  -3.605  1.00  0.00    -0.166 F 
HETATM   21  F3  UNK     1       3.586   3.687  -5.192  1.00  0.00    -0.166 F 
ENDBRANCH  15  18
ENDBRANCH   5   7
ENDBRANCH   3   5
ENDBRANCH   1   3
BRANCH   1  22
HETATM   22  C7  UNK     1      -1.417  -1.297   2.287  1.00  0.00     0.094 A 
HETATM   23  C3  UNK     1      -2.648  -1.136   2.883  1.00  0.00     0.080 A 
HETATM   24  C2  UNK     1      -3.700  -1.692   2.099  1.00  0.00    -0.020 A 
HETATM   25  C1  UNK     1      -3.232  -2.257   0.933  1.00  0.00     0.082 A 
HETATM   26  C8  UNK     1      -5.131  -1.665   2.493  1.00  0.00     0.051 C 
HETATM   27  S1  UNK     1      -1.532  -2.117   0.788  1.00  0.00    -0.065 SA
BRANCH  23  28
HETATM   28  C15 UNK     1      -2.811  -0.475   4.154  1.00  0.00     0.296 C 
HETATM   29  O4  UNK     1      -3.827   0.157   4.479  1.00  0.00    -0.259 OA
BRANCH  28  30
HETATM   30  O3  UNK     1      -1.726  -0.603   4.994  1.00  0.00    -0.322 OA
HETATM   31  C23 UNK     1      -1.822   0.031   6.275  1.00  0.00     0.213 C 
ENDBRANCH  28  30
ENDBRANCH  23  28
BRANCH  25  32
HETATM   32  C4  UNK     1      -3.958  -2.910  -0.109  1.00  0.00     0.261 C 
HETATM   33  O2  UNK     1      -4.169  -4.142  -0.085  1.00  0.00    -0.267 OA
HETATM   34  N1  UNK     1      -4.447  -2.131  -1.196  1.00  0.00    -0.348 N 
BRANCH  34  35
HETATM   35  C5  UNK     1      -4.273  -0.683  -1.301  1.00  0.00     0.121 C 
HETATM   36  C10 UNK     1      -2.992  -0.329  -2.028  1.00  0.00     0.026 C 
ENDBRANCH  34  35
BRANCH  34  37
HETATM   37  C6  UNK     1      -5.192  -2.752  -2.283  1.00  0.00     0.121 C 
HETATM   38  C11 UNK     1      -6.679  -2.770  -1.998  1.00  0.00     0.026 C 
ENDBRANCH  34  37
ENDBRANCH  25  32
ENDBRANCH   1  22
TORSDOF 10
