REMARK  4 active torsions:
REMARK  status: ('A' for Active; 'I' for Inactive)
REMARK    1  A    between atoms: C1_8  and  O1_2 
REMARK    2  A    between atoms: C1_8  and  C3_10 
REMARK    3  A    between atoms: C3_10  and  C7_14 
REMARK    4  A    between atoms: C7_14  and  C9_16 
ROOT
HETATM    1 Cl1  UNK     1       2.256   3.240  -5.255  1.00  0.00    -0.084 Cl
HETATM    2  O2  UNK     1       2.518  -0.005   1.542  1.00  0.00    -0.269 OA
HETATM    3  N1  UNK     1       3.572   0.020  -0.557  1.00  0.00    -0.324 N 
HETATM    4  C1  UNK     1       1.711   1.456  -0.273  1.00  0.00     0.174 A 
HETATM    5  C2  UNK     1       2.307   1.572  -1.647  1.00  0.00     0.014 A 
HETATM    6  C4  UNK     1       3.394   0.706  -1.754  1.00  0.00     0.044 A 
HETATM    7  C5  UNK     1       2.617   0.399   0.393  1.00  0.00     0.262 A 
HETATM    8  C6  UNK     1       1.938   2.366  -2.718  1.00  0.00     0.036 A 
HETATM    9  C8  UNK     1       4.145   0.592  -2.906  1.00  0.00     0.032 A 
HETATM   10  C10 UNK     1       2.682   2.269  -3.898  1.00  0.00     0.034 A 
HETATM   11  C11 UNK     1       3.776   1.389  -3.991  1.00  0.00     0.026 A 
HETATM   12  H3  UNK     1       4.306  -0.661  -0.405  1.00  0.00     0.169 HD
ENDROOT
BRANCH   4  13
HETATM   13  O1  UNK     1       1.863   2.678   0.423  1.00  0.00    -0.375 OA
HETATM   14  H6  UNK     1       1.627   2.539   1.356  1.00  0.00     0.211 HD
ENDBRANCH   4  13
BRANCH   4  15
HETATM   15  C3  UNK     1       0.255   1.012  -0.279  1.00  0.00     0.137 C 
BRANCH  15  16
HETATM   16  C7  UNK     1      -0.322   0.916   1.117  1.00  0.00     0.169 C 
HETATM   17  O3  UNK     1       0.055   1.604   2.062  1.00  0.00    -0.292 OA
BRANCH  16  18
HETATM   18  C9  UNK     1      -1.397  -0.076   1.313  1.00  0.00     0.086 A 
HETATM   19  C12 UNK     1      -2.169  -0.328   0.249  1.00  0.00     0.035 A 
HETATM   20  C13 UNK     1      -3.256  -1.291   0.344  1.00  0.00    -0.001 A 
HETATM   21  C15 UNK     1      -3.475  -1.942   1.554  1.00  0.00     0.089 A 
HETATM   22  C16 UNK     1      -4.087  -1.586  -0.740  1.00  0.00     0.014 A 
HETATM   23  C17 UNK     1      -4.499  -2.874   1.711  1.00  0.00     0.038 A 
HETATM   24  O4  UNK     1      -2.659  -1.672   2.670  1.00  0.00    -0.274 OA
HETATM   25  C19 UNK     1      -5.323  -3.162   0.625  1.00  0.00     0.003 A 
HETATM   26  C18 UNK     1      -5.118  -2.519  -0.598  1.00  0.00     0.001 A 
HETATM   27  C14 UNK     1      -1.613  -0.756   2.610  1.00  0.00     0.302 A 
HETATM   28  O5  UNK     1      -0.907  -0.527   3.586  1.00  0.00    -0.259 OA
ENDBRANCH  16  18
ENDBRANCH  15  16
ENDBRANCH   4  15
TORSDOF 4
