REMARK  4 active torsions:
REMARK  status: ('A' for Active; 'I' for Inactive)
REMARK       I    between atoms: C7_15  and  N1_6 
REMARK    1  A    between atoms: C10_18  and  N2_7 
REMARK    2  A    between atoms: C10_18  and  N3_8 
REMARK    3  A    between atoms: C11_19  and  N3_8 
REMARK    4  A    between atoms: C1_9  and  C7_15 
ROOT
HETATM    1  S1  UNK     1       1.379   0.814   4.252  1.00  0.00    -0.041 SA
HETATM    2  C10 UNK     1       1.088   0.713   2.603  1.00  0.00     0.174 C 
ENDROOT
BRANCH   2   3
HETATM    3  N2  UNK     1       0.113  -0.104   2.136  1.00  0.00    -0.355 N 
HETATM    4  C5  UNK     1      -0.156  -1.402   2.744  1.00  0.00     0.145 C 
HETATM    5  C2  UNK     1      -1.650  -1.581   2.994  1.00  0.00     0.145 C 
HETATM    6  N1  UNK     1      -2.420  -1.283   1.782  1.00  0.00    -0.347 N 
HETATM    7  C3  UNK     1      -2.156   0.041   1.201  1.00  0.00     0.145 C 
HETATM    8  C7  UNK     1      -3.353  -2.203   1.307  1.00  0.00     0.248 C 
HETATM    9  C6  UNK     1      -0.663   0.228   0.946  1.00  0.00     0.145 C 
HETATM   10  O2  UNK     1      -3.555  -3.309   1.814  1.00  0.00    -0.270 OA
BRANCH   8  11
HETATM   11  C1  UNK     1      -4.142  -1.795   0.102  1.00  0.00     0.213 C 
HETATM   12  O1  UNK     1      -4.982  -2.905  -0.226  1.00  0.00    -0.376 OA
HETATM   13  C9  UNK     1      -6.350  -2.509  -0.058  1.00  0.00     0.168 C 
HETATM   14  C8  UNK     1      -6.334  -1.265   0.801  1.00  0.00     0.029 C 
HETATM   15  C4  UNK     1      -5.044  -0.606   0.374  1.00  0.00     0.043 C 
ENDBRANCH   8  11
ENDBRANCH   2   3
BRANCH   2  16
HETATM   16  N3  UNK     1       1.793   1.503   1.732  1.00  0.00    -0.333 N 
HETATM   17  H16 UNK     1       2.130   2.379   2.126  1.00  0.00     0.168 HD
BRANCH  16  18
HETATM   18  C11 UNK     1       2.156   1.304   0.378  1.00  0.00     0.036 A 
HETATM   19  C12 UNK     1       2.322   2.399  -0.446  1.00  0.00     0.067 A 
HETATM   20  C15 UNK     1       2.681   2.180  -1.778  1.00  0.00     0.092 A 
HETATM   21  C14 UNK     1       2.876   0.900  -2.297  1.00  0.00     0.004 A 
HETATM   22  O3  UNK     1       2.840   3.325  -2.584  1.00  0.00    -0.275 OA
HETATM   23  C16 UNK     1       2.699  -0.187  -1.430  1.00  0.00     0.017 A 
HETATM   24  C17 UNK     1       3.253   0.763  -3.710  1.00  0.00    -0.043 A 
HETATM   25  C13 UNK     1       2.339   0.016  -0.092  1.00  0.00     0.030 A 
HETATM   26  C18 UNK     1       3.397   1.869  -4.453  1.00  0.00     0.090 A 
HETATM   27  C19 UNK     1       3.470  -0.601  -4.298  1.00  0.00     0.049 C 
HETATM   28  C20 UNK     1       3.195   3.227  -3.920  1.00  0.00     0.288 A 
HETATM   29  O4  UNK     1       3.336   4.216  -4.631  1.00  0.00    -0.260 OA
ENDBRANCH  16  18
ENDBRANCH   2  16
TORSDOF 4
