REMARK  4 active torsions:
REMARK  status: ('A' for Active; 'I' for Inactive)
REMARK       I    between atoms: C13_17  and  N1_4 
REMARK    1  A    between atoms: C8_12  and  N1_4 
REMARK    2  A    between atoms: C1_5  and  C2_6 
REMARK    3  A    between atoms: C1_5  and  C3_7 
REMARK    4  A    between atoms: C11_15  and  C13_17 
ROOT
HETATM    1  O2  UNK     1       1.249  -0.634   0.959  1.00  0.00    -0.267 OA
HETATM    2  N1  UNK     1      -0.618  -0.066  -0.359  1.00  0.00    -0.323 N 
HETATM    3  C13 UNK     1       0.725  -0.086  -0.009  1.00  0.00     0.262 C 
HETATM    4  H14 UNK     1      -0.895   0.456  -1.187  1.00  0.00     0.169 HD
ENDROOT
BRANCH   3   5
HETATM    5  C11 UNK     1       1.556   0.661  -0.961  1.00  0.00     0.108 A 
HETATM    6  C14 UNK     1       2.660   1.230  -0.463  1.00  0.00     0.037 A 
HETATM    7  C12 UNK     1       3.548   1.990  -1.329  1.00  0.00    -0.001 A 
HETATM    8  C15 UNK     1       3.229   2.114  -2.677  1.00  0.00     0.089 A 
HETATM    9  C17 UNK     1       4.710   2.601  -0.852  1.00  0.00     0.014 A 
HETATM   10  O1  UNK     1       2.066   1.512  -3.196  1.00  0.00    -0.274 OA
HETATM   11  C18 UNK     1       4.036   2.829  -3.559  1.00  0.00     0.038 A 
HETATM   12  C16 UNK     1       1.197   0.779  -2.392  1.00  0.00     0.304 A 
HETATM   13  O3  UNK     1       0.187   0.259  -2.853  1.00  0.00    -0.259 OA
HETATM   14  C20 UNK     1       5.194   3.436  -3.076  1.00  0.00     0.003 A 
HETATM   15  C19 UNK     1       5.530   3.322  -1.725  1.00  0.00     0.001 A 
ENDBRANCH   3   5
BRANCH   2  16
HETATM   16  C8  UNK     1      -1.698  -0.678   0.324  1.00  0.00     0.035 A 
HETATM   17  C10 UNK     1      -1.447  -1.393   1.482  1.00  0.00     0.030 A 
HETATM   18  C6  UNK     1      -2.511  -1.995   2.155  1.00  0.00     0.010 A 
HETATM   19  C3  UNK     1      -3.808  -1.874   1.658  1.00  0.00    -0.054 A 
HETATM   20  C5  UNK     1      -4.043  -1.150   0.489  1.00  0.00     0.010 A 
HETATM   21  C9  UNK     1      -2.980  -0.547  -0.183  1.00  0.00     0.030 A 
BRANCH  19  22
HETATM   22  C1  UNK     1      -4.945  -2.518   2.377  1.00  0.00     0.014 C 
HETATM   23  C4  UNK     1      -4.800  -4.055   2.399  1.00  0.00     0.015 C 
BRANCH  22  24
HETATM   24  C2  UNK     1      -5.150  -2.004   3.829  1.00  0.00     0.004 C 
HETATM   25  C7  UNK     1      -5.490  -0.519   3.884  1.00  0.00     0.006 C 
ENDBRANCH  22  24
ENDBRANCH  19  22
ENDBRANCH   2  16
TORSDOF 4
