REMARK  3 active torsions:
REMARK  status: ('A' for Active; 'I' for Inactive)
REMARK    1  A    between atoms: C11_17  and  O2_3 
REMARK    2  A    between atoms: C3_9  and  O2_3 
REMARK    3  A    between atoms: C10_16  and  C11_17 
ROOT
HETATM    1 Cl1  UNK     1      -5.365  -2.982   2.215  1.00  0.00    -0.078 Cl
HETATM    2  O1  UNK     1      -3.216  -1.045  -0.533  1.00  0.00    -0.320 OA
HETATM    3  O3  UNK     1      -2.883  -1.844   3.463  1.00  0.00    -0.286 OA
HETATM    4  C1  UNK     1      -1.963  -0.827   1.541  1.00  0.00     0.050 A 
HETATM    5  C2  UNK     1      -2.132  -0.587   0.176  1.00  0.00     0.091 A 
HETATM    6  C3  UNK     1      -0.051   0.637   0.136  1.00  0.00     0.082 A 
HETATM    7  C4  UNK     1      -1.175   0.146  -0.528  1.00  0.00     0.075 A 
HETATM    8  C5  UNK     1      -0.837  -0.336   2.208  1.00  0.00     0.021 A 
HETATM    9  C6  UNK     1       0.117   0.396   1.501  1.00  0.00     0.038 A 
HETATM   10  C7  UNK     1      -2.986  -1.605   2.267  1.00  0.00     0.208 A 
HETATM   11  C8  UNK     1      -4.130  -2.070   1.453  1.00  0.00     0.107 A 
HETATM   12  C9  UNK     1      -4.163  -1.767   0.153  1.00  0.00     0.170 A 
ENDROOT
BRANCH   6  13
HETATM   13  O2  UNK     1       0.883   1.353  -0.547  1.00  0.00    -0.275 OA
BRANCH  13  14
HETATM   14  C11 UNK     1       1.906   0.582  -1.103  1.00  0.00     0.300 C 
HETATM   15  O4  UNK     1       2.004  -0.633  -1.024  1.00  0.00    -0.259 OA
BRANCH  14  16
HETATM   16  C10 UNK     1       2.884   1.431  -1.831  1.00  0.00     0.057 A 
HETATM   17  C12 UNK     1       3.961   0.852  -2.456  1.00  0.00     0.020 A 
HETATM   18  C14 UNK     1       4.860   1.672  -3.129  1.00  0.00     0.020 A 
HETATM   19  C15 UNK     1       4.616   3.036  -3.132  1.00  0.00     0.116 A 
HETATM   20  N1  UNK     1       3.560   3.617  -2.521  1.00  0.00    -0.272 NA
HETATM   21  C13 UNK     1       2.708   2.788  -1.876  1.00  0.00     0.133 A 
ENDBRANCH  14  16
ENDBRANCH  13  14
ENDBRANCH   6  13
TORSDOF 3
