REMARK  6 active torsions:
REMARK  status: ('A' for Active; 'I' for Inactive)
REMARK    1  A    between atoms: C3_8  and  S1_1 
REMARK    2  A    between atoms: C8_13  and  S1_1 
REMARK       I    between atoms: C15_20  and  N3_5 
REMARK    3  A    between atoms: C4_9  and  N3_5 
REMARK    4  A    between atoms: C16_21  and  C6_11 
REMARK    5  A    between atoms: C15_20  and  C8_13 
REMARK    6  A    between atoms: C17_22  and  C18_23 
ROOT
HETATM    1  O1  UNK     1       0.047  -0.304  -2.990  1.00  0.00    -0.272 OA
HETATM    2  N3  UNK     1      -0.032   0.691  -0.864  1.00  0.00    -0.327 N 
HETATM    3  C15 UNK     1       0.446   0.504  -2.156  1.00  0.00     0.231 C 
HETATM    4  H10 UNK     1       0.424   1.398  -0.292  1.00  0.00     0.169 HD
ENDROOT
BRANCH   2   5
HETATM    5  C4  UNK     1      -1.096   0.005  -0.231  1.00  0.00     0.034 A 
HETATM    6  C10 UNK     1      -1.777  -0.980  -0.927  1.00  0.00     0.030 A 
HETATM    7  C12 UNK     1      -2.824  -1.658  -0.303  1.00  0.00     0.013 A 
HETATM    8  C6  UNK     1      -3.175  -1.341   1.010  1.00  0.00    -0.036 A 
HETATM    9  C11 UNK     1      -2.479  -0.347   1.697  1.00  0.00     0.013 A 
HETATM   10  C9  UNK     1      -1.432   0.331   1.073  1.00  0.00     0.030 A 
BRANCH   8  11
HETATM   11  C16 UNK     1      -4.267  -2.048   1.661  1.00  0.00     0.012 C 
HETATM   12  C18 UNK     1      -4.460  -2.122   2.999  1.00  0.00     0.012 C 
BRANCH  12  13
HETATM   13  C17 UNK     1      -5.577  -2.821   3.659  1.00  0.00    -0.036 A 
HETATM   14  C19 UNK     1      -6.724  -3.101   2.934  1.00  0.00     0.011 A 
HETATM   15  C21 UNK     1      -7.782  -3.763   3.559  1.00  0.00     0.001 A 
HETATM   16  C23 UNK     1      -7.677  -4.136   4.899  1.00  0.00     0.000 A 
HETATM   17  C22 UNK     1      -6.515  -3.848   5.614  1.00  0.00     0.001 A 
HETATM   18  C20 UNK     1      -5.458  -3.186   4.990  1.00  0.00     0.011 A 
ENDBRANCH  12  13
ENDBRANCH   8  11
ENDBRANCH   2   5
BRANCH   3  19
HETATM   19  C8  UNK     1       1.599   1.431  -2.473  1.00  0.00     0.185 C 
BRANCH  19  20
HETATM   20  S1  UNK     1       3.155   0.605  -2.025  1.00  0.00    -0.083 SA
BRANCH  20  21
HETATM   21  C3  UNK     1       4.315   1.803  -2.457  1.00  0.00     0.168 A 
HETATM   22  N1  UNK     1       5.650   1.574  -2.275  1.00  0.00    -0.333 N 
HETATM   23  C1  UNK     1       6.328   2.688  -2.702  1.00  0.00     0.063 A 
HETATM   24  H1  UNK     1       6.064   0.734  -1.894  1.00  0.00     0.168 HD
HETATM   25  C2  UNK     1       5.329   3.556  -3.133  1.00  0.00     0.086 A 
HETATM   26  C5  UNK     1       7.687   3.000  -2.747  1.00  0.00     0.032 A 
HETATM   27  N2  UNK     1       4.085   2.990  -2.973  1.00  0.00    -0.223 NA
HETATM   28  C7  UNK     1       5.689   4.816  -3.642  1.00  0.00     0.034 A 
HETATM   29  C14 UNK     1       7.048   5.151  -3.696  1.00  0.00     0.002 A 
HETATM   30  C13 UNK     1       8.027   4.257  -3.256  1.00  0.00     0.002 A 
ENDBRANCH  20  21
ENDBRANCH  19  20
ENDBRANCH   3  19
TORSDOF 6
