REMARK  5 active torsions:
REMARK  status: ('A' for Active; 'I' for Inactive)
REMARK    1  A    between atoms: C8_13  and  N1_4 
REMARK    2  A    between atoms: C11_16  and  N2_5 
REMARK    3  A    between atoms: C8_13  and  N2_5 
REMARK    4  A    between atoms: C1_6  and  C6_11 
REMARK    5  A    between atoms: C6_11  and  C7_12 
ROOT
HETATM    1  S1  UNK     1      -2.209  -0.821  -4.466  1.00  0.00    -0.041 SA
HETATM    2  C8  UNK     1      -1.863  -0.430  -2.871  1.00  0.00     0.174 C 
ENDROOT
BRANCH   2   3
HETATM    3  N1  UNK     1      -0.577  -0.256  -2.480  1.00  0.00    -0.358 N 
HETATM    4  C4  UNK     1       0.512  -1.019  -3.077  1.00  0.00     0.125 C 
HETATM    5  C2  UNK     1       1.638  -0.095  -3.534  1.00  0.00     0.025 C 
HETATM    6  C1  UNK     1       2.093   0.835  -2.397  1.00  0.00    -0.007 C 
HETATM    7  C3  UNK     1       0.890   1.605  -1.826  1.00  0.00     0.025 C 
HETATM    8  C5  UNK     1      -0.224   0.653  -1.397  1.00  0.00     0.125 C 
BRANCH   6   9
HETATM    9  C6  UNK     1       3.173   1.799  -2.883  1.00  0.00     0.043 C 
BRANCH   9  10
HETATM   10  C7  UNK     1       3.986   2.342  -1.740  1.00  0.00    -0.058 A 
HETATM   11  C10 UNK     1       5.128   1.668  -1.330  1.00  0.00     0.007 A 
HETATM   12  C13 UNK     1       5.882   2.173  -0.271  1.00  0.00     0.001 A 
HETATM   13  C14 UNK     1       5.486   3.347   0.370  1.00  0.00     0.000 A 
HETATM   14  C12 UNK     1       4.337   4.016  -0.049  1.00  0.00     0.001 A 
HETATM   15  C9  UNK     1       3.583   3.512  -1.109  1.00  0.00     0.007 A 
ENDBRANCH   9  10
ENDBRANCH   6   9
ENDBRANCH   2   3
BRANCH   2  16
HETATM   16  N2  UNK     1      -2.883  -0.226  -1.979  1.00  0.00    -0.333 N 
HETATM   17  H14 UNK     1      -3.756   0.096  -2.392  1.00  0.00     0.168 HD
BRANCH  16  18
HETATM   18  C11 UNK     1      -2.943  -0.404  -0.575  1.00  0.00     0.036 A 
HETATM   19  C15 UNK     1      -2.146  -1.360   0.021  1.00  0.00     0.067 A 
HETATM   20  C17 UNK     1      -2.220  -1.518   1.406  1.00  0.00     0.092 A 
HETATM   21  O1  UNK     1      -1.389  -2.504   1.974  1.00  0.00    -0.275 OA
HETATM   22  C18 UNK     1      -3.069  -0.746   2.200  1.00  0.00     0.004 A 
HETATM   23  C23 UNK     1      -1.380  -2.747   3.339  1.00  0.00     0.288 A 
HETATM   24  C21 UNK     1      -2.282  -1.925   4.163  1.00  0.00     0.090 A 
HETATM   25  O2  UNK     1      -0.662  -3.603   3.843  1.00  0.00    -0.260 OA
HETATM   26  C20 UNK     1      -3.083  -0.980   3.650  1.00  0.00    -0.043 A 
HETATM   27  C22 UNK     1      -3.985  -0.166   4.531  1.00  0.00     0.049 C 
HETATM   28  C19 UNK     1      -3.864   0.215   1.559  1.00  0.00     0.017 A 
HETATM   29  C16 UNK     1      -3.800   0.385   0.172  1.00  0.00     0.030 A 
ENDBRANCH  16  18
ENDBRANCH   2  16
TORSDOF 5
