REMARK  5 active torsions:
REMARK  status: ('A' for Active; 'I' for Inactive)
REMARK    1  A    between atoms: C1_7  and  N1_5 
REMARK    2  A    between atoms: C2_8  and  N1_5 
REMARK    3  A    between atoms: C7_13  and  N2_6 
REMARK    4  A    between atoms: C1_7  and  C3_9 
REMARK    5  A    between atoms: C3_9  and  C5_11 
ROOT
HETATM    1  O1  UNK     1       3.464   1.448  -1.021  1.00  0.00    -0.273 OA
HETATM    2  O2  UNK     1       3.482   1.505  -3.301  1.00  0.00    -0.257 OA
HETATM    3  C2  UNK     1       0.652   0.898  -1.133  1.00  0.00     0.081 A 
HETATM    4  C4  UNK     1       1.362   1.018   0.167  1.00  0.00     0.027 A 
HETATM    5  C6  UNK     1       2.735   1.286   0.175  1.00  0.00     0.092 A 
HETATM    6  C7  UNK     1       1.412   1.069  -2.229  1.00  0.00     0.205 A 
HETATM    7  C8  UNK     1       0.739   0.880   1.419  1.00  0.00     0.017 A 
HETATM    8  C9  UNK     1       2.853   1.356  -2.260  1.00  0.00     0.324 A 
HETATM    9  C10 UNK     1       3.474   1.412   1.355  1.00  0.00     0.038 A 
HETATM   10  C13 UNK     1       1.466   1.005   2.611  1.00  0.00     0.001 A 
HETATM   11  C14 UNK     1       2.832   1.270   2.579  1.00  0.00     0.003 A 
ENDROOT
BRANCH   3  12
HETATM   12  N1  UNK     1      -0.692   0.628  -1.113  1.00  0.00    -0.387 N 
HETATM   13  H5  UNK     1      -1.220   0.708  -1.972  1.00  0.00     0.159 HD
BRANCH  12  14
HETATM   14  C1  UNK     1      -1.361   0.054   0.022  1.00  0.00     0.124 C 
BRANCH  14  15
HETATM   15  C3  UNK     1      -2.514  -0.845  -0.421  1.00  0.00     0.058 C 
BRANCH  15  16
HETATM   16  C5  UNK     1      -3.223  -1.510   0.733  1.00  0.00    -0.057 A 
HETATM   17  C11 UNK     1      -2.784  -2.746   1.179  1.00  0.00     0.007 A 
HETATM   18  C15 UNK     1      -3.439  -3.361   2.246  1.00  0.00     0.001 A 
HETATM   19  C17 UNK     1      -4.526  -2.731   2.853  1.00  0.00     0.000 A 
HETATM   20  C16 UNK     1      -4.957  -1.487   2.394  1.00  0.00     0.001 A 
HETATM   21  C12 UNK     1      -4.301  -0.872   1.327  1.00  0.00     0.007 A 
ENDBRANCH  15  16
ENDBRANCH  14  15
ENDBRANCH  12  14
ENDBRANCH   3  12
BRANCH   6  22
HETATM   22  N2  UNK     1       0.765   0.962  -3.498  1.00  0.00    -0.107 N 
HETATM   23  O3  UNK     1      -0.447   0.720  -3.492  1.00  0.00    -0.531 OA
HETATM   24  O4  UNK     1       1.470   1.119  -4.501  1.00  0.00    -0.531 OA
ENDBRANCH   6  22
TORSDOF 5
