REMARK  11 active torsions:
REMARK  status: ('A' for Active; 'I' for Inactive)
REMARK    1  A    between atoms: C2_15  and  O2_2 
REMARK    2  A    between atoms: C10_23  and  O3_3 
REMARK    3  A    between atoms: C3_16  and  O3_3 
REMARK    4  A    between atoms: C5_18  and  O4_4 
REMARK    5  A    between atoms: C9_22  and  O4_4 
REMARK    6  A    between atoms: C4_17  and  O5_5 
REMARK    7  A    between atoms: C26_39  and  O11_11 
REMARK       I    between atoms: C10_23  and  N1_12 
REMARK    8  A    between atoms: C18_31  and  N2_13 
REMARK       I    between atoms: C20_33  and  N2_13 
REMARK    9  A    between atoms: C20_33  and  C21_34 
REMARK   10  A    between atoms: C22_35  and  C24_37 
REMARK   11  A    between atoms: C24_37  and  C28_41 
ROOT
HETATM    1  O7  UNK     1      -0.572  -1.728  -1.962  1.00  0.00    -0.272 OA
HETATM    2  O8  UNK     1      -2.388   0.657   0.760  1.00  0.00    -0.285 OA
HETATM    3  O9  UNK     1      -1.915  -3.509  -1.364  1.00  0.00    -0.257 OA
HETATM    4  C9  UNK     1       1.295   1.340  -2.559  1.00  0.00     0.081 A 
HETATM    5  C11 UNK     1       0.849   0.021  -2.650  1.00  0.00     0.006 A 
HETATM    6  C12 UNK     1       0.710   2.212  -1.640  1.00  0.00     0.038 A 
HETATM    7  C13 UNK     1      -0.183  -0.425  -1.822  1.00  0.00     0.102 A 
HETATM    8  C14 UNK     1      -0.760   0.444  -0.911  1.00  0.00     0.051 A 
HETATM    9  C15 UNK     1      -0.320   1.766  -0.813  1.00  0.00     0.021 A 
HETATM   10  C16 UNK     1       1.481  -0.907  -3.638  1.00  0.00     0.054 C 
HETATM   11  C17 UNK     1      -1.837  -0.062  -0.063  1.00  0.00     0.217 A 
HETATM   12  C18 UNK     1      -2.216  -1.485  -0.261  1.00  0.00     0.163 A 
HETATM   13  C19 UNK     1      -1.609  -2.291  -1.176  1.00  0.00     0.319 A 
ENDROOT
BRANCH   4  14
HETATM   14  O4  UNK     1       2.304   1.796  -3.362  1.00  0.00    -0.317 OA
BRANCH  14  15
HETATM   15  C5  UNK     1       3.475   2.281  -2.706  1.00  0.00     0.298 C 
HETATM   16  C4  UNK     1       4.462   2.760  -3.775  1.00  0.00     0.206 C 
HETATM   17  C3  UNK     1       5.773   3.225  -3.143  1.00  0.00     0.199 C 
HETATM   18  C2  UNK     1       6.310   2.164  -2.172  1.00  0.00     0.187 C 
HETATM   19  C1  UNK     1       5.243   1.628  -1.187  1.00  0.00     0.085 C 
HETATM   20  C6  UNK     1       4.902   2.594  -0.040  1.00  0.00     0.048 C 
HETATM   21  C7  UNK     1       5.762   0.328  -0.546  1.00  0.00     0.048 C 
HETATM   22  O1  UNK     1       4.054   1.253  -1.903  1.00  0.00    -0.345 OA
BRANCH  16  23
HETATM   23  O5  UNK     1       4.733   1.699  -4.694  1.00  0.00    -0.388 OA
HETATM   24  H11 UNK     1       5.330   2.049  -5.377  1.00  0.00     0.210 HD
ENDBRANCH  16  23
BRANCH  17  25
HETATM   25  O3  UNK     1       5.562   4.454  -2.454  1.00  0.00    -0.293 OA
BRANCH  25  26
HETATM   26  C10 UNK     1       5.714   5.590  -3.199  1.00  0.00     0.358 C 
HETATM   27  N1  UNK     1       5.486   6.705  -2.431  1.00  0.00    -0.346 N 
HETATM   28  H17 UNK     1       5.240   6.629  -1.449  1.00  0.00     0.161 HD
HETATM   29  H18 UNK     1       5.555   7.639  -2.821  1.00  0.00     0.161 HD
HETATM   30  O6  UNK     1       6.013   5.619  -4.388  1.00  0.00    -0.239 OA
ENDBRANCH  25  26
ENDBRANCH  17  25
BRANCH  18  31
HETATM   31  O2  UNK     1       7.444   2.663  -1.469  1.00  0.00    -0.385 OA
HETATM   32  C8  UNK     1       8.613   2.581  -2.264  1.00  0.00     0.202 C 
ENDBRANCH  18  31
ENDBRANCH  14  15
ENDBRANCH   4  14
BRANCH  12  33
HETATM   33  N2  UNK     1      -3.229  -1.932   0.550  1.00  0.00    -0.315 N 
HETATM   34  C20 UNK     1      -4.504  -1.395   0.533  1.00  0.00     0.256 C 
HETATM   35  O10 UNK     1      -4.885  -0.476  -0.189  1.00  0.00    -0.267 OA
HETATM   36  H22 UNK     1      -3.149  -2.898   0.860  1.00  0.00     0.169 HD
BRANCH  34  37
HETATM   37  C21 UNK     1      -5.474  -2.026   1.466  1.00  0.00     0.033 A 
HETATM   38  C23 UNK     1      -5.019  -2.645   2.631  1.00  0.00     0.027 A 
HETATM   39  C22 UNK     1      -5.929  -3.237   3.506  1.00  0.00    -0.021 A 
HETATM   40  C26 UNK     1      -7.293  -3.212   3.217  1.00  0.00     0.072 A 
HETATM   41  C27 UNK     1      -7.748  -2.593   2.052  1.00  0.00     0.038 A 
HETATM   42  C25 UNK     1      -6.838  -2.000   1.177  1.00  0.00     0.020 A 
BRANCH  39  43
HETATM   43  C24 UNK     1      -5.426  -3.894   4.749  1.00  0.00     0.068 C 
BRANCH  43  44
HETATM   44  C28 UNK     1      -5.352  -2.949   5.923  1.00  0.00    -0.020 C 
HETATM   45  C29 UNK     1      -4.263  -2.578   6.623  1.00  0.00    -0.091 C 
HETATM   46  C30 UNK     1      -2.907  -3.129   6.270  1.00  0.00     0.042 C 
HETATM   47  C31 UNK     1      -4.262  -1.628   7.787  1.00  0.00     0.042 C 
ENDBRANCH  43  44
ENDBRANCH  39  43
BRANCH  40  48
HETATM   48  O11 UNK     1      -8.195  -3.785   4.061  1.00  0.00    -0.360 OA
HETATM   49  H29 UNK     1      -9.090  -3.668   3.698  1.00  0.00     0.217 HD
ENDBRANCH  40  48
ENDBRANCH  34  37
ENDBRANCH  12  33
TORSDOF 11
