REMARK  7 active torsions:
REMARK  status: ('A' for Active; 'I' for Inactive)
REMARK    1  A    between atoms: C15_23  and  O3_4 
REMARK    2  A    between atoms: C23_31  and  O3_4 
REMARK    3  A    between atoms: C5_13  and  N1_6 
REMARK    4  A    between atoms: C6_14  and  N2_7 
REMARK    5  A    between atoms: C17_25  and  N3_8 
REMARK       I    between atoms: C9_17  and  N3_8 
REMARK    6  A    between atoms: C5_13  and  C7_15 
REMARK    7  A    between atoms: C6_14  and  C9_17 
ROOT
HETATM    1  N1  UNK     1       1.594  -0.410  -1.084  1.00  0.00     0.096 N 
HETATM    2  N2  UNK     1      -0.980  -1.659  -0.672  1.00  0.00     0.100 N 
HETATM    3  C1  UNK     1       1.113  -1.475  -1.972  1.00  0.00     0.303 C 
HETATM    4  C2  UNK     1       1.032  -0.572   0.263  1.00  0.00     0.303 C 
HETATM    5  C3  UNK     1      -0.419  -1.497  -2.018  1.00  0.00     0.303 C 
HETATM    6  C4  UNK     1      -0.500  -0.593   0.215  1.00  0.00     0.303 C 
ENDROOT
BRANCH   1   7
HETATM    7  C5  UNK     1       3.055  -0.393  -1.037  1.00  0.00     0.312 C 
BRANCH   7   8
HETATM    8  C7  UNK     1       3.587   0.913  -0.560  1.00  0.00    -0.011 A 
HETATM    9  C10 UNK     1       3.804   1.139   0.743  1.00  0.00     0.092 A 
HETATM   10  C13 UNK     1       4.328   2.414   1.262  1.00  0.00     0.288 A 
HETATM   11  O1  UNK     1       4.598   3.402   0.328  1.00  0.00    -0.275 OA
HETATM   12  O4  UNK     1       4.513   2.584   2.462  1.00  0.00    -0.260 OA
HETATM   13  C11 UNK     1       4.380   3.195  -1.049  1.00  0.00     0.090 A 
HETATM   14  C8  UNK     1       3.882   1.981  -1.526  1.00  0.00     0.009 A 
HETATM   15  C14 UNK     1       4.687   4.260  -1.897  1.00  0.00     0.041 A 
HETATM   16  C12 UNK     1       3.693   1.855  -2.908  1.00  0.00     0.051 A 
HETATM   17  C15 UNK     1       3.995   2.915  -3.772  1.00  0.00     0.069 A 
HETATM   18  C16 UNK     1       4.491   4.115  -3.267  1.00  0.00     0.039 A 
BRANCH  17  19
HETATM   19  O3  UNK     1       3.803   2.771  -5.112  1.00  0.00    -0.351 OA
BRANCH  19  20
HETATM   20  C23 UNK     1       3.482   3.949  -5.851  1.00  0.00     0.171 C 
HETATM   21  C25 UNK     1       2.633   3.566  -7.044  1.00  0.00     0.034 C 
ENDBRANCH  19  20
ENDBRANCH  17  19
ENDBRANCH   7   8
ENDBRANCH   1   7
BRANCH   2  22
HETATM   22  C6  UNK     1      -2.441  -1.678  -0.717  1.00  0.00     0.375 C 
BRANCH  22  23
HETATM   23  C9  UNK     1      -2.978  -2.324   0.549  1.00  0.00     0.250 C 
HETATM   24  O2  UNK     1      -2.359  -3.185   1.165  1.00  0.00    -0.271 OA
HETATM   25  N3  UNK     1      -4.223  -1.789   0.871  1.00  0.00    -0.326 N 
HETATM   26  H15 UNK     1      -4.608  -1.077   0.254  1.00  0.00     0.169 HD
BRANCH  25  27
HETATM   27  C17 UNK     1      -5.048  -2.124   1.972  1.00  0.00     0.037 A 
HETATM   28  C18 UNK     1      -6.276  -1.484   2.144  1.00  0.00     0.072 A 
HETATM   29  C20 UNK     1      -7.088  -1.815   3.228  1.00  0.00     0.124 A 
HETATM   30  F1  UNK     1      -8.266  -1.194   3.385  1.00  0.00    -0.205 F 
HETATM   31  C22 UNK     1      -6.674  -2.785   4.140  1.00  0.00    -0.023 A 
HETATM   32  C21 UNK     1      -5.447  -3.425   3.968  1.00  0.00     0.012 A 
HETATM   33  C24 UNK     1      -7.540  -3.141   5.301  1.00  0.00     0.051 C 
HETATM   34  C19 UNK     1      -4.634  -3.095   2.884  1.00  0.00     0.030 A 
ENDBRANCH  25  27
ENDBRANCH  22  23
ENDBRANCH   2  22
TORSDOF 7
