REMARK  1 active torsions:
REMARK  status: ('A' for Active; 'I' for Inactive)
REMARK    1  A    between atoms: C2_5  and  C5_8 
ROOT
HETATM    1  O1  UNK     1      -1.400  -0.201  -2.664  1.00  0.00    -0.321 OA
HETATM    2  O2  UNK     1      -3.592  -1.691   1.383  1.00  0.00    -0.275 OA
HETATM    3  O3  UNK     1      -4.545  -2.362   3.355  1.00  0.00    -0.260 OA
HETATM    4  C1  UNK     1      -0.375   0.046  -0.666  1.00  0.00     0.012 A 
HETATM    5  C2  UNK     1       0.475   0.560  -1.681  1.00  0.00     0.009 A 
HETATM    6  C3  UNK     1      -1.515  -0.410  -1.322  1.00  0.00     0.088 A 
HETATM    7  C4  UNK     1      -0.304  -0.082   0.736  1.00  0.00     0.029 A 
HETATM    8  C6  UNK     1      -1.383  -0.664   1.418  1.00  0.00    -0.001 A 
HETATM    9  C7  UNK     1      -2.499  -1.102   0.705  1.00  0.00     0.092 A 
HETATM   10  C8  UNK     1      -2.607  -0.993  -0.684  1.00  0.00     0.076 A 
HETATM   11  C9  UNK     1      -0.193   0.387  -2.871  1.00  0.00     0.155 A 
HETATM   12  C12 UNK     1      -1.370  -0.824   2.864  1.00  0.00     0.020 A 
HETATM   13  C16 UNK     1      -2.408  -1.380   3.493  1.00  0.00     0.083 A 
HETATM   14  C17 UNK     1      -3.599  -1.853   2.765  1.00  0.00     0.288 A 
ENDROOT
BRANCH   5  15
HETATM   15  C5  UNK     1       1.774   1.157  -1.594  1.00  0.00    -0.023 A 
HETATM   16  C10 UNK     1       1.901   2.538  -1.426  1.00  0.00     0.013 A 
HETATM   17  C14 UNK     1       3.167   3.119  -1.342  1.00  0.00     0.007 A 
HETATM   18  C13 UNK     1       4.307   2.321  -1.426  1.00  0.00    -0.062 A 
HETATM   19  C15 UNK     1       4.183   0.942  -1.594  1.00  0.00     0.007 A 
HETATM   20  C18 UNK     1       5.660   2.942  -1.336  1.00  0.00     0.048 C 
HETATM   21  C11 UNK     1       2.918   0.361  -1.679  1.00  0.00     0.013 A 
ENDBRANCH   5  15
TORSDOF 1
