REMARK  3 active torsions:
REMARK  status: ('A' for Active; 'I' for Inactive)
REMARK       I    between atoms: C10_14  and  N1_4 
REMARK    1  A    between atoms: C2_6  and  N1_4 
REMARK    2  A    between atoms: C1_5  and  C3_7 
REMARK    3  A    between atoms: C10_14  and  C6_10 
ROOT
HETATM    1  O2  UNK     1       0.439   0.874   1.883  1.00  0.00    -0.267 OA
HETATM    2  N1  UNK     1      -0.929  -0.370   0.425  1.00  0.00    -0.323 N 
HETATM    3  C10 UNK     1       0.122   0.469   0.766  1.00  0.00     0.262 C 
HETATM    4  H6  UNK     1      -1.044  -0.630  -0.552  1.00  0.00     0.169 HD
ENDROOT
BRANCH   3   5
HETATM    5  C6  UNK     1       0.905   0.880  -0.406  1.00  0.00     0.108 A 
HETATM    6  C14 UNK     1       0.298   1.012  -1.749  1.00  0.00     0.304 A 
HETATM    7  O1  UNK     1       1.143   1.410  -2.781  1.00  0.00    -0.274 OA
HETATM    8  O3  UNK     1      -0.891   0.785  -1.949  1.00  0.00    -0.259 OA
HETATM    9  C7  UNK     1       2.510   1.673  -2.563  1.00  0.00     0.089 A 
HETATM   10  C16 UNK     1       3.276   2.065  -3.658  1.00  0.00     0.038 A 
HETATM   11  C4  UNK     1       3.060   1.542  -1.293  1.00  0.00    -0.001 A 
HETATM   12  C18 UNK     1       4.631   2.332  -3.474  1.00  0.00     0.003 A 
HETATM   13  C17 UNK     1       5.202   2.205  -2.206  1.00  0.00     0.001 A 
HETATM   14  C13 UNK     1       4.420   1.811  -1.116  1.00  0.00     0.014 A 
HETATM   15  C8  UNK     1       2.203   1.129  -0.193  1.00  0.00     0.037 A 
ENDBRANCH   3   5
BRANCH   2  16
HETATM   16  C2  UNK     1      -1.883  -0.956   1.293  1.00  0.00     0.035 A 
HETATM   17  C11 UNK     1      -1.809  -0.698   2.651  1.00  0.00     0.029 A 
HETATM   18  C12 UNK     1      -2.748  -1.276   3.506  1.00  0.00     0.003 A 
HETATM   19  C9  UNK     1      -3.745  -2.103   2.991  1.00  0.00     0.007 A 
HETATM   20  C1  UNK     1      -3.805  -2.353   1.619  1.00  0.00    -0.056 A 
HETATM   21  C5  UNK     1      -2.866  -1.775   0.764  1.00  0.00     0.036 A 
BRANCH  20  22
HETATM   22  C3  UNK     1      -4.871  -3.238   1.068  1.00  0.00     0.034 C 
HETATM   23  C15 UNK     1      -6.132  -2.471   0.684  1.00  0.00     0.010 C 
ENDBRANCH  20  22
ENDBRANCH   2  16
TORSDOF 3
