REMARK  5 active torsions:
REMARK  status: ('A' for Active; 'I' for Inactive)
REMARK    1  A    between atoms: C10_16  and  O2_3 
REMARK    2  A    between atoms: C4_10  and  O2_3 
REMARK    3  A    between atoms: C17_23  and  O3_4 
REMARK    4  A    between atoms: C2_8  and  C5_11 
REMARK    5  A    between atoms: C10_16  and  C17_23 
ROOT
HETATM    1 Cl1  UNK     1       1.440   2.229   2.315  1.00  0.00    -0.081 Cl
HETATM    2  O1  UNK     1      -0.811  -1.100  -2.003  1.00  0.00    -0.275 OA
HETATM    3  O4  UNK     1      -2.421  -2.535  -2.763  1.00  0.00    -0.260 OA
HETATM    4  C1  UNK     1      -0.949  -0.266   0.285  1.00  0.00     0.011 A 
HETATM    5  C2  UNK     1      -2.180  -1.047   0.484  1.00  0.00    -0.007 A 
HETATM    6  C3  UNK     1      -0.304  -0.316  -0.949  1.00  0.00     0.093 A 
HETATM    7  C4  UNK     1       1.411   1.190  -0.197  1.00  0.00     0.094 A 
HETATM    8  C6  UNK     1      -0.387   0.534   1.288  1.00  0.00     0.042 A 
HETATM    9  C7  UNK     1       0.866   0.400  -1.204  1.00  0.00     0.076 A 
HETATM   10  C8  UNK     1       0.785   1.258   1.048  1.00  0.00     0.068 A 
HETATM   11  C9  UNK     1      -2.638  -1.785  -0.541  1.00  0.00     0.095 A 
HETATM   12  C11 UNK     1      -1.968  -1.849  -1.853  1.00  0.00     0.289 A 
ENDROOT
BRANCH   7  13
HETATM   13  O2  UNK     1       2.554   1.887  -0.453  1.00  0.00    -0.335 OA
BRANCH  13  14
HETATM   14  C10 UNK     1       2.508   2.840  -1.513  1.00  0.00     0.224 C 
HETATM   15  C14 UNK     1       2.837   4.205  -0.935  1.00  0.00     0.051 C 
BRANCH  14  16
HETATM   16  C17 UNK     1       3.509   2.433  -2.575  1.00  0.00     0.287 C 
HETATM   17  O5  UNK     1       4.255   1.465  -2.492  1.00  0.00    -0.262 OA
BRANCH  16  18
HETATM   18  O3  UNK     1       3.428   3.289  -3.636  1.00  0.00    -0.324 OA
HETATM   19  C19 UNK     1       4.305   3.002  -4.729  1.00  0.00     0.213 C 
ENDBRANCH  16  18
ENDBRANCH  14  16
ENDBRANCH  13  14
ENDBRANCH   7  13
BRANCH   5  20
HETATM   20  C5  UNK     1      -2.974  -1.106   1.707  1.00  0.00    -0.025 A 
HETATM   21  C12 UNK     1      -4.008  -0.195   1.905  1.00  0.00     0.012 A 
HETATM   22  C15 UNK     1      -4.767  -0.250   3.074  1.00  0.00     0.001 A 
HETATM   23  C18 UNK     1      -4.490  -1.217   4.041  1.00  0.00     0.000 A 
HETATM   24  C16 UNK     1      -3.453  -2.128   3.838  1.00  0.00     0.001 A 
HETATM   25  C13 UNK     1      -2.694  -2.072   2.669  1.00  0.00     0.012 A 
ENDBRANCH   5  20
TORSDOF 5
