REMARK  9 active torsions:
REMARK  status: ('A' for Active; 'I' for Inactive)
REMARK    1  A    between atoms: C16_24  and  O1_2 
REMARK    2  A    between atoms: C25_33  and  O1_2 
REMARK    3  A    between atoms: C23_31  and  O5_6 
REMARK    4  A    between atoms: C14_22  and  N1_8 
REMARK       I    between atoms: C17_25  and  N1_8 
REMARK    5  A    between atoms: C1_9  and  C2_10 
REMARK    6  A    between atoms: C2_10  and  C3_11 
REMARK    7  A    between atoms: C4_12  and  C5_13 
REMARK    8  A    between atoms: C10_18  and  C16_24 
REMARK    9  A    between atoms: C17_25  and  C18_26 
ROOT
HETATM    1  S1  UNK     1       0.842  -0.186   2.701  1.00  0.00    -0.075 SA
HETATM    2  C5  UNK     1      -1.558  -0.951   2.198  1.00  0.00     0.006 A 
HETATM    3  C10 UNK     1      -1.023  -0.491   0.961  1.00  0.00     0.085 A 
HETATM    4  C13 UNK     1      -0.650  -0.841   3.228  1.00  0.00    -0.007 A 
HETATM    5  C14 UNK     1       0.275  -0.047   1.092  1.00  0.00     0.094 A 
HETATM    6  C15 UNK     1      -0.799  -1.202   4.658  1.00  0.00     0.057 C 
ENDROOT
BRANCH   5   7
HETATM    7  N1  UNK     1       1.170   0.478   0.156  1.00  0.00    -0.316 N 
HETATM    8  C17 UNK     1       2.469   0.896   0.411  1.00  0.00     0.262 C 
HETATM    9  O4  UNK     1       3.081   0.890   1.477  1.00  0.00    -0.267 OA
HETATM   10  H17 UNK     1       0.812   0.555  -0.793  1.00  0.00     0.169 HD
BRANCH   8  11
HETATM   11  C18 UNK     1       3.131   1.395  -0.800  1.00  0.00     0.108 A 
HETATM   12  C20 UNK     1       3.546   2.667  -0.765  1.00  0.00     0.037 A 
HETATM   13  C19 UNK     1       4.213   3.253  -1.918  1.00  0.00     0.002 A 
HETATM   14  C21 UNK     1       4.409   2.470  -3.051  1.00  0.00     0.123 A 
HETATM   15  C24 UNK     1       4.664   4.575  -1.925  1.00  0.00     0.014 A 
HETATM   16  O2  UNK     1       3.970   1.133  -3.082  1.00  0.00    -0.271 OA
HETATM   17  C23 UNK     1       5.041   2.971  -4.188  1.00  0.00     0.102 A 
HETATM   18  C22 UNK     1       3.330   0.544  -1.995  1.00  0.00     0.304 A 
HETATM   19  O6  UNK     1       2.951  -0.621  -2.031  1.00  0.00    -0.259 OA
HETATM   20  C26 UNK     1       5.487   4.291  -4.187  1.00  0.00     0.040 A 
HETATM   21  C27 UNK     1       5.299   5.091  -3.058  1.00  0.00     0.004 A 
BRANCH  17  22
HETATM   22  O5  UNK     1       5.226   2.195  -5.290  1.00  0.00    -0.353 OA
HETATM   23  C29 UNK     1       5.883   2.796  -6.405  1.00  0.00     0.210 C 
ENDBRANCH  17  22
ENDBRANCH   8  11
ENDBRANCH   5   7
BRANCH   3  24
HETATM   24  C16 UNK     1      -1.719  -0.474  -0.302  1.00  0.00     0.297 C 
HETATM   25  O3  UNK     1      -2.886  -0.866  -0.453  1.00  0.00    -0.259 OA
BRANCH  24  26
HETATM   26  O1  UNK     1      -0.970   0.021  -1.347  1.00  0.00    -0.318 OA
BRANCH  26  27
HETATM   27  C25 UNK     1      -1.602   0.066  -2.631  1.00  0.00     0.174 C 
HETATM   28  C28 UNK     1      -0.628   0.636  -3.640  1.00  0.00     0.034 C 
ENDBRANCH  26  27
ENDBRANCH  24  26
ENDBRANCH   3  24
BRANCH   2  29
HETATM   29  C4  UNK     1      -2.879  -1.481   2.430  1.00  0.00    -0.024 A 
HETATM   30  C11 UNK     1      -3.922  -0.624   2.782  1.00  0.00     0.013 A 
HETATM   31  C8  UNK     1      -5.200  -1.136   3.007  1.00  0.00     0.008 A 
HETATM   32  C3  UNK     1      -5.435  -2.505   2.881  1.00  0.00    -0.058 A 
HETATM   33  C9  UNK     1      -4.392  -3.362   2.529  1.00  0.00     0.008 A 
HETATM   34  C12 UNK     1      -3.114  -2.850   2.304  1.00  0.00     0.013 A 
BRANCH  32  35
HETATM   35  C2  UNK     1      -6.801  -3.052   3.120  1.00  0.00     0.042 C 
BRANCH  35  36
HETATM   36  C1  UNK     1      -7.699  -3.108   1.860  1.00  0.00    -0.019 C 
HETATM   37  C6  UNK     1      -7.089  -3.989   0.767  1.00  0.00     0.010 C 
HETATM   38  C7  UNK     1      -9.093  -3.628   2.222  1.00  0.00     0.010 C 
ENDBRANCH  35  36
ENDBRANCH  32  35
ENDBRANCH   2  29
TORSDOF 9
