REMARK  6 active torsions:
REMARK  status: ('A' for Active; 'I' for Inactive)
REMARK    1  A    between atoms: C2_7  and  O1_3 
REMARK    2  A    between atoms: C5_10  and  O1_3 
REMARK    3  A    between atoms: C3_8  and  O2_4 
REMARK    4  A    between atoms: C1_6  and  C9_14 
REMARK    5  A    between atoms: C5_10  and  C8_13 
REMARK    6  A    between atoms: C10_15  and  C11_16 
ROOT
HETATM    1  N1  UNK     1       0.498   3.417  -0.373  1.00  0.00    -0.191 NA
HETATM    2  C9  UNK     1       1.962   0.412  -1.406  1.00  0.00     0.036 C 
HETATM    3  C10 UNK     1       2.166   1.736  -1.403  1.00  0.00     0.055 C 
HETATM    4  C23 UNK     1       1.251   2.665  -0.838  1.00  0.00     0.100 C 
ENDROOT
BRANCH   3   5
HETATM    5  C11 UNK     1       3.370   2.239  -2.046  1.00  0.00    -0.015 A 
HETATM    6  C14 UNK     1       4.535   2.418  -1.300  1.00  0.00     0.014 A 
HETATM    7  C19 UNK     1       5.690   2.901  -1.916  1.00  0.00     0.024 A 
HETATM    8  C21 UNK     1       5.679   3.205  -3.277  1.00  0.00     0.034 A 
HETATM    9  C20 UNK     1       4.514   3.026  -4.023  1.00  0.00     0.024 A 
HETATM   10 Cl1  UNK     1       7.103   3.801  -4.037  1.00  0.00    -0.084 Cl
HETATM   11  C15 UNK     1       3.359   2.544  -3.407  1.00  0.00     0.014 A 
ENDBRANCH   3   5
BRANCH   2  12
HETATM   12  C1  UNK     1       0.801  -0.267  -0.812  1.00  0.00    -0.015 A 
HETATM   13  C4  UNK     1       0.918  -0.684   0.508  1.00  0.00     0.052 A 
HETATM   14  C3  UNK     1      -0.152  -1.333   1.122  1.00  0.00     0.102 A 
HETATM   15  C2  UNK     1      -1.330  -1.562   0.412  1.00  0.00     0.103 A 
HETATM   16  C7  UNK     1      -1.438  -1.140  -0.914  1.00  0.00     0.059 A 
HETATM   17  C6  UNK     1      -0.368  -0.490  -1.528  1.00  0.00     0.024 A 
HETATM   18 Br1  UNK     1      -0.581   0.058  -3.335  1.00  0.00    -0.050 Br
BRANCH  14  19
HETATM   19  O2  UNK     1      -0.035  -1.740   2.417  1.00  0.00    -0.353 OA
HETATM   20  C22 UNK     1      -0.434  -0.814   3.426  1.00  0.00     0.210 C 
ENDBRANCH  14  19
BRANCH  15  21
HETATM   21  O1  UNK     1      -2.383  -2.195   1.001  1.00  0.00    -0.344 OA
BRANCH  21  22
HETATM   22  C5  UNK     1      -3.688  -1.844   0.546  1.00  0.00     0.214 C 
BRANCH  22  23
HETATM   23  C8  UNK     1      -4.656  -1.978   1.685  1.00  0.00    -0.034 A 
HETATM   24  C12 UNK     1      -5.303  -3.189   1.900  1.00  0.00     0.009 A 
HETATM   25  C16 UNK     1      -6.203  -3.313   2.959  1.00  0.00     0.001 A 
HETATM   26  C18 UNK     1      -6.450  -2.225   3.795  1.00  0.00     0.000 A 
HETATM   27  C17 UNK     1      -5.797  -1.012   3.573  1.00  0.00     0.001 A 
HETATM   28  C13 UNK     1      -4.897  -0.888   2.514  1.00  0.00     0.009 A 
ENDBRANCH  22  23
ENDBRANCH  21  22
ENDBRANCH  15  21
ENDBRANCH   2  12
TORSDOF 6
