REMARK  2 active torsions:
REMARK  status: ('A' for Active; 'I' for Inactive)
REMARK    1  A    between atoms: C8_14  and  N1_5 
REMARK    2  A    between atoms: C1_7  and  C4_10 
ROOT
HETATM    1  O1  UNK     1       1.386   1.098   1.178  1.00  0.00    -0.291 OA
HETATM    2  O2  UNK     1       1.102  -0.003  -2.848  1.00  0.00    -0.274 OA
HETATM    3  O3  UNK     1      -0.450  -1.584  -2.310  1.00  0.00    -0.259 OA
HETATM    4  N2  UNK     1      -1.197  -1.966   3.850  1.00  0.00    -0.191 NA
HETATM    5  C1  UNK     1      -0.531  -0.935   0.493  1.00  0.00     0.110 C 
HETATM    6  C2  UNK     1       0.374  -0.252  -0.522  1.00  0.00     0.066 A 
HETATM    7  C3  UNK     1       1.238   0.700  -0.139  1.00  0.00     0.104 A 
HETATM    8  C5  UNK     1      -0.126  -0.595   1.929  1.00  0.00     0.086 C 
HETATM    9  C6  UNK     1       2.086   1.386  -1.110  1.00  0.00     0.033 A 
HETATM   10  C7  UNK     1       0.293  -0.680  -1.942  1.00  0.00     0.298 A 
HETATM   11  C8  UNK     1       0.772   0.378   2.201  1.00  0.00     0.159 C 
HETATM   12  C9  UNK     1       1.988   1.015  -2.448  1.00  0.00     0.092 A 
HETATM   13  C12 UNK     1       2.989   2.401  -0.771  1.00  0.00     0.017 A 
HETATM   14  C13 UNK     1       2.756   1.619  -3.444  1.00  0.00     0.038 A 
HETATM   15  C16 UNK     1       3.766   3.017  -1.758  1.00  0.00     0.001 A 
HETATM   16  C17 UNK     1      -0.718  -1.353   2.990  1.00  0.00     0.100 C 
HETATM   17  C18 UNK     1       3.649   2.626  -3.092  1.00  0.00     0.003 A 
ENDROOT
BRANCH   5  18
HETATM   18  C4  UNK     1      -1.965  -0.564   0.256  1.00  0.00    -0.022 A 
HETATM   19  C10 UNK     1      -2.920  -1.523  -0.069  1.00  0.00     0.041 A 
HETATM   20 Cl1  UNK     1      -2.507  -3.193  -0.217  1.00  0.00    -0.084 Cl
HETATM   21  C14 UNK     1      -4.244  -1.140  -0.282  1.00  0.00     0.024 A 
HETATM   22  C19 UNK     1      -4.608   0.202  -0.169  1.00  0.00     0.002 A 
HETATM   23  C15 UNK     1      -3.648   1.160   0.156  1.00  0.00     0.001 A 
HETATM   24  C11 UNK     1      -2.324   0.777   0.369  1.00  0.00     0.010 A 
ENDBRANCH   5  18
BRANCH  11  25
HETATM   25  N1  UNK     1       1.170   0.756   3.454  1.00  0.00    -0.379 N 
HETATM   26  H10 UNK     1       0.792   0.306   4.278  1.00  0.00     0.158 HD
HETATM   27  H9  UNK     1       1.851   1.499   3.546  1.00  0.00     0.158 HD
ENDBRANCH  11  25
TORSDOF 2
