REMARK  3 active torsions:
REMARK  status: ('A' for Active; 'I' for Inactive)
REMARK       I    between atoms: C10_15  and  N1_4 
REMARK    1  A    between atoms: N1_4  and  N2_5 
REMARK    2  A    between atoms: C10_15  and  C4_9 
REMARK    3  A    between atoms: C11_16  and  C14_19 
ROOT
HETATM    1  O3  UNK     1       0.514   1.031   1.708  1.00  0.00    -0.266 OA
HETATM    2  N1  UNK     1      -0.770  -0.171   0.184  1.00  0.00    -0.243 N 
HETATM    3  C10 UNK     1       0.274   0.645   0.566  1.00  0.00     0.277 C 
HETATM    4  H6  UNK     1      -0.918  -0.481  -0.772  1.00  0.00     0.192 HD
ENDROOT
BRANCH   3   5
HETATM    5  C4  UNK     1       1.128   1.040  -0.561  1.00  0.00     0.110 A 
HETATM    6  C3  UNK     1       2.416   1.265  -0.277  1.00  0.00     0.037 A 
HETATM    7  C1  UNK     1       3.340   1.662  -1.328  1.00  0.00    -0.001 A 
HETATM    8  C2  UNK     1       2.862   1.803  -2.627  1.00  0.00     0.089 A 
HETATM    9  C5  UNK     1       4.692   1.908  -1.078  1.00  0.00     0.014 A 
HETATM   10  O1  UNK     1       1.505   1.564  -2.920  1.00  0.00    -0.274 OA
HETATM   11  C6  UNK     1       3.694   2.180  -3.679  1.00  0.00     0.038 A 
HETATM   12  C7  UNK     1       0.597   1.183  -1.936  1.00  0.00     0.304 A 
HETATM   13  O2  UNK     1      -0.583   0.978  -2.200  1.00  0.00    -0.259 OA
HETATM   14  C9  UNK     1       5.041   2.423  -3.420  1.00  0.00     0.003 A 
HETATM   15  C8  UNK     1       5.540   2.287  -2.123  1.00  0.00     0.001 A 
ENDBRANCH   3   5
BRANCH   2  16
HETATM   16  N2  UNK     1      -1.635  -0.609   1.128  1.00  0.00    -0.183 NA
HETATM   17  C14 UNK     1      -2.577  -1.366   0.667  1.00  0.00     0.150 C 
BRANCH  17  18
HETATM   18  C11 UNK     1      -3.614  -1.941   1.542  1.00  0.00    -0.017 A 
HETATM   19  C13 UNK     1      -3.586  -1.666   2.899  1.00  0.00     0.013 A 
HETATM   20  C16 UNK     1      -4.568  -2.210   3.727  1.00  0.00     0.001 A 
HETATM   21  C17 UNK     1      -5.564  -3.023   3.186  1.00  0.00     0.000 A 
HETATM   22  C15 UNK     1      -5.579  -3.291   1.817  1.00  0.00     0.001 A 
HETATM   23  C12 UNK     1      -4.597  -2.746   0.989  1.00  0.00     0.013 A 
ENDBRANCH  17  18
ENDBRANCH   2  16
TORSDOF 3
