REMARK  7 active torsions:
REMARK  status: ('A' for Active; 'I' for Inactive)
REMARK    1  A    between atoms: C11_18  and  O3_3 
REMARK    2  A    between atoms: C18_25  and  O3_3 
REMARK    3  A    between atoms: C20_27  and  O6_6 
REMARK    4  A    between atoms: C23_30  and  O6_6 
REMARK    5  A    between atoms: C1_8  and  C10_17 
REMARK    6  A    between atoms: C11_18  and  C6_13 
REMARK    7  A    between atoms: C18_25  and  C20_27 
ROOT
HETATM    1  O1  UNK     1       2.691  -0.510  -3.203  1.00  0.00    -0.293 OA
HETATM    2  N1  UNK     1       2.296   2.857   0.107  1.00  0.00    -0.362 N 
HETATM    3  C1  UNK     1       1.910   0.110  -0.496  1.00  0.00     0.104 C 
HETATM    4  C2  UNK     1       2.381   1.137  -1.521  1.00  0.00     0.024 C 
HETATM    5  C3  UNK     1       2.526   2.438  -1.189  1.00  0.00     0.020 C 
HETATM    6  C4  UNK     1       2.940   3.501  -2.172  1.00  0.00     0.058 C 
HETATM    7  C5  UNK     1       2.689   3.079  -3.615  1.00  0.00     0.014 C 
HETATM    8  C6  UNK     1       1.836   0.682   0.921  1.00  0.00     0.052 C 
HETATM    9  C7  UNK     1       3.271   1.703  -3.884  1.00  0.00     0.084 C 
HETATM   10  C8  UNK     1       2.749   0.681  -2.898  1.00  0.00     0.158 C 
HETATM   11  C9  UNK     1       2.002   2.004   1.160  1.00  0.00     0.018 C 
HETATM   12  C12 UNK     1       1.899   2.670   2.505  1.00  0.00     0.069 C 
HETATM   13  H8  UNK     1       2.419   3.841   0.316  1.00  0.00     0.165 HD
ENDROOT
BRANCH   3  14
HETATM   14  C10 UNK     1       0.574  -0.453  -0.900  1.00  0.00     0.029 A 
HETATM   15  C13 UNK     1      -0.587   0.470  -0.989  1.00  0.00     0.194 A 
HETATM   16  O5  UNK     1      -0.488   1.665  -0.747  1.00  0.00    -0.287 OA
HETATM   17  C15 UNK     1      -1.872  -0.134  -1.387  1.00  0.00     0.048 A 
HETATM   18  C16 UNK     1      -1.926  -1.503  -1.651  1.00  0.00     0.089 A 
HETATM   19  C17 UNK     1      -3.023   0.651  -1.499  1.00  0.00     0.018 A 
HETATM   20  O2  UNK     1      -0.827  -2.320  -1.557  1.00  0.00    -0.321 OA
HETATM   21  C19 UNK     1      -3.131  -2.094  -2.029  1.00  0.00     0.038 A 
HETATM   22  C14 UNK     1       0.363  -1.744  -1.185  1.00  0.00     0.154 A 
HETATM   23  C22 UNK     1      -4.282  -1.313  -2.142  1.00  0.00     0.003 A 
HETATM   24  C21 UNK     1      -4.227   0.056  -1.878  1.00  0.00     0.001 A 
ENDBRANCH   3  14
BRANCH   8  25
HETATM   25  C11 UNK     1       1.626  -0.287   2.010  1.00  0.00     0.292 C 
HETATM   26  O4  UNK     1       2.536  -0.866   2.573  1.00  0.00    -0.259 OA
BRANCH  25  27
HETATM   27  O3  UNK     1       0.295  -0.393   2.237  1.00  0.00    -0.316 OA
BRANCH  27  28
HETATM   28  C18 UNK     1      -0.072  -1.305   3.277  1.00  0.00     0.205 C 
BRANCH  28  29
HETATM   29  C20 UNK     1      -1.437  -1.888   2.965  1.00  0.00     0.195 C 
BRANCH  29  30
HETATM   30  O6  UNK     1      -2.390  -0.834   2.911  1.00  0.00    -0.385 OA
BRANCH  30  31
HETATM   31  C23 UNK     1      -3.692  -1.324   2.621  1.00  0.00     0.113 C 
HETATM   32  C24 UNK     1      -4.655  -0.151   2.511  1.00  0.00     0.039 C 
HETATM   33  C25 UNK     1      -4.112  -2.302   3.707  1.00  0.00     0.039 C 
ENDBRANCH  30  31
ENDBRANCH  29  30
ENDBRANCH  28  29
ENDBRANCH  27  28
ENDBRANCH  25  27
ENDBRANCH   8  25
TORSDOF 7
