REMARK  5 active torsions:
REMARK  status: ('A' for Active; 'I' for Inactive)
REMARK    1  A    between atoms: C2_11  and  S1_2 
REMARK    2  A    between atoms: C7_16  and  S1_2 
REMARK       I    between atoms: C11_20  and  N1_8 
REMARK    3  A    between atoms: C12_21  and  N1_8 
REMARK    4  A    between atoms: C4_13  and  N2_9 
REMARK    5  A    between atoms: C11_20  and  C7_16 
ROOT
HETATM    1  O1  UNK     1       3.552   1.733  -2.837  1.00  0.00    -0.273 OA
HETATM    2  O2  UNK     1       5.071   2.088  -1.170  1.00  0.00    -0.257 OA
HETATM    3  C1  UNK     1       1.208   1.253  -2.283  1.00  0.00     0.017 A 
HETATM    4  C2  UNK     1       1.540   1.429  -0.850  1.00  0.00     0.053 A 
HETATM    5  C3  UNK     1       2.231   1.424  -3.225  1.00  0.00     0.091 A 
HETATM    6  C4  UNK     1       2.818   1.694  -0.540  1.00  0.00     0.195 A 
HETATM    7  C5  UNK     1      -0.058   0.910  -2.788  1.00  0.00     0.016 A 
HETATM    8  C6  UNK     1       2.023   1.288  -4.602  1.00  0.00     0.038 A 
HETATM    9  C8  UNK     1       3.916   1.854  -1.505  1.00  0.00     0.323 A 
HETATM   10  C9  UNK     1      -0.281   0.768  -4.164  1.00  0.00     0.001 A 
HETATM   11  C10 UNK     1       0.758   0.961  -5.070  1.00  0.00     0.003 A 
ENDROOT
BRANCH   4  12
HETATM   12  S1  UNK     1       0.255   1.264   0.315  1.00  0.00    -0.117 SA
BRANCH  12  13
HETATM   13  C7  UNK     1       0.387  -0.507   0.643  1.00  0.00     0.182 C 
BRANCH  13  14
HETATM   14  C11 UNK     1      -0.665  -0.894   1.660  1.00  0.00     0.231 C 
HETATM   15  O3  UNK     1      -0.420  -0.836   2.863  1.00  0.00    -0.272 OA
HETATM   16  N1  UNK     1      -1.858  -1.274   1.057  1.00  0.00    -0.326 N 
HETATM   17  H7  UNK     1      -1.899  -1.249   0.040  1.00  0.00     0.169 HD
BRANCH  16  18
HETATM   18  C12 UNK     1      -3.050  -1.695   1.694  1.00  0.00     0.036 A 
HETATM   19  C13 UNK     1      -4.148  -2.036   0.922  1.00  0.00     0.053 A 
HETATM   20  C15 UNK     1      -5.322  -2.450   1.551  1.00  0.00     0.036 A 
HETATM   21  C17 UNK     1      -5.381  -2.518   2.943  1.00  0.00     0.024 A 
HETATM   22 Cl1  UNK     1      -6.698  -2.878   0.610  1.00  0.00    -0.084 Cl
HETATM   23  C16 UNK     1      -4.266  -2.171   3.706  1.00  0.00     0.004 A 
HETATM   24  C14 UNK     1      -3.092  -1.757   3.077  1.00  0.00     0.029 A 
ENDBRANCH  16  18
ENDBRANCH  13  14
ENDBRANCH  12  13
ENDBRANCH   4  12
BRANCH   6  25
HETATM   25  N2  UNK     1       3.157   1.892   0.833  1.00  0.00    -0.108 N 
HETATM   26  O4  UNK     1       2.239   1.805   1.656  1.00  0.00    -0.532 OA
HETATM   27  O5  UNK     1       4.342   2.135   1.089  1.00  0.00    -0.532 OA
ENDBRANCH   6  25
TORSDOF 5
