REMARK  2 active torsions:
REMARK  status: ('A' for Active; 'I' for Inactive)
REMARK    1  A    between atoms: C5_12  and  N1_6 
REMARK       I    between atoms: C10_17  and  N2_7 
REMARK    2  A    between atoms: C10_17  and  C4_11 
ROOT
HETATM    1  O1  UNK     1      -0.259   0.075  -1.310  1.00  0.00    -0.271 OA
HETATM    2  O2  UNK     1      -2.277  -0.996  -1.309  1.00  0.00    -0.259 OA
HETATM    3  C1  UNK     1       0.877   0.497   0.797  1.00  0.00     0.002 A 
HETATM    4  C2  UNK     1       0.834   0.594  -0.590  1.00  0.00     0.122 A 
HETATM    5  C3  UNK     1      -0.227  -0.148   1.492  1.00  0.00     0.037 A 
HETATM    6  C4  UNK     1      -1.263  -0.639   0.802  1.00  0.00     0.108 A 
HETATM    7  C5  UNK     1       1.858   1.200  -1.315  1.00  0.00     0.137 A 
HETATM    8  C6  UNK     1       1.978   1.023   1.476  1.00  0.00     0.014 A 
HETATM    9  C7  UNK     1       2.953   1.723  -0.630  1.00  0.00     0.039 A 
HETATM   10  C8  UNK     1      -1.330  -0.548  -0.674  1.00  0.00     0.304 A 
HETATM   11  C9  UNK     1       3.013   1.634   0.763  1.00  0.00     0.003 A 
ENDROOT
BRANCH   6  12
HETATM   12  C10 UNK     1      -2.326  -1.273   1.592  1.00  0.00     0.257 C 
HETATM   13  O3  UNK     1      -2.073  -1.832   2.657  1.00  0.00    -0.267 OA
HETATM   14  N2  UNK     1      -3.573  -1.161   1.004  1.00  0.00    -0.361 N 
HETATM   15  C11 UNK     1      -4.774  -1.708   1.593  1.00  0.00     0.149 C 
HETATM   16  H5  UNK     1      -3.686  -0.638   0.141  1.00  0.00     0.162 HD
ENDBRANCH   6  12
BRANCH   7  17
HETATM   17  N1  UNK     1       1.809   1.295  -2.732  1.00  0.00    -0.113 N 
HETATM   18  O4  UNK     1       2.758   1.850  -3.336  1.00  0.00    -0.532 OA
HETATM   19  O5  UNK     1       0.819   0.821  -3.338  1.00  0.00    -0.532 OA
ENDBRANCH   7  17
TORSDOF 2
