REMARK  4 active torsions:
REMARK  status: ('A' for Active; 'I' for Inactive)
REMARK       I    between atoms: C13_19  and  N2_6 
REMARK    1  A    between atoms: C6_12  and  N2_6 
REMARK    2  A    between atoms: C1_7  and  C3_9 
REMARK    3  A    between atoms: C3_9  and  C6_12 
REMARK    4  A    between atoms: C13_19  and  C14_20 
ROOT
HETATM    1  O2  UNK     1      -1.985   1.551  -2.397  1.00  0.00    -0.267 OA
HETATM    2  N2  UNK     1      -1.962  -0.580  -1.453  1.00  0.00    -0.356 N 
HETATM    3  C13 UNK     1      -1.387   0.562  -1.981  1.00  0.00     0.257 C 
HETATM    4  H12 UNK     1      -1.377  -1.334  -1.107  1.00  0.00     0.162 HD
ENDROOT
BRANCH   2   5
HETATM    5  C6  UNK     1      -3.391  -0.754  -1.323  1.00  0.00     0.127 C 
BRANCH   5   6
HETATM    6  C3  UNK     1      -3.883  -0.241   0.030  1.00  0.00     0.061 C 
BRANCH   6   7
HETATM    7  C1  UNK     1      -3.283  -0.985   1.198  1.00  0.00    -0.022 A 
HETATM    8  C2  UNK     1      -2.093  -0.633   1.857  1.00  0.00    -0.001 A 
HETATM    9  C5  UNK     1      -1.916  -1.582   2.866  1.00  0.00     0.043 A 
HETATM   10  C7  UNK     1      -1.135   0.390   1.713  1.00  0.00     0.021 A 
HETATM   11  N1  UNK     1      -2.977  -2.456   2.791  1.00  0.00    -0.359 N 
HETATM   12  C8  UNK     1      -0.825  -1.559   3.742  1.00  0.00     0.031 A 
HETATM   13  C4  UNK     1      -3.816  -2.094   1.771  1.00  0.00     0.013 A 
HETATM   14  H3  UNK     1      -3.112  -3.250   3.402  1.00  0.00     0.166 HD
HETATM   15  C10 UNK     1      -5.035  -2.872   1.477  1.00  0.00     0.068 C 
HETATM   16  C11 UNK     1       0.112  -0.534   3.580  1.00  0.00     0.009 A 
HETATM   17  C9  UNK     1      -0.039   0.426   2.582  1.00  0.00    -0.061 A 
HETATM   18  C12 UNK     1       0.981   1.506   2.434  1.00  0.00     0.048 C 
ENDBRANCH   6   7
ENDBRANCH   5   6
ENDBRANCH   2   5
BRANCH   3  19
HETATM   19  C14 UNK     1       0.080   0.502  -2.006  1.00  0.00     0.108 A 
HETATM   20  C16 UNK     1       0.721   1.671  -1.890  1.00  0.00     0.037 A 
HETATM   21  C15 UNK     1       2.175   1.714  -1.904  1.00  0.00     0.000 A 
HETATM   22  C17 UNK     1       2.883   0.524  -2.038  1.00  0.00     0.089 A 
HETATM   23  C19 UNK     1       2.886   2.911  -1.788  1.00  0.00     0.033 A 
HETATM   24  O1  UNK     1       2.202  -0.704  -2.158  1.00  0.00    -0.274 OA
HETATM   25  C20 UNK     1       4.276   0.496  -2.059  1.00  0.00     0.039 A 
HETATM   26  C18 UNK     1       0.812  -0.776  -2.149  1.00  0.00     0.304 A 
HETATM   27  O3  UNK     1       0.227  -1.849  -2.254  1.00  0.00    -0.259 OA
HETATM   28  C22 UNK     1       4.977   1.694  -1.942  1.00  0.00     0.022 A 
HETATM   29  C21 UNK     1       4.284   2.899  -1.807  1.00  0.00     0.011 A 
HETATM   30 Br1  UNK     1       5.242   4.522  -1.647  1.00  0.00    -0.051 Br
ENDBRANCH   3  19
TORSDOF 4
