REMARK  1 active torsions:
REMARK  status: ('A' for Active; 'I' for Inactive)
REMARK    1  A    between atoms: C10_17  and  C6_13 
ROOT
HETATM    1  O1  UNK     1       0.244  -2.356   2.723  1.00  0.00    -0.293 OA
HETATM    2  N1  UNK     1      -2.786   0.197  -0.018  1.00  0.00    -0.357 N 
HETATM    3  N2  UNK     1      -0.771  -1.735  -1.135  1.00  0.00    -0.375 N 
HETATM    4  C1  UNK     1      -3.206  -1.389   3.351  1.00  0.00    -0.036 C 
HETATM    5  C2  UNK     1      -3.276  -0.275   2.294  1.00  0.00     0.067 C 
HETATM    6  C3  UNK     1      -1.744  -1.574   3.755  1.00  0.00     0.092 C 
HETATM    7  C4  UNK     1      -2.336  -0.459   1.111  1.00  0.00     0.022 C 
HETATM    8  C5  UNK     1      -1.191  -1.166   1.233  1.00  0.00     0.037 C 
HETATM    9  C6  UNK     1      -0.177  -1.355   0.135  1.00  0.00     0.160 C 
HETATM   10  C7  UNK     1      -0.825  -1.763   2.569  1.00  0.00     0.160 C 
HETATM   11  C8  UNK     1      -3.796  -2.707   2.809  1.00  0.00     0.015 C 
HETATM   12  C9  UNK     1      -4.025  -0.970   4.585  1.00  0.00     0.015 C 
HETATM   13  C11 UNK     1      -2.512   0.001  -1.385  1.00  0.00     0.059 A 
HETATM   14  C12 UNK     1      -1.616  -0.949  -1.902  1.00  0.00     0.055 A 
HETATM   15  C15 UNK     1      -3.250   0.798  -2.293  1.00  0.00     0.032 A 
HETATM   16  C16 UNK     1      -1.529  -1.098  -3.305  1.00  0.00     0.031 A 
HETATM   17  C18 UNK     1      -3.134   0.646  -3.673  1.00  0.00     0.002 A 
HETATM   18  C19 UNK     1      -2.276  -0.313  -4.182  1.00  0.00     0.002 A 
HETATM   19  H12 UNK     1      -3.522   0.875   0.163  1.00  0.00     0.166 HD
HETATM   20  H13 UNK     1      -0.311  -2.498  -1.623  1.00  0.00     0.160 HD
ENDROOT
BRANCH   9  21
HETATM   21  C10 UNK     1       0.730  -0.174  -0.026  1.00  0.00     0.042 A 
HETATM   22  C13 UNK     1       1.795  -0.235  -1.059  1.00  0.00     0.195 A 
HETATM   23  O3  UNK     1       1.952  -1.216  -1.775  1.00  0.00    -0.287 OA
HETATM   24  C17 UNK     1       2.661   0.953  -1.176  1.00  0.00     0.052 A 
HETATM   25  C20 UNK     1       2.437   2.041  -0.332  1.00  0.00     0.111 A 
HETATM   26  C21 UNK     1       3.692   0.993  -2.118  1.00  0.00     0.042 A 
HETATM   27  O2  UNK     1       1.440   2.056   0.610  1.00  0.00    -0.319 OA
HETATM   28  C22 UNK     1       3.244   3.176  -0.426  1.00  0.00     0.070 A 
HETATM   29  C14 UNK     1       0.642   0.943   0.708  1.00  0.00     0.156 A 
HETATM   30 Cl1  UNK     1       3.000   4.546   0.596  1.00  0.00    -0.081 Cl
HETATM   31  C24 UNK     1       4.274   3.218  -1.366  1.00  0.00     0.050 A 
HETATM   32  C23 UNK     1       4.498   2.129  -2.209  1.00  0.00     0.036 A 
HETATM   33 Cl2  UNK     1       5.771   2.187  -3.367  1.00  0.00    -0.084 Cl
ENDBRANCH   9  21
TORSDOF 1
