REMARK  5 active torsions:
REMARK  status: ('A' for Active; 'I' for Inactive)
REMARK    1  A    between atoms: C2_10  and  N1_6 
REMARK    2  A    between atoms: C3_11  and  N1_6 
REMARK       I    between atoms: C5_13  and  N1_6 
REMARK       I    between atoms: C12_20  and  N2_7 
REMARK    3  A    between atoms: C7_15  and  N2_7 
REMARK    4  A    between atoms: C1_9  and  C5_13 
REMARK    5  A    between atoms: C11_19  and  C12_20 
ROOT
HETATM    1  S1  UNK     1      -2.070  -0.301  -0.015  1.00  0.00    -0.065 SA
HETATM    2  N3  UNK     1       0.984   0.272   4.019  1.00  0.00    -0.191 NA
HETATM    3  C1  UNK     1      -2.947  -0.722   1.394  1.00  0.00     0.082 A 
HETATM    4  C4  UNK     1      -2.186  -0.593   2.535  1.00  0.00    -0.016 A 
HETATM    5  C6  UNK     1      -0.865  -0.142   2.248  1.00  0.00     0.086 A 
HETATM    6  C7  UNK     1      -0.705   0.041   0.923  1.00  0.00     0.099 A 
HETATM    7  C10 UNK     1      -2.689  -0.890   3.901  1.00  0.00     0.051 C 
HETATM    8  C18 UNK     1       0.155   0.086   3.225  1.00  0.00     0.103 C 
ENDROOT
BRANCH   6   9
HETATM    9  N2  UNK     1       0.429   0.476   0.194  1.00  0.00    -0.316 N 
HETATM   10  C12 UNK     1       0.538   0.648  -1.179  1.00  0.00     0.262 C 
HETATM   11  O3  UNK     1      -0.322   0.460  -2.038  1.00  0.00    -0.267 OA
HETATM   12  H14 UNK     1       1.229   0.694   0.783  1.00  0.00     0.170 HD
BRANCH  10  13
HETATM   13  C11 UNK     1       1.872   1.115  -1.574  1.00  0.00     0.108 A 
HETATM   14  C14 UNK     1       1.930   1.877  -2.673  1.00  0.00     0.037 A 
HETATM   15  C13 UNK     1       3.208   2.387  -3.144  1.00  0.00    -0.001 A 
HETATM   16  C15 UNK     1       4.363   2.070  -2.436  1.00  0.00     0.089 A 
HETATM   17  C17 UNK     1       3.316   3.186  -4.286  1.00  0.00     0.014 A 
HETATM   18  O2  UNK     1       4.295   1.268  -1.280  1.00  0.00    -0.274 OA
HETATM   19  C19 UNK     1       5.617   2.526  -2.835  1.00  0.00     0.038 A 
HETATM   20  C16 UNK     1       3.087   0.765  -0.804  1.00  0.00     0.304 A 
HETATM   21  O4  UNK     1       3.038   0.066   0.202  1.00  0.00    -0.259 OA
HETATM   22  C21 UNK     1       5.716   3.322  -3.974  1.00  0.00     0.003 A 
HETATM   23  C20 UNK     1       4.568   3.651  -4.698  1.00  0.00     0.001 A 
ENDBRANCH  10  13
ENDBRANCH   6   9
BRANCH   3  24
HETATM   24  C5  UNK     1      -4.305  -1.142   1.256  1.00  0.00     0.261 C 
HETATM   25  O1  UNK     1      -5.249  -0.324   1.296  1.00  0.00    -0.267 OA
HETATM   26  N1  UNK     1      -4.578  -2.528   1.072  1.00  0.00    -0.348 N 
BRANCH  26  27
HETATM   27  C2  UNK     1      -5.948  -3.005   0.928  1.00  0.00     0.121 C 
HETATM   28  C8  UNK     1      -6.558  -3.355   2.269  1.00  0.00     0.026 C 
ENDBRANCH  26  27
BRANCH  26  29
HETATM   29  C3  UNK     1      -3.543  -3.557   0.988  1.00  0.00     0.121 C 
HETATM   30  C9  UNK     1      -3.089  -3.773  -0.441  1.00  0.00     0.026 C 
ENDBRANCH  26  29
ENDBRANCH   3  24
TORSDOF 5
