REMARK  2 active torsions:
REMARK  status: ('A' for Active; 'I' for Inactive)
REMARK    1  A    between atoms: C1_3  and  C3_5 
REMARK    2  A    between atoms: C2_4  and  C4_6 
ROOT
HETATM    1  N1  UNK     1      -0.995  -0.412   3.916  1.00  0.00    -0.191 NA
HETATM    2  C3  UNK     1      -0.391   0.054   1.430  1.00  0.00     0.055 C 
HETATM    3  C4  UNK     1       0.747   0.755   1.179  1.00  0.00     0.036 C 
HETATM    4  C15 UNK     1      -0.717  -0.199   2.810  1.00  0.00     0.100 C 
ENDROOT
BRANCH   2   5
HETATM    5  C1  UNK     1      -1.284  -0.440   0.394  1.00  0.00    -0.015 A 
HETATM    6  C7  UNK     1      -2.334   0.358  -0.061  1.00  0.00     0.013 A 
HETATM    7  C11 UNK     1      -3.188  -0.116  -1.056  1.00  0.00     0.001 A 
HETATM    8  C14 UNK     1      -2.993  -1.386  -1.597  1.00  0.00     0.000 A 
HETATM    9  C12 UNK     1      -1.943  -2.184  -1.142  1.00  0.00     0.001 A 
HETATM   10  C8  UNK     1      -1.088  -1.710  -0.147  1.00  0.00     0.013 A 
ENDBRANCH   2   5
BRANCH   3  11
HETATM   11  C2  UNK     1       1.265   1.097  -0.154  1.00  0.00    -0.013 A 
HETATM   12  C5  UNK     1       2.147   0.266  -0.832  1.00  0.00     0.044 A 
HETATM   13 Cl1  UNK     1       2.704  -1.231  -0.167  1.00  0.00    -0.083 Cl
HETATM   14  C9  UNK     1       2.610   0.636  -2.095  1.00  0.00     0.024 A 
HETATM   15  C13 UNK     1       2.186   1.834  -2.669  1.00  0.00     0.002 A 
HETATM   16  C10 UNK     1       1.300   2.662  -1.981  1.00  0.00     0.001 A 
HETATM   17  C6  UNK     1       0.838   2.293  -0.718  1.00  0.00     0.013 A 
ENDBRANCH   3  11
TORSDOF 2
