REMARK  4 active torsions:
REMARK  status: ('A' for Active; 'I' for Inactive)
REMARK    1  A    between atoms: C1_6  and  N1_4 
REMARK    2  A    between atoms: C11_16  and  N1_4 
REMARK    3  A    between atoms: C11_16  and  N2_5 
REMARK    4  A    between atoms: C12_17  and  N2_5 
ROOT
HETATM    1  N2  UNK     1       0.146   0.062   0.053  1.00  0.00    -0.333 N 
HETATM    2  H13 UNK     1       0.717   0.742   0.543  1.00  0.00     0.168 HD
ENDROOT
BRANCH   1   3
HETATM    3  C11 UNK     1       0.724  -0.486  -1.087  1.00  0.00     0.172 C 
HETATM    4  S1  UNK     1       0.233  -1.831  -1.964  1.00  0.00    -0.041 SA
BRANCH   3   5
HETATM    5  N1  UNK     1       1.827   0.213  -1.567  1.00  0.00    -0.358 N 
HETATM    6  H8  UNK     1       2.276  -0.180  -2.390  1.00  0.00     0.162 HD
BRANCH   5   7
HETATM    7  C1  UNK     1       2.411   1.415  -1.012  1.00  0.00     0.117 C 
HETATM    8  C2  UNK     1       3.430   1.068   0.081  1.00  0.00     0.030 C 
HETATM    9  C3  UNK     1       4.759   0.621  -0.521  1.00  0.00     0.007 C 
HETATM   10  C4  UNK     1       5.369   1.740  -1.360  1.00  0.00     0.039 C 
HETATM   11  C6  UNK     1       4.385   2.395  -2.297  1.00  0.00    -0.050 A 
HETATM   12  C5  UNK     1       2.994   2.275  -2.112  1.00  0.00    -0.029 A 
HETATM   13  C8  UNK     1       4.876   3.196  -3.339  1.00  0.00     0.007 A 
HETATM   14  C7  UNK     1       2.126   2.947  -2.990  1.00  0.00     0.010 A 
HETATM   15  C9  UNK     1       2.628   3.731  -4.028  1.00  0.00     0.001 A 
HETATM   16  C10 UNK     1       4.002   3.857  -4.202  1.00  0.00     0.001 A 
ENDBRANCH   5   7
ENDBRANCH   3   5
ENDBRANCH   1   3
BRANCH   1  17
HETATM   17  C12 UNK     1      -0.968  -0.339   0.835  1.00  0.00     0.036 A 
HETATM   18  C15 UNK     1      -1.964  -1.094   0.253  1.00  0.00     0.067 A 
HETATM   19  C14 UNK     1      -3.051  -1.478   1.041  1.00  0.00     0.092 A 
HETATM   20  C13 UNK     1      -3.159  -1.123   2.387  1.00  0.00     0.004 A 
HETATM   21  O1  UNK     1      -4.047  -2.249   0.410  1.00  0.00    -0.275 OA
HETATM   22  C17 UNK     1      -2.126  -0.355   2.941  1.00  0.00     0.017 A 
HETATM   23  C18 UNK     1      -4.337  -1.571   3.141  1.00  0.00    -0.043 A 
HETATM   24  C16 UNK     1      -1.030   0.037   2.164  1.00  0.00     0.030 A 
HETATM   25  C19 UNK     1      -5.269  -2.303   2.514  1.00  0.00     0.090 A 
HETATM   26  C20 UNK     1      -4.482  -1.206   4.589  1.00  0.00     0.049 C 
HETATM   27  C21 UNK     1      -5.170  -2.685   1.095  1.00  0.00     0.288 A 
HETATM   28  O2  UNK     1      -6.042  -3.357   0.555  1.00  0.00    -0.260 OA
ENDBRANCH   1  17
TORSDOF 4
