REMARK  3 active torsions:
REMARK  status: ('A' for Active; 'I' for Inactive)
REMARK    1  A    between atoms: C6_12  and  N1_5 
REMARK    2  A    between atoms: C1_7  and  C5_11 
REMARK    3  A    between atoms: C10_16  and  C6_12 
ROOT
HETATM    1  O1  UNK     1       1.267  -0.102  -2.791  1.00  0.00    -0.303 OA
HETATM    2  O2  UNK     1      -0.416  -2.367  -1.979  1.00  0.00    -0.265 OA
HETATM    3  O3  UNK     1       1.263   2.732   0.183  1.00  0.00    -0.287 OA
HETATM    4  N1  UNK     1      -0.730  -1.142   0.021  1.00  0.00    -0.329 N 
HETATM    5  C1  UNK     1      -0.272   0.137   0.561  1.00  0.00     0.164 A 
HETATM    6  C2  UNK     1       0.557   0.614  -0.583  1.00  0.00     0.060 A 
HETATM    7  C3  UNK     1       0.606  -0.243  -1.607  1.00  0.00     0.156 A 
HETATM    8  C4  UNK     1      -0.228  -1.405  -1.254  1.00  0.00     0.279 A 
HETATM    9  C7  UNK     1       1.279   1.886  -0.699  1.00  0.00     0.196 A 
HETATM   10  C8  UNK     1       2.024   2.069  -1.966  1.00  0.00     0.049 A 
HETATM   11  C9  UNK     1       1.981   1.066  -2.947  1.00  0.00     0.090 A 
HETATM   12  C13 UNK     1       2.765   3.233  -2.185  1.00  0.00     0.018 A 
HETATM   13  C14 UNK     1       2.678   1.229  -4.144  1.00  0.00     0.038 A 
HETATM   14  C20 UNK     1       3.461   3.390  -3.385  1.00  0.00     0.001 A 
HETATM   15  C21 UNK     1       3.418   2.392  -4.361  1.00  0.00     0.003 A 
ENDROOT
BRANCH   4  16
HETATM   16  C6  UNK     1      -1.674  -1.988   0.726  1.00  0.00     0.165 C 
BRANCH  16  17
HETATM   17  C10 UNK     1      -3.096  -1.635   0.399  1.00  0.00    -0.037 A 
HETATM   18  C17 UNK     1      -3.741  -2.252  -0.667  1.00  0.00     0.028 A 
HETATM   19  C22 UNK     1      -5.054  -1.892  -0.927  1.00  0.00     0.116 A 
HETATM   20  N2  UNK     1      -5.745  -0.978  -0.208  1.00  0.00    -0.273 NA
HETATM   21  C23 UNK     1      -5.085  -0.400   0.820  1.00  0.00     0.116 A 
HETATM   22  C18 UNK     1      -3.774  -0.690   1.162  1.00  0.00     0.028 A 
ENDBRANCH  16  17
ENDBRANCH   4  16
BRANCH   5  23
HETATM   23  C5  UNK     1       0.519  -0.031   1.813  1.00  0.00     0.008 A 
HETATM   24  C11 UNK     1       0.112   0.601   2.989  1.00  0.00     0.125 A 
HETATM   25  F1  UNK     1      -0.990   1.363   3.003  1.00  0.00    -0.205 F 
HETATM   26  C15 UNK     1       0.855   0.442   4.159  1.00  0.00     0.043 A 
HETATM   27  C19 UNK     1       2.004  -0.348   4.153  1.00  0.00     0.003 A 
HETATM   28  C16 UNK     1       2.411  -0.980   2.978  1.00  0.00     0.001 A 
HETATM   29  C12 UNK     1       1.668  -0.821   1.808  1.00  0.00     0.012 A 
ENDBRANCH   5  23
TORSDOF 3
