REMARK  2 active torsions:
REMARK  status: ('A' for Active; 'I' for Inactive)
REMARK    1  A    between atoms: C14_19  and  O4_4 
REMARK       I    between atoms: C7_12  and  N1_5 
REMARK    2  A    between atoms: C7_12  and  C8_13 
ROOT
HETATM    1  O2  UNK     1      -2.038  -1.213  -0.476  1.00  0.00    -0.271 OA
HETATM    2  O3  UNK     1      -1.241  -0.810  -2.579  1.00  0.00    -0.259 OA
HETATM    3  C8  UNK     1      -0.561   0.693  -0.879  1.00  0.00     0.108 A 
HETATM    4  C9  UNK     1      -0.617   1.044   0.412  1.00  0.00     0.037 A 
HETATM    5  C10 UNK     1      -1.290  -0.485  -1.398  1.00  0.00     0.304 A 
HETATM    6  C11 UNK     1      -1.408   0.263   1.350  1.00  0.00     0.002 A 
HETATM    7  C12 UNK     1      -2.101  -0.850   0.883  1.00  0.00     0.123 A 
HETATM    8  C13 UNK     1      -1.495   0.591   2.705  1.00  0.00     0.014 A 
HETATM    9  C14 UNK     1      -2.876  -1.640   1.730  1.00  0.00     0.102 A 
HETATM   10  C15 UNK     1      -2.268  -0.192   3.567  1.00  0.00     0.004 A 
HETATM   11  C16 UNK     1      -2.957  -1.305   3.080  1.00  0.00     0.040 A 
ENDROOT
BRANCH   3  12
HETATM   12  C7  UNK     1       0.268   1.549  -1.752  1.00  0.00     0.259 C 
HETATM   13  O1  UNK     1      -0.283   2.505  -2.300  1.00  0.00    -0.267 OA
HETATM   14  N1  UNK     1       1.612   1.215  -1.901  1.00  0.00    -0.348 N 
HETATM   15  C4  UNK     1       2.459   2.042  -2.765  1.00  0.00     0.126 C 
HETATM   16  C5  UNK     1       2.295   0.062  -1.295  1.00  0.00     0.126 C 
HETATM   17  C2  UNK     1       3.707   2.520  -2.029  1.00  0.00     0.024 C 
HETATM   18  C1  UNK     1       4.482   1.336  -1.435  1.00  0.00    -0.015 C 
HETATM   19  C3  UNK     1       3.554   0.498  -0.545  1.00  0.00     0.024 C 
HETATM   20  C6  UNK     1       5.697   1.821  -0.649  1.00  0.00     0.010 C 
ENDBRANCH   3  12
BRANCH   9  21
HETATM   21  O4  UNK     1      -3.548  -2.725   1.260  1.00  0.00    -0.353 OA
HETATM   22  C17 UNK     1      -2.859  -3.975   1.278  1.00  0.00     0.210 C 
ENDBRANCH   9  21
TORSDOF 2
