REMARK  5 active torsions:
REMARK  status: ('A' for Active; 'I' for Inactive)
REMARK    1  A    between atoms: C10_17  and  O1_2 
REMARK    2  A    between atoms: C11_18  and  O1_2 
REMARK       I    between atoms: C12_19  and  N1_7 
REMARK    3  A    between atoms: C9_16  and  N1_7 
REMARK    4  A    between atoms: C10_17  and  C8_15 
REMARK    5  A    between atoms: C12_19  and  C13_20 
ROOT
HETATM    1  S1  UNK     1      -2.508  -1.097  -1.259  1.00  0.00    -0.075 SA
HETATM    2  C1  UNK     1      -5.066  -1.710   2.646  1.00  0.00     0.005 C 
HETATM    3  C2  UNK     1      -6.189  -2.136   1.696  1.00  0.00     0.001 C 
HETATM    4  C3  UNK     1      -3.720  -2.378   2.365  1.00  0.00     0.041 C 
HETATM    5  C4  UNK     1      -6.053  -1.629   0.257  1.00  0.00     0.005 C 
HETATM    6  C5  UNK     1      -3.026  -1.826   1.158  1.00  0.00    -0.026 A 
HETATM    7  C6  UNK     1      -4.922  -2.285  -0.537  1.00  0.00     0.046 C 
HETATM    8  C7  UNK     1      -3.572  -1.793  -0.114  1.00  0.00    -0.008 A 
HETATM    9  C8  UNK     1      -1.708  -1.263   1.168  1.00  0.00     0.080 A 
HETATM   10  C9  UNK     1      -1.307  -0.830  -0.075  1.00  0.00     0.094 A 
ENDROOT
BRANCH  10  11
HETATM   11  N1  UNK     1      -0.145  -0.244  -0.499  1.00  0.00    -0.316 N 
HETATM   12  C12 UNK     1       0.160   0.162  -1.805  1.00  0.00     0.262 C 
HETATM   13  O3  UNK     1      -0.534   0.077  -2.811  1.00  0.00    -0.267 OA
HETATM   14  H11 UNK     1       0.541  -0.084   0.233  1.00  0.00     0.169 HD
BRANCH  12  15
HETATM   15  C13 UNK     1       1.508   0.760  -1.910  1.00  0.00     0.108 A 
HETATM   16  C16 UNK     1       1.669   1.693  -2.856  1.00  0.00     0.037 A 
HETATM   17  C17 UNK     1       2.959   2.339  -3.036  1.00  0.00    -0.001 A 
HETATM   18  C19 UNK     1       4.018   1.971  -2.212  1.00  0.00     0.089 A 
HETATM   19  C20 UNK     1       3.173   3.318  -4.010  1.00  0.00     0.014 A 
HETATM   20  O4  UNK     1       3.842   0.988  -1.218  1.00  0.00    -0.274 OA
HETATM   21  C21 UNK     1       5.279   2.550  -2.333  1.00  0.00     0.038 A 
HETATM   22  C18 UNK     1       2.619   0.353  -1.021  1.00  0.00     0.304 A 
HETATM   23  O5  UNK     1       2.476  -0.503  -0.154  1.00  0.00    -0.259 OA
HETATM   24  C23 UNK     1       5.483   3.525  -3.307  1.00  0.00     0.003 A 
HETATM   25  C22 UNK     1       4.433   3.909  -4.144  1.00  0.00     0.001 A 
ENDBRANCH  12  15
ENDBRANCH  10  11
BRANCH   9  26
HETATM   26  C10 UNK     1      -0.853  -1.140   2.324  1.00  0.00     0.297 C 
HETATM   27  O2  UNK     1      -0.875  -1.922   3.284  1.00  0.00    -0.259 OA
BRANCH  26  28
HETATM   28  O1  UNK     1       0.004  -0.063   2.271  1.00  0.00    -0.313 OA
BRANCH  28  29
HETATM   29  C11 UNK     1       0.378   0.526   3.522  1.00  0.00     0.124 C 
HETATM   30  C14 UNK     1       1.347   1.671   3.266  1.00  0.00     0.040 C 
HETATM   31  C15 UNK     1      -0.873   0.994   4.249  1.00  0.00     0.040 C 
ENDBRANCH  28  29
ENDBRANCH  26  28
ENDBRANCH   9  26
TORSDOF 5
