REMARK  3 active torsions:
REMARK  status: ('A' for Active; 'I' for Inactive)
REMARK    1  A    between atoms: C10_15  and  S1_1 
REMARK    2  A    between atoms: C5_10  and  N1_5 
REMARK       I    between atoms: C6_11  and  N1_5 
REMARK    3  A    between atoms: C2_7  and  C6_11 
ROOT
HETATM    1  O2  UNK     1       0.807  -0.406   1.936  1.00  0.00    -0.267 OA
HETATM    2  N1  UNK     1      -1.125  -0.394   0.590  1.00  0.00    -0.322 N 
HETATM    3  C6  UNK     1       0.216  -0.188   0.880  1.00  0.00     0.262 C 
HETATM    4  H3  UNK     1      -1.469  -0.141  -0.333  1.00  0.00     0.169 HD
ENDROOT
BRANCH   3   5
HETATM    5  C2  UNK     1       0.953   0.358  -0.267  1.00  0.00     0.108 A 
HETATM    6  C4  UNK     1       1.997   1.144   0.021  1.00  0.00     0.037 A 
HETATM    7  C1  UNK     1       2.789   1.732  -1.049  1.00  0.00    -0.001 A 
HETATM    8  C3  UNK     1       2.442   1.463  -2.369  1.00  0.00     0.089 A 
HETATM    9  C7  UNK     1       3.886   2.558  -0.795  1.00  0.00     0.014 A 
HETATM   10  O1  UNK     1       1.342   0.635  -2.665  1.00  0.00    -0.274 OA
HETATM   11  C9  UNK     1       3.158   1.996  -3.439  1.00  0.00     0.038 A 
HETATM   12  C8  UNK     1       0.566   0.058  -1.664  1.00  0.00     0.304 A 
HETATM   13  O3  UNK     1      -0.391  -0.661  -1.931  1.00  0.00    -0.259 OA
HETATM   14  C13 UNK     1       4.251   2.819  -3.177  1.00  0.00     0.003 A 
HETATM   15  C12 UNK     1       4.615   3.099  -1.858  1.00  0.00     0.001 A 
ENDBRANCH   3   5
BRANCH   2  16
HETATM   16  C5  UNK     1      -2.126  -0.905   1.452  1.00  0.00     0.051 A 
HETATM   17  C10 UNK     1      -3.434  -1.055   1.020  1.00  0.00     0.026 A 
HETATM   18  C14 UNK     1      -4.391  -1.562   1.900  1.00  0.00     0.021 A 
HETATM   19  C16 UNK     1      -4.028  -1.912   3.200  1.00  0.00     0.002 A 
HETATM   20  C15 UNK     1      -2.707  -1.755   3.621  1.00  0.00     0.002 A 
HETATM   21  C11 UNK     1      -1.750  -1.249   2.741  1.00  0.00     0.031 A 
BRANCH  17  22
HETATM   22  S1  UNK     1      -3.960  -0.620  -0.635  1.00  0.00    -0.132 SA
HETATM   23  C17 UNK     1      -4.578  -2.210  -1.248  1.00  0.00     0.095 C 
ENDBRANCH  17  22
ENDBRANCH   2  16
TORSDOF 3
