REMARK  6 active torsions:
REMARK  status: ('A' for Active; 'I' for Inactive)
REMARK    1  A    between atoms: C2_6  and  O1_1 
REMARK    2  A    between atoms: C3_7  and  O2_2 
REMARK    3  A    between atoms: C4_8  and  O3_3 
REMARK    4  A    between atoms: C1_5  and  C7_11 
REMARK    5  A    between atoms: C7_11  and  C8_12 
REMARK    6  A    between atoms: C10_14  and  C9_13 
ROOT
HETATM    1  C1  UNK     1      -0.940   0.152   0.679  1.00  0.00     0.081 A 
HETATM    2  C2  UNK     1      -1.736  -0.664  -0.125  1.00  0.00     0.087 A 
HETATM    3  C3  UNK     1      -1.084   0.118   2.066  1.00  0.00     0.087 A 
HETATM    4  C4  UNK     1      -2.820  -1.548   1.846  1.00  0.00     0.073 A 
HETATM    5  C5  UNK     1      -2.676  -1.514   0.458  1.00  0.00     0.074 A 
HETATM    6  C6  UNK     1      -2.024  -0.732   2.649  1.00  0.00     0.074 A 
ENDROOT
BRANCH   1   7
HETATM    7  C7  UNK     1       0.060   1.055   0.060  1.00  0.00     0.187 C 
HETATM    8  O4  UNK     1       1.244   0.946   0.358  1.00  0.00    -0.287 OA
BRANCH   7   9
HETATM    9  C8  UNK     1      -0.438   2.090  -0.889  1.00  0.00     0.056 C 
HETATM   10  C10 UNK     1       0.356   2.539  -1.887  1.00  0.00     0.015 C 
BRANCH  10  11
HETATM   11  C9  UNK     1       1.716   2.092  -2.142  1.00  0.00    -0.036 A 
HETATM   12  C11 UNK     1       2.769   3.006  -2.106  1.00  0.00     0.011 A 
HETATM   13  C15 UNK     1       4.074   2.578  -2.352  1.00  0.00     0.001 A 
HETATM   14  C17 UNK     1       4.325   1.235  -2.632  1.00  0.00     0.000 A 
HETATM   15  C16 UNK     1       3.272   0.321  -2.668  1.00  0.00     0.001 A 
HETATM   16  C12 UNK     1       1.968   0.749  -2.423  1.00  0.00     0.011 A 
ENDBRANCH  10  11
ENDBRANCH   7   9
ENDBRANCH   1   7
BRANCH   2  17
HETATM   17  O1  UNK     1      -1.611  -0.647  -1.482  1.00  0.00    -0.355 OA
HETATM   18  C13 UNK     1      -2.467  -1.515  -2.221  1.00  0.00     0.210 C 
ENDBRANCH   2  17
BRANCH   3  19
HETATM   19  O2  UNK     1      -0.317   0.906   2.871  1.00  0.00    -0.355 OA
HETATM   20  C14 UNK     1      -0.826   2.201   3.185  1.00  0.00     0.210 C 
ENDBRANCH   3  19
BRANCH   4  21
HETATM   21  O3  UNK     1      -3.736  -2.378   2.414  1.00  0.00    -0.356 OA
HETATM   22  C18 UNK     1      -4.516  -3.185   1.533  1.00  0.00     0.210 C 
ENDBRANCH   4  21
TORSDOF 6
