REMARK  5 active torsions:
REMARK  status: ('A' for Active; 'I' for Inactive)
REMARK    1  A    between atoms: C12_19  and  O3_4 
REMARK    2  A    between atoms: C20_27  and  O3_4 
REMARK    3  A    between atoms: C7_14  and  N1_7 
REMARK    4  A    between atoms: C1_8  and  C5_12 
REMARK    5  A    between atoms: C12_19  and  C3_10 
ROOT
HETATM    1  O1  UNK     1       0.582  -0.146  -2.457  1.00  0.00    -0.292 OA
HETATM    2  O2  UNK     1       2.153   2.554   0.328  1.00  0.00    -0.274 OA
HETATM    3  O4  UNK     1       0.359   2.199   1.690  1.00  0.00    -0.259 OA
HETATM    4  C1  UNK     1      -0.862   0.213  -0.001  1.00  0.00     0.104 C 
HETATM    5  C2  UNK     1       0.425   0.947  -0.330  1.00  0.00     0.066 A 
HETATM    6  C3  UNK     1      -1.407  -0.536  -1.206  1.00  0.00     0.081 C 
HETATM    7  C4  UNK     1       1.058   0.726  -1.493  1.00  0.00     0.104 A 
HETATM    8  C6  UNK     1       2.314   1.401  -1.808  1.00  0.00     0.033 A 
HETATM    9  C7  UNK     1      -0.697  -0.695  -2.343  1.00  0.00     0.155 C 
HETATM   10  C8  UNK     1       0.949   1.935   0.647  1.00  0.00     0.298 A 
HETATM   11  C9  UNK     1       2.831   2.298  -0.879  1.00  0.00     0.092 A 
HETATM   12  C13 UNK     1       3.030   1.192  -2.993  1.00  0.00     0.017 A 
HETATM   13  C14 UNK     1       4.028   2.983  -1.094  1.00  0.00     0.038 A 
HETATM   14  C17 UNK     1       4.231   1.871  -3.225  1.00  0.00     0.001 A 
HETATM   15  C19 UNK     1       4.729   2.765  -2.276  1.00  0.00     0.003 A 
ENDROOT
BRANCH   4  16
HETATM   16  C5  UNK     1      -0.645  -0.734   1.143  1.00  0.00    -0.043 A 
HETATM   17  C10 UNK     1      -1.357  -0.562   2.325  1.00  0.00     0.027 A 
HETATM   18  C15 UNK     1      -1.156  -1.443   3.387  1.00  0.00     0.011 A 
HETATM   19 Br1  UNK     1      -2.118  -1.218   4.998  1.00  0.00    -0.051 Br
HETATM   20  C18 UNK     1      -0.245  -2.492   3.260  1.00  0.00     0.019 A 
HETATM   21  C16 UNK     1       0.466  -2.658   2.072  1.00  0.00     0.002 A 
HETATM   22  C11 UNK     1       0.265  -1.777   1.010  1.00  0.00     0.008 A 
ENDBRANCH   4  16
BRANCH   6  23
HETATM   23  C12 UNK     1      -2.778  -1.063  -1.085  1.00  0.00     0.294 C 
HETATM   24  O5  UNK     1      -3.167  -2.052  -1.675  1.00  0.00    -0.259 OA
BRANCH  23  25
HETATM   25  O3  UNK     1      -3.467  -0.267  -0.233  1.00  0.00    -0.318 OA
BRANCH  25  26
HETATM   26  C20 UNK     1      -4.827  -0.653  -0.010  1.00  0.00     0.174 C 
HETATM   27  C21 UNK     1      -5.464   0.323   0.956  1.00  0.00     0.034 C 
ENDBRANCH  25  26
ENDBRANCH  23  25
ENDBRANCH   6  23
BRANCH   9  28
HETATM   28  N1  UNK     1      -1.100  -1.362  -3.464  1.00  0.00    -0.379 N 
HETATM   29  H7  UNK     1      -0.473  -1.410  -4.258  1.00  0.00     0.158 HD
HETATM   30  H8  UNK     1      -2.010  -1.802  -3.504  1.00  0.00     0.158 HD
ENDBRANCH   9  28
TORSDOF 5
