REMARK  6 active torsions:
REMARK  status: ('A' for Active; 'I' for Inactive)
REMARK    1  A    between atoms: C15_20  and  O1_3 
REMARK    2  A    between atoms: C4_9  and  O1_3 
REMARK    3  A    between atoms: C1_6  and  C13_18 
REMARK    4  A    between atoms: C15_20  and  C2_7 
REMARK    5  A    between atoms: C13_18  and  C16_21 
REMARK    6  A    between atoms: C14_19  and  C17_22 
ROOT
HETATM    1  C1  UNK     1      -1.144  -0.682  -1.144  1.00  0.00     0.014 A 
HETATM    2  C4  UNK     1       1.241   0.553  -1.896  1.00  0.00     0.079 A 
HETATM    3  C5  UNK     1      -0.082  -0.610  -0.243  1.00  0.00     0.018 A 
HETATM    4  C6  UNK     1      -1.014  -0.137  -2.421  1.00  0.00     0.018 A 
HETATM    5  C9  UNK     1       1.111   0.007  -0.619  1.00  0.00     0.038 A 
HETATM    6  C10 UNK     1       0.179   0.480  -2.797  1.00  0.00     0.038 A 
ENDROOT
BRANCH   1   7
HETATM    7  C13 UNK     1      -2.387  -1.327  -0.751  1.00  0.00     0.182 C 
HETATM    8  O2  UNK     1      -3.115  -1.872  -1.594  1.00  0.00    -0.288 OA
BRANCH   7   9
HETATM    9  C16 UNK     1      -2.790  -1.293   0.696  1.00  0.00     0.056 C 
HETATM   10  C17 UNK     1      -3.941  -1.851   1.099  1.00  0.00     0.017 C 
BRANCH  10  11
HETATM   11  C14 UNK     1      -4.426  -1.855   2.490  1.00  0.00    -0.014 A 
HETATM   12  C19 UNK     1      -4.120  -2.886   3.365  1.00  0.00     0.045 A 
HETATM   13 Cl1  UNK     1      -3.153  -4.242   2.898  1.00  0.00    -0.083 Cl
HETATM   14  C21 UNK     1      -4.602  -2.842   4.673  1.00  0.00     0.048 A 
HETATM   15  C23 UNK     1      -5.386  -1.767   5.092  1.00  0.00     0.035 A 
HETATM   16  C22 UNK     1      -5.688  -0.736   4.202  1.00  0.00     0.024 A 
HETATM   17 Cl2  UNK     1      -5.984  -1.713   6.705  1.00  0.00    -0.084 Cl
HETATM   18  C20 UNK     1      -5.205  -0.780   2.894  1.00  0.00     0.015 A 
ENDBRANCH  10  11
ENDBRANCH   7   9
ENDBRANCH   1   7
BRANCH   2  19
HETATM   19  O1  UNK     1       2.406   1.153  -2.264  1.00  0.00    -0.275 OA
BRANCH  19  20
HETATM   20  C15 UNK     1       2.460   2.522  -1.989  1.00  0.00     0.298 C 
HETATM   21  O3  UNK     1       1.574   3.176  -1.458  1.00  0.00    -0.259 OA
BRANCH  20  22
HETATM   22  C2  UNK     1       3.756   3.106  -2.417  1.00  0.00     0.040 A 
HETATM   23  C7  UNK     1       4.265   4.183  -1.721  1.00  0.00     0.018 A 
HETATM   24  C11 UNK     1       5.484   4.730  -2.123  1.00  0.00     0.007 A 
HETATM   25  C3  UNK     1       6.167   4.188  -3.211  1.00  0.00    -0.062 A 
HETATM   26  C12 UNK     1       5.631   3.099  -3.898  1.00  0.00     0.007 A 
HETATM   27  C18 UNK     1       7.469   4.774  -3.641  1.00  0.00     0.048 C 
HETATM   28  C8  UNK     1       4.413   2.552  -3.497  1.00  0.00     0.018 A 
ENDBRANCH  20  22
ENDBRANCH  19  20
ENDBRANCH   2  19
TORSDOF 6
