REMARK  4 active torsions:
REMARK  status: ('A' for Active; 'I' for Inactive)
REMARK    1  A    between atoms: C7_16  and  O2_3 
REMARK    2  A    between atoms: C4_13  and  N1_8 
REMARK       I    between atoms: C6_15  and  N1_8 
REMARK    3  A    between atoms: C13_22  and  N2_9 
REMARK    4  A    between atoms: C2_11  and  C6_15 
ROOT
HETATM    1  O3  UNK     1       1.096  -0.379   1.460  1.00  0.00    -0.267 OA
HETATM    2  N1  UNK     1      -0.808  -0.242   0.079  1.00  0.00    -0.320 N 
HETATM    3  C6  UNK     1       0.533  -0.091   0.406  1.00  0.00     0.262 C 
HETATM    4  H2  UNK     1      -1.123   0.070  -0.836  1.00  0.00     0.169 HD
ENDROOT
BRANCH   3   5
HETATM    5  C2  UNK     1       1.307   0.491  -0.697  1.00  0.00     0.108 A 
HETATM    6  C9  UNK     1       0.939   0.274  -2.115  1.00  0.00     0.304 A 
HETATM    7  O1  UNK     1       1.751   0.878  -3.071  1.00  0.00    -0.274 OA
HETATM    8  O4  UNK     1      -0.032  -0.403  -2.436  1.00  0.00    -0.259 OA
HETATM    9  C3  UNK     1       2.867   1.658  -2.711  1.00  0.00     0.089 A 
HETATM   10  C1  UNK     1       3.195   1.849  -1.373  1.00  0.00     0.001 A 
HETATM   11  C11 UNK     1       3.619   2.224  -3.739  1.00  0.00     0.040 A 
HETATM   12  C5  UNK     1       2.366   1.230  -0.350  1.00  0.00     0.037 A 
HETATM   13  C8  UNK     1       4.310   2.629  -1.057  1.00  0.00     0.038 A 
HETATM   14  C15 UNK     1       5.075   3.203  -2.077  1.00  0.00     0.035 A 
HETATM   15 Cl1  UNK     1       6.448   4.164  -1.683  1.00  0.00    -0.084 Cl
HETATM   16  C16 UNK     1       4.730   3.000  -3.415  1.00  0.00     0.026 A 
ENDBRANCH   3   5
BRANCH   2  17
HETATM   17  C4  UNK     1      -1.823  -0.763   0.892  1.00  0.00     0.068 A 
HETATM   18  C10 UNK     1      -1.510  -1.191   2.180  1.00  0.00     0.035 A 
HETATM   19  C14 UNK     1      -2.511  -1.712   3.001  1.00  0.00     0.038 A 
HETATM   20  C13 UNK     1      -3.821  -1.803   2.531  1.00  0.00     0.105 A 
HETATM   21  C12 UNK     1      -4.130  -1.374   1.241  1.00  0.00     0.075 A 
HETATM   22  C7  UNK     1      -3.130  -0.853   0.420  1.00  0.00     0.097 A 
BRANCH  20  23
HETATM   23  N2  UNK     1      -4.839  -2.334   3.367  1.00  0.00    -0.116 N 
HETATM   24  O5  UNK     1      -4.538  -2.715   4.524  1.00  0.00    -0.532 OA
HETATM   25  O6  UNK     1      -6.011  -2.408   2.925  1.00  0.00    -0.532 OA
ENDBRANCH  20  23
BRANCH  22  26
HETATM   26  O2  UNK     1      -3.453  -0.440  -0.838  1.00  0.00    -0.354 OA
HETATM   27  C17 UNK     1      -3.366  -1.409  -1.880  1.00  0.00     0.210 C 
ENDBRANCH  22  26
ENDBRANCH   2  17
TORSDOF 4
