REMARK  2 active torsions:
REMARK  status: ('A' for Active; 'I' for Inactive)
REMARK    1  A    between atoms: C15_18  and  O3_3 
REMARK    2  A    between atoms: C2_5  and  C4_7 
ROOT
HETATM    1  O1  UNK     1      -0.380   0.540   0.840  1.00  0.00    -0.309 OA
HETATM    2  O2  UNK     1      -2.758  -1.982  -1.300  1.00  0.00    -0.287 OA
HETATM    3  C1  UNK     1      -2.279  -0.973   0.782  1.00  0.00     0.048 A 
HETATM    4  C2  UNK     1      -0.169   0.313  -0.511  1.00  0.00     0.090 A 
HETATM    5  C3  UNK     1      -1.426  -0.100   1.455  1.00  0.00     0.090 A 
HETATM    6  C5  UNK     1      -2.052  -1.224  -0.649  1.00  0.00     0.187 A 
HETATM    7  C6  UNK     1      -0.916  -0.509  -1.265  1.00  0.00     0.093 A 
HETATM    8  C7  UNK     1      -3.328  -1.598   1.460  1.00  0.00     0.018 A 
HETATM    9  C8  UNK     1      -1.618   0.154   2.813  1.00  0.00     0.038 A 
HETATM   10  C11 UNK     1      -3.518  -1.342   2.818  1.00  0.00     0.001 A 
HETATM   11  C12 UNK     1      -2.665  -0.468   3.494  1.00  0.00     0.003 A 
ENDROOT
BRANCH   4  12
HETATM   12  C4  UNK     1       0.984   1.047  -1.070  1.00  0.00    -0.002 A 
HETATM   13  C10 UNK     1       1.347   2.289  -0.543  1.00  0.00     0.017 A 
HETATM   14  C14 UNK     1       2.436   2.983  -1.070  1.00  0.00     0.037 A 
HETATM   15  C15 UNK     1       3.166   2.438  -2.127  1.00  0.00     0.065 A 
HETATM   16  C13 UNK     1       2.806   1.198  -2.656  1.00  0.00     0.037 A 
HETATM   17  C9  UNK     1       1.717   0.504  -2.128  1.00  0.00     0.017 A 
BRANCH  15  18
HETATM   18  O3  UNK     1       4.228   3.114  -2.642  1.00  0.00    -0.361 OA
HETATM   19  H10 UNK     1       4.333   3.951  -2.157  1.00  0.00     0.217 HD
ENDBRANCH  15  18
ENDBRANCH   4  12
TORSDOF 2
