REMARK  5 active torsions:
REMARK  status: ('A' for Active; 'I' for Inactive)
REMARK    1  A    between atoms: C20_27  and  O3_4 
REMARK       I    between atoms: C12_19  and  N2_7 
REMARK    2  A    between atoms: C6_13  and  N2_7 
REMARK    3  A    between atoms: C1_8  and  C2_9 
REMARK    4  A    between atoms: C2_9  and  C6_13 
REMARK    5  A    between atoms: C12_19  and  C13_20 
ROOT
HETATM    1  O2  UNK     1      -1.987   1.256  -2.711  1.00  0.00    -0.267 OA
HETATM    2  N2  UNK     1      -1.963  -0.772  -1.562  1.00  0.00    -0.356 N 
HETATM    3  C12 UNK     1      -1.388   0.335  -2.158  1.00  0.00     0.257 C 
HETATM    4  H10 UNK     1      -1.381  -1.464  -1.101  1.00  0.00     0.162 HD
ENDROOT
BRANCH   2   5
HETATM    5  C6  UNK     1      -3.392  -0.990  -1.517  1.00  0.00     0.127 C 
BRANCH   5   6
HETATM    6  C2  UNK     1      -4.038  -0.384  -0.272  1.00  0.00     0.061 C 
BRANCH   6   7
HETATM    7  C1  UNK     1      -3.515  -0.964   1.010  1.00  0.00    -0.022 A 
HETATM    8  C3  UNK     1      -2.414  -0.473   1.740  1.00  0.00     0.001 A 
HETATM    9  C5  UNK     1      -2.280  -1.305   2.854  1.00  0.00     0.065 A 
HETATM   10  C7  UNK     1      -1.508   0.593   1.577  1.00  0.00     0.014 A 
HETATM   11  N1  UNK     1      -3.276  -2.252   2.774  1.00  0.00    -0.357 N 
HETATM   12  C9  UNK     1      -1.282  -1.122   3.817  1.00  0.00     0.061 A 
HETATM   13  C4  UNK     1      -4.032  -2.049   1.651  1.00  0.00     0.013 A 
HETATM   14  H3  UNK     1      -3.423  -2.989   3.450  1.00  0.00     0.166 HD
HETATM   15  C8  UNK     1      -5.169  -2.933   1.330  1.00  0.00     0.068 C 
HETATM   16  C11 UNK     1      -0.394  -0.058   3.635  1.00  0.00     0.026 A 
HETATM   17 Cl1  UNK     1      -1.136  -2.157   5.180  1.00  0.00    -0.082 Cl
HETATM   18  C10 UNK     1      -0.504   0.788   2.533  1.00  0.00     0.003 A 
ENDBRANCH   6   7
ENDBRANCH   5   6
ENDBRANCH   2   5
BRANCH   3  19
HETATM   19  C13 UNK     1       0.077   0.332  -2.074  1.00  0.00     0.108 A 
HETATM   20  C15 UNK     1       0.669   1.532  -2.030  1.00  0.00     0.037 A 
HETATM   21  C14 UNK     1       2.118   1.631  -1.945  1.00  0.00     0.002 A 
HETATM   22  C16 UNK     1       2.872   0.463  -1.910  1.00  0.00     0.089 A 
HETATM   23  C18 UNK     1       2.779   2.861  -1.896  1.00  0.00     0.051 A 
HETATM   24  O1  UNK     1       2.243  -0.797  -1.957  1.00  0.00    -0.274 OA
HETATM   25  C19 UNK     1       4.263   0.489  -1.830  1.00  0.00     0.041 A 
HETATM   26  C17 UNK     1       0.859  -0.924  -2.039  1.00  0.00     0.304 A 
HETATM   27  O4  UNK     1       0.320  -2.024  -2.078  1.00  0.00    -0.259 OA
HETATM   28  C21 UNK     1       4.914   1.720  -1.782  1.00  0.00     0.039 A 
HETATM   29  C20 UNK     1       4.174   2.904  -1.815  1.00  0.00     0.069 A 
BRANCH  29  30
HETATM   30  O3  UNK     1       4.814   4.105  -1.768  1.00  0.00    -0.356 OA
HETATM   31  C22 UNK     1       6.237   4.078  -1.686  1.00  0.00     0.210 C 
ENDBRANCH  29  30
ENDBRANCH   3  19
TORSDOF 5
