REMARK  7 active torsions:
REMARK  status: ('A' for Active; 'I' for Inactive)
REMARK    1  A    between atoms: C1_8  and  O1_1 
REMARK    2  A    between atoms: C24_31  and  O6_6 
REMARK    3  A    between atoms: C6_13  and  N1_7 
REMARK    4  A    between atoms: C1_8  and  C5_12 
REMARK    5  A    between atoms: C5_12  and  C9_16 
REMARK    6  A    between atoms: C10_17  and  C6_13 
REMARK    7  A    between atoms: C13_20  and  C9_16 
ROOT
HETATM    1  O2  UNK     1       1.917  -1.396  -1.087  1.00  0.00    -0.269 OA
HETATM    2  N1  UNK     1       2.912   0.685  -1.591  1.00  0.00    -0.310 N 
HETATM    3  C1  UNK     1       0.893   0.143  -2.705  1.00  0.00     0.175 A 
HETATM    4  C2  UNK     1       1.427   1.483  -3.130  1.00  0.00     0.013 A 
HETATM    5  C3  UNK     1       2.613   1.754  -2.447  1.00  0.00     0.047 A 
HETATM    6  C4  UNK     1       1.944  -0.327  -1.680  1.00  0.00     0.264 A 
HETATM    7  C7  UNK     1       0.914   2.386  -4.045  1.00  0.00     0.013 A 
HETATM    8  C8  UNK     1       3.319   2.927  -2.649  1.00  0.00     0.030 A 
HETATM    9  C11 UNK     1       1.614   3.576  -4.262  1.00  0.00     0.001 A 
HETATM   10  C12 UNK     1       2.807   3.844  -3.569  1.00  0.00     0.002 A 
ENDROOT
BRANCH   3  11
HETATM   11  O1  UNK     1       0.908  -0.751  -3.801  1.00  0.00    -0.375 OA
HETATM   12  H7  UNK     1       0.707  -1.645  -3.479  1.00  0.00     0.211 HD
ENDBRANCH   3  11
BRANCH   3  13
HETATM   13  C5  UNK     1      -0.493   0.214  -2.081  1.00  0.00     0.137 C 
BRANCH  13  14
HETATM   14  C9  UNK     1      -0.999  -1.146  -1.652  1.00  0.00     0.169 C 
HETATM   15  O3  UNK     1      -0.704  -2.196  -2.216  1.00  0.00    -0.292 OA
BRANCH  14  16
HETATM   16  C13 UNK     1      -1.901  -1.169  -0.483  1.00  0.00     0.086 A 
HETATM   17  C16 UNK     1      -1.864  -2.273   0.271  1.00  0.00     0.035 A 
HETATM   18  C18 UNK     1      -2.715  -2.389   1.445  1.00  0.00     0.002 A 
HETATM   19  C19 UNK     1      -3.566  -1.336   1.765  1.00  0.00     0.123 A 
HETATM   20  C23 UNK     1      -2.708  -3.523   2.261  1.00  0.00     0.014 A 
HETATM   21  O4  UNK     1      -3.602  -0.176   0.967  1.00  0.00    -0.271 OA
HETATM   22  C24 UNK     1      -4.408  -1.384   2.875  1.00  0.00     0.102 A 
HETATM   23  C17 UNK     1      -2.798  -0.036  -0.161  1.00  0.00     0.302 A 
HETATM   24  O5  UNK     1      -2.835   0.978  -0.850  1.00  0.00    -0.259 OA
HETATM   25  C26 UNK     1      -4.394  -2.519   3.684  1.00  0.00     0.040 A 
HETATM   26  C25 UNK     1      -3.547  -3.586   3.378  1.00  0.00     0.004 A 
BRANCH  22  27
HETATM   27  O6  UNK     1      -5.235  -0.348   3.177  1.00  0.00    -0.353 OA
HETATM   28  C27 UNK     1      -6.543  -0.373   2.607  1.00  0.00     0.210 C 
ENDBRANCH  22  27
ENDBRANCH  14  16
ENDBRANCH  13  14
ENDBRANCH   3  13
BRANCH   2  29
HETATM   29  C6  UNK     1       4.081   0.650  -0.745  1.00  0.00     0.170 C 
BRANCH  29  30
HETATM   30  C10 UNK     1       3.752   1.250   0.588  1.00  0.00    -0.040 A 
HETATM   31  C14 UNK     1       3.930   2.615   0.794  1.00  0.00     0.009 A 
HETATM   32  C20 UNK     1       3.624   3.174   2.035  1.00  0.00     0.001 A 
HETATM   33  C22 UNK     1       3.143   2.365   3.065  1.00  0.00     0.000 A 
HETATM   34  C21 UNK     1       2.967   0.997   2.853  1.00  0.00     0.001 A 
HETATM   35  C15 UNK     1       3.273   0.439   1.612  1.00  0.00     0.009 A 
ENDBRANCH  29  30
ENDBRANCH   2  29
TORSDOF 7
