REMARK  4 active torsions:
REMARK  status: ('A' for Active; 'I' for Inactive)
REMARK    1  A    between atoms: C1_8  and  N1_5 
REMARK       I    between atoms: C4_11  and  N1_5 
REMARK    2  A    between atoms: C6_13  and  N2_6 
REMARK    3  A    between atoms: C1_8  and  C2_9 
REMARK    4  A    between atoms: C4_11  and  C5_12 
ROOT
HETATM    1 Br1  UNK     1       5.638   2.256   1.329  1.00  0.00    -0.051 Br
HETATM    2  O1  UNK     1       1.567   1.625  -3.124  1.00  0.00    -0.274 OA
HETATM    3  O3  UNK     1      -0.376   0.727  -3.924  1.00  0.00    -0.259 OA
HETATM    4  C5  UNK     1       0.239   0.131  -1.715  1.00  0.00     0.108 A 
HETATM    5  C9  UNK     1       2.300   1.085  -0.870  1.00  0.00     0.000 A 
HETATM    6  C10 UNK     1       1.119   0.250  -0.713  1.00  0.00     0.037 A 
HETATM    7  C11 UNK     1       2.496   1.754  -2.074  1.00  0.00     0.089 A 
HETATM    8  C12 UNK     1       0.428   0.833  -3.004  1.00  0.00     0.304 A 
HETATM    9  C14 UNK     1       3.244   1.238   0.148  1.00  0.00     0.033 A 
HETATM   10  C15 UNK     1       3.606   2.570  -2.288  1.00  0.00     0.039 A 
HETATM   11  C16 UNK     1       4.363   2.053  -0.052  1.00  0.00     0.011 A 
HETATM   12  C17 UNK     1       4.543   2.717  -1.267  1.00  0.00     0.022 A 
ENDROOT
BRANCH   4  13
HETATM   13  C4  UNK     1      -0.919  -0.734  -1.461  1.00  0.00     0.259 C 
HETATM   14  O2  UNK     1      -0.824  -1.936  -1.734  1.00  0.00    -0.267 OA
HETATM   15  N1  UNK     1      -2.061  -0.143  -0.911  1.00  0.00    -0.348 N 
HETATM   16  C8  UNK     1      -2.128   1.284  -0.604  1.00  0.00     0.153 C 
BRANCH  15  17
HETATM   17  C1  UNK     1      -3.261  -0.910  -0.605  1.00  0.00     0.167 C 
BRANCH  17  18
HETATM   18  C2  UNK     1      -3.182  -1.427   0.790  1.00  0.00    -0.004 A 
HETATM   19  C3  UNK     1      -3.624  -0.809   1.921  1.00  0.00     0.122 A 
HETATM   20  N2  UNK     1      -3.331  -1.669   2.938  1.00  0.00    -0.281 N 
HETATM   21  N3  UNK     1      -2.730  -2.802   2.535  1.00  0.00    -0.185 NA
HETATM   22  C7  UNK     1      -2.642  -2.644   1.212  1.00  0.00     0.149 A 
BRANCH  20  23
HETATM   23  C6  UNK     1      -3.607  -1.464   4.340  1.00  0.00     0.146 C 
HETATM   24  C13 UNK     1      -2.461  -0.769   5.055  1.00  0.00     0.028 C 
ENDBRANCH  20  23
ENDBRANCH  17  18
ENDBRANCH  15  17
ENDBRANCH   4  13
TORSDOF 4
