REMARK  1 active torsions:
REMARK  status: ('A' for Active; 'I' for Inactive)
REMARK    1  A    between atoms: C3_6  and  C8_11 
ROOT
HETATM    1  O1  UNK     1      -0.540  -0.012  -1.784  1.00  0.00    -0.274 OA
HETATM    2  O2  UNK     1      -2.513  -1.028  -1.241  1.00  0.00    -0.259 OA
HETATM    3  C1  UNK     1       0.987   0.666  -0.017  1.00  0.00    -0.001 A 
HETATM    4  C2  UNK     1       0.671   0.575  -1.369  1.00  0.00     0.089 A 
HETATM    5  C3  UNK     1      -1.104  -0.412   0.562  1.00  0.00     0.086 A 
HETATM    6  C4  UNK     1       0.045   0.144   0.961  1.00  0.00     0.035 A 
HETATM    7  C5  UNK     1       2.198   1.254   0.354  1.00  0.00     0.014 A 
HETATM    8  C6  UNK     1       1.529   1.056  -2.357  1.00  0.00     0.038 A 
HETATM    9  C7  UNK     1      -1.461  -0.519  -0.871  1.00  0.00     0.302 A 
HETATM   10  C9  UNK     1       3.069   1.741  -0.625  1.00  0.00     0.001 A 
HETATM   11  C10 UNK     1       2.735   1.641  -1.978  1.00  0.00     0.003 A 
ENDROOT
BRANCH   5  12
HETATM   12  C8  UNK     1      -1.988  -0.908   1.623  1.00  0.00     0.161 C 
HETATM   13  C11 UNK     1      -1.354  -1.398   2.899  1.00  0.00     0.097 C 
HETATM   14  O3  UNK     1      -3.209  -0.925   1.463  1.00  0.00    -0.293 OA
ENDBRANCH   5  12
TORSDOF 1
