REMARK  3 active torsions:
REMARK  status: ('A' for Active; 'I' for Inactive)
REMARK       I    between atoms: C8_12  and  N1_4 
REMARK    1  A    between atoms: C1_5  and  C6_10 
REMARK    2  A    between atoms: C6_10  and  C7_11 
REMARK    3  A    between atoms: C8_12  and  C9_13 
ROOT
HETATM    1  O1  UNK     1       2.575   1.379   1.997  1.00  0.00    -0.267 OA
HETATM    2  N1  UNK     1       0.418   0.826   1.324  1.00  0.00    -0.348 N 
HETATM    3  C1  UNK     1      -1.899  -0.791   2.018  1.00  0.00    -0.007 C 
HETATM    4  C2  UNK     1      -1.307  -0.795   0.602  1.00  0.00     0.025 C 
HETATM    5  C3  UNK     1      -0.806  -0.461   3.042  1.00  0.00     0.025 C 
HETATM    6  C4  UNK     1      -0.580   0.514   0.290  1.00  0.00     0.126 C 
HETATM    7  C5  UNK     1      -0.107   0.849   2.692  1.00  0.00     0.126 C 
HETATM    8  C8  UNK     1       1.762   1.121   1.108  1.00  0.00     0.259 C 
ENDROOT
BRANCH   8   9
HETATM    9  C9  UNK     1       2.249   1.133  -0.286  1.00  0.00     0.108 A 
HETATM   10  C12 UNK     1       2.174   2.304  -0.929  1.00  0.00     0.037 A 
HETATM   11  C16 UNK     1       2.629   2.414  -2.306  1.00  0.00    -0.001 A 
HETATM   12  C18 UNK     1       3.141   1.286  -2.938  1.00  0.00     0.089 A 
HETATM   13  C19 UNK     1       2.570   3.616  -3.016  1.00  0.00     0.014 A 
HETATM   14  O2  UNK     1       3.218   0.056  -2.256  1.00  0.00    -0.274 OA
HETATM   15  C20 UNK     1       3.594   1.325  -4.256  1.00  0.00     0.038 A 
HETATM   16  C15 UNK     1       2.790  -0.081  -0.938  1.00  0.00     0.304 A 
HETATM   17  O3  UNK     1       2.860  -1.156  -0.352  1.00  0.00    -0.259 OA
HETATM   18  C22 UNK     1       3.531   2.527  -4.957  1.00  0.00     0.003 A 
HETATM   19  C21 UNK     1       3.020   3.671  -4.338  1.00  0.00     0.001 A 
ENDBRANCH   8   9
BRANCH   3  20
HETATM   20  C6  UNK     1      -2.556  -2.132   2.336  1.00  0.00     0.043 C 
BRANCH  20  21
HETATM   21  C7  UNK     1      -3.916  -2.248   1.705  1.00  0.00    -0.058 A 
HETATM   22  C10 UNK     1      -5.036  -1.821   2.407  1.00  0.00     0.007 A 
HETATM   23  C13 UNK     1      -6.297  -1.928   1.822  1.00  0.00     0.001 A 
HETATM   24  C17 UNK     1      -6.428  -2.461   0.540  1.00  0.00     0.000 A 
HETATM   25  C14 UNK     1      -5.298  -2.887  -0.157  1.00  0.00     0.001 A 
HETATM   26  C11 UNK     1      -4.036  -2.780   0.428  1.00  0.00     0.007 A 
ENDBRANCH  20  21
ENDBRANCH   3  20
TORSDOF 3
