REMARK  1 active torsions:
REMARK  status: ('A' for Active; 'I' for Inactive)
REMARK       I    between atoms: C8_12  and  N1_4 
REMARK    1  A    between atoms: C8_12  and  C9_13 
ROOT
HETATM    1  O2  UNK     1       2.383   0.271   0.189  1.00  0.00    -0.274 OA
HETATM    2  O3  UNK     1       1.069  -1.293   1.214  1.00  0.00    -0.259 OA
HETATM    3  C9  UNK     1       0.230  -0.349  -0.790  1.00  0.00     0.108 A 
HETATM    4  C10 UNK     1       0.414   0.505  -1.804  1.00  0.00     0.037 A 
HETATM    5  C11 UNK     1       1.234  -0.511   0.285  1.00  0.00     0.304 A 
HETATM    6  C12 UNK     1       1.625   1.308  -1.875  1.00  0.00    -0.001 A 
HETATM    7  C13 UNK     1       2.583   1.171  -0.875  1.00  0.00     0.089 A 
HETATM    8  C14 UNK     1       1.860   2.212  -2.914  1.00  0.00     0.014 A 
HETATM    9  C15 UNK     1       3.764   1.910  -0.884  1.00  0.00     0.038 A 
HETATM   10  C16 UNK     1       3.040   2.960  -2.937  1.00  0.00     0.001 A 
HETATM   11  C17 UNK     1       3.990   2.809  -1.924  1.00  0.00     0.003 A 
ENDROOT
BRANCH   3  12
HETATM   12  C8  UNK     1      -1.031  -1.120  -0.807  1.00  0.00     0.259 C 
HETATM   13  O1  UNK     1      -1.021  -2.204  -1.393  1.00  0.00    -0.267 OA
HETATM   14  N1  UNK     1      -2.149  -0.573  -0.164  1.00  0.00    -0.348 N 
HETATM   15  C6  UNK     1      -3.398  -1.345  -0.189  1.00  0.00     0.126 C 
HETATM   16  C7  UNK     1      -2.204   0.781   0.408  1.00  0.00     0.126 C 
HETATM   17  C4  UNK     1      -4.217  -1.353   1.101  1.00  0.00     0.020 C 
HETATM   18  C2  UNK     1      -3.534  -2.012   2.297  1.00  0.00     0.002 C 
HETATM   19  C1  UNK     1      -2.223  -1.386   2.776  1.00  0.00     0.000 C 
HETATM   20  C3  UNK     1      -2.256   0.137   2.926  1.00  0.00     0.002 C 
HETATM   21  C5  UNK     1      -1.559   0.895   1.792  1.00  0.00     0.020 C 
ENDBRANCH   3  12
TORSDOF 1
