REMARK  4 active torsions:
REMARK  status: ('A' for Active; 'I' for Inactive)
REMARK       I    between atoms: C5_8  and  N1_3 
REMARK    1  A    between atoms: C8_11  and  N1_3 
REMARK    2  A    between atoms: C1_4  and  C2_5 
REMARK    3  A    between atoms: C1_4  and  C5_8 
REMARK    4  A    between atoms: C3_6  and  C4_7 
ROOT
HETATM    1  C1  UNK     1      -0.217  -0.086   0.635  1.00  0.00     0.043 C 
HETATM    2  C3  UNK     1      -0.617  -0.413   1.892  1.00  0.00     0.029 C 
ENDROOT
BRANCH   1   3
HETATM    3  C2  UNK     1      -1.071  -0.326  -0.546  1.00  0.00    -0.021 A 
HETATM    4  C6  UNK     1      -1.949   0.662  -0.956  1.00  0.00     0.012 A 
HETATM    5  C11 UNK     1      -2.755   0.436  -2.072  1.00  0.00     0.001 A 
HETATM    6  C15 UNK     1      -2.670  -0.774  -2.760  1.00  0.00     0.000 A 
HETATM    7  C12 UNK     1      -1.779  -1.758  -2.332  1.00  0.00     0.001 A 
HETATM    8  C7  UNK     1      -0.973  -1.532  -1.216  1.00  0.00     0.012 A 
ENDBRANCH   1   3
BRANCH   1   9
HETATM    9  C5  UNK     1       1.139   0.570   0.512  1.00  0.00     0.257 C 
HETATM   10  O1  UNK     1       1.833   0.752   1.508  1.00  0.00    -0.267 OA
HETATM   11  N1  UNK     1       1.463   0.904  -0.798  1.00  0.00    -0.320 N 
HETATM   12  H4  UNK     1       0.803   0.695  -1.541  1.00  0.00     0.169 HD
BRANCH  11  13
HETATM   13  C8  UNK     1       2.649   1.527  -1.260  1.00  0.00     0.073 A 
HETATM   14  C13 UNK     1       2.797   1.784  -2.612  1.00  0.00     0.143 A 
HETATM   15  F1  UNK     1       1.841   1.455  -3.492  1.00  0.00    -0.204 F 
HETATM   16  C19 UNK     1       3.965   2.398  -3.064  1.00  0.00     0.044 A 
HETATM   17  C21 UNK     1       4.967   2.745  -2.158  1.00  0.00     0.003 A 
HETATM   18  C20 UNK     1       4.800   2.478  -0.799  1.00  0.00     0.002 A 
HETATM   19  C14 UNK     1       3.632   1.865  -0.346  1.00  0.00     0.033 A 
ENDBRANCH  11  13
ENDBRANCH   1   9
BRANCH   2  20
HETATM   20  C4  UNK     1      -1.890  -1.008   2.270  1.00  0.00    -0.035 A 
HETATM   21  C10 UNK     1      -2.029  -2.396   2.298  1.00  0.00     0.011 A 
HETATM   22  C17 UNK     1      -3.250  -2.967   2.660  1.00  0.00     0.001 A 
HETATM   23  C18 UNK     1      -4.330  -2.150   2.992  1.00  0.00     0.000 A 
HETATM   24  C16 UNK     1      -4.191  -0.762   2.964  1.00  0.00     0.001 A 
HETATM   25  C9  UNK     1      -2.970  -0.192   2.602  1.00  0.00     0.011 A 
ENDBRANCH   2  20
TORSDOF 4
