REMARK  11 active torsions:
REMARK  status: ('A' for Active; 'I' for Inactive)
REMARK    1  A    between atoms: C14_26  and  O2_5 
REMARK    2  A    between atoms: C17_29  and  O2_5 
REMARK    3  A    between atoms: C25_37  and  O7_10 
REMARK    4  A    between atoms: C29_41  and  O7_10 
REMARK    5  A    between atoms: C2_14  and  N1_12 
REMARK       I    between atoms: C25_37  and  N1_12 
REMARK    6  A    between atoms: C1_13  and  C3_15 
REMARK    7  A    between atoms: C17_29  and  C2_14 
REMARK    8  A    between atoms: C2_14  and  C4_16 
REMARK    9  A    between atoms: C11_23  and  C4_16 
REMARK   10  A    between atoms: C22_34  and  C8_20 
REMARK   11  A    between atoms: C29_41  and  C30_42 
ROOT
HETATM    1  O1  UNK     1      -2.040   0.342   1.497  1.00  0.00    -0.304 OA
HETATM    2  O5  UNK     1      -2.066  -3.721   1.302  1.00  0.00    -0.286 OA
HETATM    3  C1  UNK     1      -3.187  -1.734   1.975  1.00  0.00     0.064 A 
HETATM    4  C5  UNK     1      -0.943  -1.712   0.828  1.00  0.00     0.049 A 
HETATM    5  C6  UNK     1      -0.992  -0.326   0.924  1.00  0.00     0.093 A 
HETATM    6  C7  UNK     1      -2.063  -2.498   1.362  1.00  0.00     0.198 A 
HETATM    7  C8  UNK     1      -3.109  -0.386   2.005  1.00  0.00     0.174 A 
HETATM    8  C14 UNK     1       1.156  -0.176  -0.171  1.00  0.00     0.082 A 
HETATM    9  C15 UNK     1       0.058   0.446   0.424  1.00  0.00     0.075 A 
HETATM   10  C16 UNK     1       0.155  -2.340   0.233  1.00  0.00     0.021 A 
HETATM   11  C19 UNK     1       1.203  -1.567  -0.266  1.00  0.00     0.038 A 
ENDROOT
BRANCH   8  12
HETATM   12  O2  UNK     1       2.181   0.574  -0.658  1.00  0.00    -0.277 OA
BRANCH  12  13
HETATM   13  C17 UNK     1       3.201   0.837   0.269  1.00  0.00     0.287 C 
HETATM   14  O6  UNK     1       3.216   0.422   1.424  1.00  0.00    -0.262 OA
BRANCH  13  15
HETATM   15  C2  UNK     1       4.327   1.680  -0.319  1.00  0.00     0.191 C 
BRANCH  15  16
HETATM   16  N1  UNK     1       4.140   1.947  -1.722  1.00  0.00    -0.323 N 
HETATM   17  C25 UNK     1       5.175   2.039  -2.632  1.00  0.00     0.361 C 
HETATM   18  O8  UNK     1       6.367   1.908  -2.375  1.00  0.00    -0.238 OA
HETATM   19  H9  UNK     1       3.194   2.087  -2.065  1.00  0.00     0.165 HD
BRANCH  17  20
HETATM   20  O7  UNK     1       4.675   2.300  -3.877  1.00  0.00    -0.299 OA
BRANCH  20  21
HETATM   21  C29 UNK     1       5.642   2.421  -4.926  1.00  0.00     0.219 C 
BRANCH  21  22
HETATM   22  C30 UNK     1       4.932   2.705  -6.217  1.00  0.00    -0.034 A 
HETATM   23  C31 UNK     1       4.517   1.651  -7.031  1.00  0.00     0.009 A 
HETATM   24  C33 UNK     1       3.857   1.915  -8.231  1.00  0.00     0.001 A 
HETATM   25  C35 UNK     1       3.611   3.233  -8.617  1.00  0.00     0.000 A 
HETATM   26  C34 UNK     1       4.025   4.287  -7.802  1.00  0.00     0.001 A 
HETATM   27  C32 UNK     1       4.686   4.023  -6.602  1.00  0.00     0.009 A 
ENDBRANCH  21  22
ENDBRANCH  20  21
ENDBRANCH  17  20
ENDBRANCH  15  16
BRANCH  15  28
HETATM   28  C4  UNK     1       4.541   2.978   0.473  1.00  0.00     0.074 C 
BRANCH  28  29
HETATM   29  C11 UNK     1       3.359   3.921   0.469  1.00  0.00    -0.056 A 
HETATM   30  C23 UNK     1       3.244   4.891  -0.528  1.00  0.00     0.007 A 
HETATM   31  C26 UNK     1       2.153   5.760  -0.532  1.00  0.00     0.001 A 
HETATM   32  C28 UNK     1       1.178   5.661   0.460  1.00  0.00     0.000 A 
HETATM   33  C27 UNK     1       1.293   4.691   1.456  1.00  0.00     0.001 A 
HETATM   34  C24 UNK     1       2.383   3.821   1.460  1.00  0.00     0.007 A 
ENDBRANCH  28  29
ENDBRANCH  15  28
ENDBRANCH  13  15
ENDBRANCH  12  13
ENDBRANCH   8  12
BRANCH   7  35
HETATM   35  C22 UNK     1      -4.159   0.519   2.588  1.00  0.00     0.440 C 
HETATM   36  F1  UNK     1      -5.188  -0.198   3.076  1.00  0.00    -0.164 F 
HETATM   37  F2  UNK     1      -3.649   1.257   3.592  1.00  0.00    -0.164 F 
HETATM   38  F3  UNK     1      -4.641   1.360   1.654  1.00  0.00    -0.164 F 
ENDBRANCH   7  35
BRANCH   3  39
HETATM   39  C3  UNK     1      -4.328  -2.457   2.520  1.00  0.00    -0.016 A 
HETATM   40  C10 UNK     1      -5.420  -2.753   1.704  1.00  0.00     0.052 A 
HETATM   41  C9  UNK     1      -6.508  -3.452   2.227  1.00  0.00     0.102 A 
HETATM   42  C12 UNK     1      -6.516  -3.829   3.572  1.00  0.00     0.102 A 
HETATM   43  O3  UNK     1      -7.541  -3.731   1.371  1.00  0.00    -0.346 OA
HETATM   44  O4  UNK     1      -7.567  -4.489   4.153  1.00  0.00    -0.346 OA
HETATM   45  C18 UNK     1      -5.417  -3.545   4.384  1.00  0.00     0.040 A 
HETATM   46  C21 UNK     1      -8.749  -4.420   3.350  1.00  0.00     0.202 C 
HETATM   47  C20 UNK     1      -8.419  -4.728   1.902  1.00  0.00     0.202 C 
HETATM   48  C13 UNK     1      -4.324  -2.857   3.857  1.00  0.00     0.015 A 
ENDBRANCH   3  39
TORSDOF 11
