REMARK  3 active torsions:
REMARK  status: ('A' for Active; 'I' for Inactive)
REMARK    1  A    between atoms: C7_14  and  N1_6 
REMARK       I    between atoms: C9_16  and  N1_6 
REMARK       I    between atoms: C8_15  and  N2_7 
REMARK    2  A    between atoms: C6_13  and  C8_15 
REMARK    3  A    between atoms: C10_17  and  C9_16 
ROOT
HETATM    1  O3  UNK     1       0.954  -0.131   1.792  1.00  0.00    -0.267 OA
HETATM    2  N1  UNK     1       0.483   0.341  -0.472  1.00  0.00    -0.316 N 
HETATM    3  C9  UNK     1       0.226  -0.149   0.801  1.00  0.00     0.262 C 
HETATM    4  H7  UNK     1      -0.234   0.270  -1.188  1.00  0.00     0.169 HD
ENDROOT
BRANCH   2   5
HETATM    5  C7  UNK     1       1.643   0.961  -0.885  1.00  0.00     0.093 A 
HETATM    6  C6  UNK     1       2.012   1.486  -2.114  1.00  0.00     0.073 A 
HETATM    7  C3  UNK     1       3.314   2.024  -2.050  1.00  0.00    -0.026 A 
HETATM    8  C1  UNK     1       4.244   2.699  -2.986  1.00  0.00     0.041 C 
HETATM    9  C5  UNK     1       3.870   1.891  -0.808  1.00  0.00    -0.008 A 
HETATM   10  C2  UNK     1       5.329   3.271  -2.019  1.00  0.00     0.010 C 
HETATM   11  C4  UNK     1       5.240   2.444  -0.698  1.00  0.00     0.047 C 
HETATM   12  S1  UNK     1       2.884   1.134   0.310  1.00  0.00    -0.075 SA
BRANCH   6  13
HETATM   13  C8  UNK     1       1.159   1.467  -3.274  1.00  0.00     0.252 C 
HETATM   14  O1  UNK     1       0.003   0.999  -3.264  1.00  0.00    -0.268 OA
HETATM   15  N2  UNK     1       1.655   2.029  -4.450  1.00  0.00    -0.366 N 
HETATM   16  H8  UNK     1       2.591   2.381  -4.585  1.00  0.00     0.159 HD
HETATM   17  H9  UNK     1       1.067   2.051  -5.277  1.00  0.00     0.159 HD
ENDBRANCH   6  13
ENDBRANCH   2   5
BRANCH   3  18
HETATM   18  C10 UNK     1      -1.110  -0.750   0.896  1.00  0.00     0.108 A 
HETATM   19  C12 UNK     1      -1.704  -0.685   2.094  1.00  0.00     0.037 A 
HETATM   20  C11 UNK     1      -3.029  -1.253   2.287  1.00  0.00    -0.001 A 
HETATM   21  C13 UNK     1      -3.663  -1.864   1.209  1.00  0.00     0.089 A 
HETATM   22  C15 UNK     1      -3.687  -1.207   3.518  1.00  0.00     0.014 A 
HETATM   23  O2  UNK     1      -3.032  -1.930  -0.048  1.00  0.00    -0.274 OA
HETATM   24  C16 UNK     1      -4.931  -2.429   1.328  1.00  0.00     0.038 A 
HETATM   25  C14 UNK     1      -1.765  -1.395  -0.264  1.00  0.00     0.304 A 
HETATM   26  O4  UNK     1      -1.223  -1.458  -1.362  1.00  0.00    -0.259 OA
HETATM   27  C18 UNK     1      -5.580  -2.379   2.559  1.00  0.00     0.003 A 
HETATM   28  C17 UNK     1      -4.960  -1.769   3.652  1.00  0.00     0.001 A 
ENDBRANCH   3  18
TORSDOF 3
