REMARK  1 active torsions:
REMARK  status: ('A' for Active; 'I' for Inactive)
REMARK    1  A    between atoms: C6_9  and  O2_2 
ROOT
HETATM    1  O1  UNK     1      -1.475  -0.410  -1.160  1.00  0.00    -0.275 OA
HETATM    2  O3  UNK     1      -3.512  -1.398  -0.840  1.00  0.00    -0.260 OA
HETATM    3  C1  UNK     1      -0.046   0.036   0.771  1.00  0.00     0.004 A 
HETATM    4  C2  UNK     1      -1.079  -0.547   1.638  1.00  0.00    -0.043 A 
HETATM    5  C3  UNK     1      -0.278   0.086  -0.605  1.00  0.00     0.092 A 
HETATM    6  C4  UNK     1       1.169   0.548   1.244  1.00  0.00     0.017 A 
HETATM    7  C5  UNK     1       0.651   0.622  -1.498  1.00  0.00     0.075 A 
HETATM    8  C6  UNK     1       1.851   1.126  -1.009  1.00  0.00     0.070 A 
HETATM    9  C7  UNK     1      -2.208  -1.010   1.082  1.00  0.00     0.090 A 
HETATM   10  C8  UNK     1       2.110   1.089   0.360  1.00  0.00     0.038 A 
HETATM   11  C9  UNK     1      -0.860  -0.615   3.121  1.00  0.00     0.049 C 
HETATM   12  C10 UNK     1      -2.467  -0.964  -0.367  1.00  0.00     0.288 A 
ENDROOT
BRANCH   8  13
HETATM   13  O2  UNK     1       2.770   1.653  -1.863  1.00  0.00    -0.356 OA
HETATM   14  C11 UNK     1       2.439   1.658  -3.251  1.00  0.00     0.210 C 
ENDBRANCH   8  13
TORSDOF 1
