REMARK  6 active torsions:
REMARK  status: ('A' for Active; 'I' for Inactive)
REMARK    1  A    between atoms: C10_14  and  O1_1 
REMARK    2  A    between atoms: C2_6  and  O1_1 
REMARK    3  A    between atoms: C1_5  and  C5_9 
REMARK    4  A    between atoms: C1_5  and  C7_11 
REMARK    5  A    between atoms: C13_17  and  C7_11 
REMARK    6  A    between atoms: C10_14  and  C11_15 
ROOT
HETATM    1  O2  UNK     1       3.524   1.092   0.945  1.00  0.00    -0.319 OA
HETATM    2  O3  UNK     1      -0.164   0.195  -2.056  1.00  0.00    -0.272 OA
HETATM    3  O4  UNK     1      -1.860  -0.172  -3.551  1.00  0.00    -0.260 OA
HETATM    4  C2  UNK     1       1.605   0.578  -0.489  1.00  0.00     0.138 A 
HETATM    5  C3  UNK     1       2.843   1.152  -0.235  1.00  0.00     0.121 A 
HETATM    6  C4  UNK     1       3.569   1.881  -1.172  1.00  0.00     0.003 A 
HETATM    7  C6  UNK     1       1.097   0.770  -1.771  1.00  0.00     0.126 A 
HETATM    8  C8  UNK     1       1.777   1.491  -2.753  1.00  0.00     0.002 A 
HETATM    9  C9  UNK     1       3.028   2.057  -2.461  1.00  0.00     0.028 A 
HETATM   10  C12 UNK     1       4.759   2.283  -0.510  1.00  0.00     0.039 A 
HETATM   11  C15 UNK     1       1.165   1.639  -4.063  1.00  0.00     0.020 A 
HETATM   12  C16 UNK     1       4.682   1.779   0.768  1.00  0.00     0.143 A 
HETATM   13  C18 UNK     1      -0.026   1.092  -4.320  1.00  0.00     0.083 A 
HETATM   14  C19 UNK     1      -0.767   0.324  -3.302  1.00  0.00     0.288 A 
ENDROOT
BRANCH   4  15
HETATM   15  O1  UNK     1       0.924  -0.134   0.464  1.00  0.00    -0.342 OA
BRANCH  15  16
HETATM   16  C10 UNK     1       0.032   0.598   1.295  1.00  0.00     0.203 C 
BRANCH  16  17
HETATM   17  C11 UNK     1      -0.583  -0.345   2.279  1.00  0.00     0.002 C 
HETATM   18  C5  UNK     1      -1.788  -0.251   2.875  1.00  0.00    -0.085 C 
HETATM   19  C14 UNK     1      -2.692   0.916   2.568  1.00  0.00     0.043 C 
BRANCH  18  20
HETATM   20  C1  UNK     1      -2.329  -1.234   3.892  1.00  0.00     0.037 C 
BRANCH  20  21
HETATM   21  C7  UNK     1      -3.626  -1.927   3.452  1.00  0.00     0.031 C 
BRANCH  21  22
HETATM   22  C13 UNK     1      -3.462  -2.703   2.175  1.00  0.00    -0.024 C 
HETATM   23  C17 UNK     1      -4.185  -2.604   1.043  1.00  0.00    -0.091 C 
HETATM   24  C20 UNK     1      -3.871  -3.482  -0.139  1.00  0.00     0.042 C 
HETATM   25  C21 UNK     1      -5.323  -1.649   0.820  1.00  0.00     0.042 C 
ENDBRANCH  21  22
ENDBRANCH  20  21
ENDBRANCH  18  20
ENDBRANCH  16  17
ENDBRANCH  15  16
ENDBRANCH   4  15
TORSDOF 6
