REMARK  5 active torsions:
REMARK  status: ('A' for Active; 'I' for Inactive)
REMARK    1  A    between atoms: C12_21  and  O3_6 
REMARK    2  A    between atoms: C7_16  and  N1_9 
REMARK    3  A    between atoms: C1_10  and  C4_13 
REMARK    4  A    between atoms: C12_21  and  C3_12 
REMARK    5  A    between atoms: C16_25  and  C20_29 
ROOT
HETATM    1  O1  UNK     1       2.689   0.129  -0.012  1.00  0.00    -0.292 OA
HETATM    2  O2  UNK     1       0.503   2.437  -2.732  1.00  0.00    -0.274 OA
HETATM    3  O4  UNK     1      -1.208   2.590  -1.233  1.00  0.00    -0.259 OA
HETATM    4  C1  UNK     1       0.038   0.922   0.756  1.00  0.00     0.104 C 
HETATM    5  C2  UNK     1       0.673   1.296  -0.571  1.00  0.00     0.066 A 
HETATM    6  C3  UNK     1       1.047   0.297   1.705  1.00  0.00     0.081 C 
HETATM    7  C5  UNK     1       1.913   0.884  -0.875  1.00  0.00     0.104 A 
HETATM    8  C6  UNK     1       2.524   1.209  -2.160  1.00  0.00     0.033 A 
HETATM    9  C7  UNK     1       2.283  -0.074   1.309  1.00  0.00     0.155 C 
HETATM   10  C8  UNK     1      -0.097   2.152  -1.510  1.00  0.00     0.298 A 
HETATM   11  C9  UNK     1       1.793   1.978  -3.061  1.00  0.00     0.092 A 
HETATM   12  C13 UNK     1       3.804   0.788  -2.540  1.00  0.00     0.017 A 
HETATM   13  C17 UNK     1       2.295   2.334  -4.313  1.00  0.00     0.038 A 
HETATM   14  C18 UNK     1       4.322   1.136  -3.792  1.00  0.00     0.001 A 
HETATM   15  C19 UNK     1       3.569   1.907  -4.677  1.00  0.00     0.003 A 
ENDROOT
BRANCH   4  16
HETATM   16  C4  UNK     1      -1.117  -0.011   0.538  1.00  0.00    -0.044 A 
HETATM   17  C10 UNK     1      -2.396   0.376   0.922  1.00  0.00     0.009 A 
HETATM   18  C14 UNK     1      -3.470  -0.491   0.720  1.00  0.00     0.017 A 
HETATM   19  C16 UNK     1      -3.257  -1.739   0.135  1.00  0.00     0.047 A 
HETATM   20  C15 UNK     1      -1.971  -2.121  -0.248  1.00  0.00     0.017 A 
HETATM   21  C11 UNK     1      -0.897  -1.253  -0.045  1.00  0.00     0.009 A 
BRANCH  19  22
HETATM   22  C20 UNK     1      -4.405  -2.666  -0.082  1.00  0.00     0.417 C 
HETATM   23  F1  UNK     1      -5.603  -2.163   0.340  1.00  0.00    -0.166 F 
HETATM   24  F2  UNK     1      -4.600  -2.999  -1.392  1.00  0.00    -0.166 F 
HETATM   25  F3  UNK     1      -4.254  -3.852   0.578  1.00  0.00    -0.166 F 
ENDBRANCH  19  22
ENDBRANCH   4  16
BRANCH   6  26
HETATM   26  C12 UNK     1       0.617   0.139   3.106  1.00  0.00     0.294 C 
HETATM   27  O5  UNK     1       1.036  -0.738   3.837  1.00  0.00    -0.259 OA
BRANCH  26  28
HETATM   28  O3  UNK     1      -0.282   1.112   3.389  1.00  0.00    -0.323 OA
HETATM   29  C21 UNK     1      -0.796   1.092   4.724  1.00  0.00     0.213 C 
ENDBRANCH  26  28
ENDBRANCH   6  26
BRANCH   9  30
HETATM   30  N1  UNK     1       3.243  -0.655   2.086  1.00  0.00    -0.379 N 
HETATM   31  H8  UNK     1       3.068  -0.851   3.063  1.00  0.00     0.158 HD
HETATM   32  H9  UNK     1       4.137  -0.886   1.671  1.00  0.00     0.158 HD
ENDBRANCH   9  30
TORSDOF 5
