REMARK  10 active torsions:
REMARK  status: ('A' for Active; 'I' for Inactive)
REMARK    1  A    between atoms: C3_10  and  O1_1 
REMARK    2  A    between atoms: C7_14  and  O1_1 
REMARK    3  A    between atoms: C5_12  and  O2_2 
REMARK    4  A    between atoms: C8_15  and  O2_2 
REMARK    5  A    between atoms: C20_27  and  O3_3 
REMARK    6  A    between atoms: C4_11  and  O3_3 
REMARK    7  A    between atoms: C23_30  and  N1_6 
REMARK    8  A    between atoms: C15_22  and  C6_13 
REMARK    9  A    between atoms: C7_14  and  C8_15 
REMARK   10  A    between atoms: C18_25  and  C19_26 
ROOT
HETATM    1  N2  UNK     1      -1.217  -3.719   0.625  1.00  0.00    -0.191 NA
HETATM    2  C15 UNK     1      -2.170  -0.598   1.738  1.00  0.00     0.035 C 
HETATM    3  C18 UNK     1      -2.705  -1.844   1.638  1.00  0.00     0.055 C 
HETATM    4  C27 UNK     1      -1.874  -2.876   1.076  1.00  0.00     0.100 C 
ENDROOT
BRANCH   3   5
HETATM    5  C19 UNK     1      -4.052  -2.183   2.070  1.00  0.00    -0.015 A 
HETATM    6  C21 UNK     1      -4.972  -2.691   1.152  1.00  0.00     0.015 A 
HETATM    7  C24 UNK     1      -6.263  -3.017   1.567  1.00  0.00     0.037 A 
HETATM    8  C23 UNK     1      -6.634  -2.836   2.899  1.00  0.00     0.102 A 
HETATM    9  C25 UNK     1      -5.715  -2.328   3.817  1.00  0.00     0.037 A 
HETATM   10  C22 UNK     1      -4.424  -2.002   3.402  1.00  0.00     0.015 A 
BRANCH   8  11
HETATM   11  N1  UNK     1      -7.949  -3.168   3.322  1.00  0.00    -0.116 N 
HETATM   12  O4  UNK     1      -8.761  -3.624   2.481  1.00  0.00    -0.532 OA
HETATM   13  O5  UNK     1      -8.262  -2.998   4.525  1.00  0.00    -0.532 OA
ENDBRANCH   8  11
ENDBRANCH   3   5
BRANCH   2  14
HETATM   14  C6  UNK     1      -0.813  -0.213   1.321  1.00  0.00    -0.032 A 
HETATM   15  C10 UNK     1      -0.583   0.227   0.017  1.00  0.00     0.051 A 
HETATM   16  C4  UNK     1       0.704   0.592  -0.378  1.00  0.00     0.102 A 
HETATM   17  C3  UNK     1       1.760   0.518   0.530  1.00  0.00     0.102 A 
HETATM   18  C11 UNK     1       1.529   0.078   1.834  1.00  0.00     0.040 A 
HETATM   19  C13 UNK     1       0.243  -0.287   2.229  1.00  0.00     0.014 A 
BRANCH  16  20
HETATM   20  O3  UNK     1       0.917   1.019  -1.654  1.00  0.00    -0.349 OA
BRANCH  20  21
HETATM   21  C20 UNK     1       0.064   0.488  -2.666  1.00  0.00     0.171 C 
HETATM   22  C26 UNK     1       0.818   0.451  -3.978  1.00  0.00     0.034 C 
ENDBRANCH  20  21
ENDBRANCH  16  20
BRANCH  17  23
HETATM   23  O1  UNK     1       3.021   0.872   0.156  1.00  0.00    -0.346 OA
BRANCH  23  24
HETATM   24  C7  UNK     1       3.635   1.940   0.875  1.00  0.00     0.202 C 
BRANCH  24  25
HETATM   25  C8  UNK     1       4.612   2.654  -0.038  1.00  0.00     0.202 C 
BRANCH  25  26
HETATM   26  O2  UNK     1       3.910   3.152  -1.171  1.00  0.00    -0.349 OA
BRANCH  26  27
HETATM   27  C5  UNK     1       4.621   3.262  -2.337  1.00  0.00     0.069 A 
HETATM   28  C14 UNK     1       5.992   3.515  -2.297  1.00  0.00     0.037 A 
HETATM   29  C12 UNK     1       6.715   3.628  -3.484  1.00  0.00     0.010 A 
HETATM   30  C2  UNK     1       6.067   3.488  -4.711  1.00  0.00    -0.056 A 
HETATM   31  C1  UNK     1       4.696   3.235  -4.751  1.00  0.00    -0.053 A 
HETATM   32  C17 UNK     1       6.863   3.612  -5.969  1.00  0.00     0.049 C 
HETATM   33  C9  UNK     1       3.973   3.123  -3.564  1.00  0.00     0.044 A 
HETATM   34  C16 UNK     1       3.981   3.081  -6.053  1.00  0.00     0.049 C 
ENDBRANCH  26  27
ENDBRANCH  25  26
ENDBRANCH  24  25
ENDBRANCH  23  24
ENDBRANCH  17  23
ENDBRANCH   2  14
TORSDOF 10
