REMARK  2 active torsions:
REMARK  status: ('A' for Active; 'I' for Inactive)
REMARK    1  A    between atoms: N1_7  and  S1_1 
REMARK       I    between atoms: C5_13  and  N2_8 
REMARK    2  A    between atoms: C5_13  and  C7_15 
ROOT
HETATM    1  O3  UNK     1       1.373   0.258   2.360  1.00  0.00    -0.267 OA
HETATM    2  N1  UNK     1      -3.291  -0.941   1.256  1.00  0.00    -0.208 NA
HETATM    3  N2  UNK     1      -0.680   0.207   1.266  1.00  0.00    -0.345 N 
HETATM    4  C1  UNK     1      -2.496  -0.888  -0.006  1.00  0.00     0.127 C 
HETATM    5  C2  UNK     1      -2.408  -1.099   2.449  1.00  0.00     0.127 C 
HETATM    6  C3  UNK     1      -1.509   0.276   0.054  1.00  0.00     0.141 C 
HETATM    7  C4  UNK     1      -1.439   0.074   2.512  1.00  0.00     0.141 C 
HETATM    8  C5  UNK     1       0.707   0.320   1.325  1.00  0.00     0.260 C 
ENDROOT
BRANCH   8   9
HETATM    9  C7  UNK     1       1.434   0.536   0.058  1.00  0.00     0.108 A 
HETATM   10  C8  UNK     1       1.622   1.810  -0.307  1.00  0.00     0.037 A 
HETATM   11  C10 UNK     1       2.327   2.124  -1.540  1.00  0.00    -0.001 A 
HETATM   12  C11 UNK     1       2.799   1.080  -2.329  1.00  0.00     0.089 A 
HETATM   13  C12 UNK     1       2.546   3.438  -1.959  1.00  0.00     0.014 A 
HETATM   14  O4  UNK     1       2.598  -0.259  -1.941  1.00  0.00    -0.274 OA
HETATM   15  C13 UNK     1       3.481   1.313  -3.522  1.00  0.00     0.038 A 
HETATM   16  C9  UNK     1       1.927  -0.590  -0.766  1.00  0.00     0.304 A 
HETATM   17  O5  UNK     1       1.756  -1.758  -0.436  1.00  0.00    -0.259 OA
HETATM   18  C15 UNK     1       3.695   2.627  -3.933  1.00  0.00     0.003 A 
HETATM   19  C14 UNK     1       3.229   3.687  -3.153  1.00  0.00     0.001 A 
ENDBRANCH   8   9
BRANCH   2  20
HETATM   20  S1  UNK     1      -4.662  -1.967   1.217  1.00  0.00     0.207 S 
HETATM   21  C6  UNK     1      -3.853  -3.507   0.869  1.00  0.00     0.180 C 
HETATM   22  O1  UNK     1      -5.470  -1.617   0.070  1.00  0.00    -0.212 OA
HETATM   23  O2  UNK     1      -5.221  -2.045   2.548  1.00  0.00    -0.212 OA
ENDBRANCH   2  20
TORSDOF 2
