REMARK  6 active torsions:
REMARK  status: ('A' for Active; 'I' for Inactive)
REMARK    1  A    between atoms: C7_13  and  O2_2 
REMARK    2  A    between atoms: C10_16  and  O3_3 
REMARK    3  A    between atoms: C2_8  and  N1_6 
REMARK       I    between atoms: C8_14  and  N1_6 
REMARK    4  A    between atoms: C1_7  and  C2_8 
REMARK    5  A    between atoms: C1_7  and  C3_9 
REMARK    6  A    between atoms: C6_12  and  C8_14 
ROOT
HETATM    1  O4  UNK     1      -0.112  -0.753  -3.569  1.00  0.00    -0.267 OA
HETATM    2  N1  UNK     1      -1.512   0.143  -1.935  1.00  0.00    -0.356 N 
HETATM    3  C8  UNK     1      -0.316  -0.008  -2.613  1.00  0.00     0.257 C 
HETATM    4  H5  UNK     1      -1.572   0.769  -1.138  1.00  0.00     0.162 HD
ENDROOT
BRANCH   2   5
HETATM    5  C2  UNK     1      -2.712  -0.585  -2.282  1.00  0.00     0.127 C 
BRANCH   5   6
HETATM    6  C1  UNK     1      -2.791  -1.907  -1.518  1.00  0.00     0.058 C 
BRANCH   6   7
HETATM    7  C3  UNK     1      -2.830  -1.684  -0.027  1.00  0.00    -0.054 A 
HETATM    8  C4  UNK     1      -1.641  -1.633   0.684  1.00  0.00     0.046 A 
HETATM    9  C7  UNK     1      -1.676  -1.427   2.064  1.00  0.00     0.102 A 
HETATM   10  C10 UNK     1      -2.900  -1.274   2.715  1.00  0.00     0.101 A 
HETATM   11  C11 UNK     1      -4.089  -1.328   1.986  1.00  0.00     0.040 A 
HETATM   12  C5  UNK     1      -4.053  -1.534   0.607  1.00  0.00     0.010 A 
BRANCH   9  13
HETATM   13  O2  UNK     1      -0.509  -1.378   2.764  1.00  0.00    -0.353 OA
HETATM   14  C19 UNK     1       0.105  -0.099   2.913  1.00  0.00     0.210 C 
ENDBRANCH   9  13
BRANCH  10  15
HETATM   15  O3  UNK     1      -2.948  -1.073   4.061  1.00  0.00    -0.353 OA
HETATM   16  C20 UNK     1      -3.028  -2.232   4.888  1.00  0.00     0.210 C 
ENDBRANCH  10  15
ENDBRANCH   6   7
ENDBRANCH   5   6
ENDBRANCH   2   5
BRANCH   3  17
HETATM   17  C6  UNK     1       0.755   0.840  -2.076  1.00  0.00     0.108 A 
HETATM   18  C12 UNK     1       2.001   0.366  -2.196  1.00  0.00     0.037 A 
HETATM   19  C9  UNK     1       3.130   1.134  -1.694  1.00  0.00    -0.001 A 
HETATM   20  C13 UNK     1       2.891   2.363  -1.089  1.00  0.00     0.089 A 
HETATM   21  C15 UNK     1       4.446   0.678  -1.798  1.00  0.00     0.014 A 
HETATM   22  O1  UNK     1       1.577   2.857  -0.965  1.00  0.00    -0.274 OA
HETATM   23  C16 UNK     1       3.927   3.148  -0.586  1.00  0.00     0.038 A 
HETATM   24  C14 UNK     1       0.478   2.145  -1.436  1.00  0.00     0.304 A 
HETATM   25  O5  UNK     1      -0.662   2.583  -1.323  1.00  0.00    -0.259 OA
HETATM   26  C18 UNK     1       5.237   2.686  -0.694  1.00  0.00     0.003 A 
HETATM   27  C17 UNK     1       5.496   1.454  -1.299  1.00  0.00     0.001 A 
ENDBRANCH   3  17
TORSDOF 6
