REMARK  0 active torsions:
REMARK  status: ('A' for Active; 'I' for Inactive)
ROOT
HETATM    1  O1  UNK     1       2.915   1.606  -0.873  1.00  0.00    -0.343 OA
HETATM    2  O2  UNK     1      -1.359  -0.364  -1.088  1.00  0.00    -0.274 OA
HETATM    3  O3  UNK     1       0.411   0.706  -3.201  1.00  0.00    -0.290 OA
HETATM    4  O4  UNK     1      -3.432  -1.315  -1.238  1.00  0.00    -0.260 OA
HETATM    5  C1  UNK     1       0.811   0.625  -0.873  1.00  0.00     0.080 A 
HETATM    6  C2  UNK     1      -0.291   0.042  -0.279  1.00  0.00     0.107 A 
HETATM    7  C3  UNK     1      -0.311  -0.126   1.107  1.00  0.00     0.005 A 
HETATM    8  C4  UNK     1       1.899   1.049  -0.143  1.00  0.00     0.086 A 
HETATM    9  C5  UNK     1       1.125   0.929  -2.244  1.00  0.00     0.189 A 
HETATM   10  C6  UNK     1      -1.496  -0.750   1.713  1.00  0.00    -0.043 A 
HETATM   11  C7  UNK     1       2.487   1.564  -2.254  1.00  0.00     0.259 A 
HETATM   12  C8  UNK     1       0.808   0.311   1.852  1.00  0.00     0.017 A 
HETATM   13  C9  UNK     1       1.918   0.901   1.230  1.00  0.00     0.039 A 
HETATM   14  C10 UNK     1      -2.506  -1.131   0.919  1.00  0.00     0.090 A 
HETATM   15  C11 UNK     1      -1.559  -0.951   3.199  1.00  0.00     0.049 C 
HETATM   16  C12 UNK     1      -2.489  -0.953  -0.544  1.00  0.00     0.288 A 
ENDROOT
TORSDOF 0
