REMARK  6 active torsions:
REMARK  status: ('A' for Active; 'I' for Inactive)
REMARK    1  A    between atoms: C1_9  and  O1_6 
REMARK    2  A    between atoms: C4_12  and  O1_6 
REMARK    3  A    between atoms: C3_11  and  O2_7 
REMARK    4  A    between atoms: C2_10  and  C9_17 
REMARK    5  A    between atoms: C4_12  and  C6_14 
REMARK    6  A    between atoms: C10_18  and  C11_19 
ROOT
HETATM    1  N1  UNK     1      -3.006   1.496   2.469  1.00  0.00    -0.191 NA
HETATM    2  C9  UNK     1      -1.575  -1.239   0.932  1.00  0.00     0.036 C 
HETATM    3  C10 UNK     1      -2.715  -0.937   1.606  1.00  0.00     0.057 C 
HETATM    4  C23 UNK     1      -2.868   0.412   2.081  1.00  0.00     0.100 C 
ENDROOT
BRANCH   3   5
HETATM    5  C11 UNK     1      -3.781  -1.898   1.864  1.00  0.00     0.006 A 
HETATM    6  C16 UNK     1      -4.841  -2.089   0.978  1.00  0.00     0.047 A 
HETATM    7 Cl2  UNK     1      -4.969  -1.196  -0.497  1.00  0.00    -0.083 Cl
HETATM    8  C19 UNK     1      -5.836  -3.021   1.272  1.00  0.00     0.048 A 
HETATM    9  C21 UNK     1      -5.771  -3.763   2.451  1.00  0.00     0.035 A 
HETATM   10  C20 UNK     1      -4.711  -3.572   3.338  1.00  0.00     0.025 A 
HETATM   11 Cl4  UNK     1      -6.998  -4.913   2.814  1.00  0.00    -0.084 Cl
HETATM   12  C17 UNK     1      -3.716  -2.640   3.044  1.00  0.00     0.016 A 
ENDBRANCH   3   5
BRANCH   2  13
HETATM   13  C2  UNK     1      -0.477  -0.307   0.640  1.00  0.00    -0.015 A 
HETATM   14  C5  UNK     1      -0.545   0.399  -0.555  1.00  0.00     0.052 A 
HETATM   15  C3  UNK     1       0.470   1.297  -0.883  1.00  0.00     0.102 A 
HETATM   16  C1  UNK     1       1.546   1.482  -0.014  1.00  0.00     0.103 A 
HETATM   17  C7  UNK     1       1.605   0.769   1.184  1.00  0.00     0.059 A 
HETATM   18  C8  UNK     1       0.590  -0.129   1.512  1.00  0.00     0.024 A 
HETATM   19 Br1  UNK     1       0.732  -1.068   3.158  1.00  0.00    -0.050 Br
BRANCH  15  20
HETATM   20  O2  UNK     1       0.401   1.988  -2.055  1.00  0.00    -0.353 OA
HETATM   21  C22 UNK     1      -0.730   1.741  -2.887  1.00  0.00     0.210 C 
ENDBRANCH  15  20
BRANCH  16  22
HETATM   22  O1  UNK     1       2.543   2.356  -0.323  1.00  0.00    -0.344 OA
BRANCH  22  23
HETATM   23  C4  UNK     1       3.861   1.823  -0.434  1.00  0.00     0.216 C 
BRANCH  23  24
HETATM   24  C6  UNK     1       4.389   2.102  -1.810  1.00  0.00    -0.012 A 
HETATM   25  C12 UNK     1       4.195   1.207  -2.858  1.00  0.00     0.044 A 
HETATM   26 Cl1  UNK     1       3.338  -0.274  -2.631  1.00  0.00    -0.084 Cl
HETATM   27  C14 UNK     1       4.701   1.502  -4.124  1.00  0.00     0.048 A 
HETATM   28  C18 UNK     1       5.398   2.691  -4.337  1.00  0.00     0.035 A 
HETATM   29  C15 UNK     1       5.590   3.585  -3.284  1.00  0.00     0.024 A 
HETATM   30 Cl3  UNK     1       6.022   3.056  -5.899  1.00  0.00    -0.084 Cl
HETATM   31  C13 UNK     1       5.085   3.290  -2.018  1.00  0.00     0.013 A 
ENDBRANCH  23  24
ENDBRANCH  22  23
ENDBRANCH  16  22
ENDBRANCH   2  13
TORSDOF 6
