REMARK  3 active torsions:
REMARK  status: ('A' for Active; 'I' for Inactive)
REMARK    1  A    between atoms: C1_5  and  N1_4 
REMARK       I    between atoms: C9_13  and  N1_4 
REMARK    2  A    between atoms: C1_5  and  C2_6 
REMARK    3  A    between atoms: C11_15  and  C9_13 
ROOT
HETATM    1  O2  UNK     1       1.460   0.419   2.025  1.00  0.00    -0.267 OA
HETATM    2  N1  UNK     1      -0.577   0.200   0.911  1.00  0.00    -0.348 N 
HETATM    3  C9  UNK     1       0.782   0.442   0.999  1.00  0.00     0.258 C 
HETATM    4  H3  UNK     1      -1.042   0.311   0.015  1.00  0.00     0.163 HD
ENDROOT
BRANCH   3   5
HETATM    5  C11 UNK     1       1.393   0.745  -0.301  1.00  0.00     0.108 A 
HETATM    6  C14 UNK     1       2.456   1.558  -0.280  1.00  0.00     0.037 A 
HETATM    7  C13 UNK     1       3.130   1.916  -1.518  1.00  0.00    -0.001 A 
HETATM    8  C15 UNK     1       2.651   1.400  -2.718  1.00  0.00     0.089 A 
HETATM    9  C17 UNK     1       4.242   2.761  -1.544  1.00  0.00     0.014 A 
HETATM   10  O1  UNK     1       1.532   0.545  -2.734  1.00  0.00    -0.274 OA
HETATM   11  C18 UNK     1       3.250   1.705  -3.939  1.00  0.00     0.038 A 
HETATM   12  C16 UNK     1       0.867   0.184  -1.566  1.00  0.00     0.304 A 
HETATM   13  O3  UNK     1      -0.107  -0.560  -1.589  1.00  0.00    -0.259 OA
HETATM   14  C20 UNK     1       4.359   2.548  -3.955  1.00  0.00     0.003 A 
HETATM   15  C19 UNK     1       4.854   3.075  -2.760  1.00  0.00     0.001 A 
ENDBRANCH   3   5
BRANCH   2  16
HETATM   16  C1  UNK     1      -1.395  -0.121   2.058  1.00  0.00     0.114 C 
HETATM   17  C5  UNK     1      -1.873   1.170   2.720  1.00  0.00     0.037 C 
BRANCH  16  18
HETATM   18  C2  UNK     1      -2.533  -1.032   1.649  1.00  0.00    -0.029 A 
HETATM   19  C3  UNK     1      -2.635  -2.305   2.185  1.00  0.00    -0.054 A 
HETATM   20  C10 UNK     1      -1.641  -2.822   3.173  1.00  0.00     0.049 C 
HETATM   21  C7  UNK     1      -3.692  -3.127   1.795  1.00  0.00     0.008 A 
HETATM   22  C8  UNK     1      -4.632  -2.665   0.874  1.00  0.00     0.007 A 
HETATM   23  C6  UNK     1      -4.515  -1.380   0.344  1.00  0.00    -0.061 A 
HETATM   24  C12 UNK     1      -5.520  -0.886  -0.641  1.00  0.00     0.048 C 
HETATM   25  C4  UNK     1      -3.458  -0.557   0.734  1.00  0.00     0.016 A 
ENDBRANCH  16  18
ENDBRANCH   2  16
TORSDOF 3
