REMARK  4 active torsions:
REMARK  status: ('A' for Active; 'I' for Inactive)
REMARK    1  A    between atoms: C1_8  and  N1_6 
REMARK    2  A    between atoms: C3_10  and  N1_6 
REMARK    3  A    between atoms: C5_12  and  N2_7 
REMARK    4  A    between atoms: C3_10  and  C7_14 
ROOT
HETATM    1  O1  UNK     1      -2.302  -1.497   1.544  1.00  0.00    -0.273 OA
HETATM    2  O3  UNK     1      -1.195  -1.212   3.517  1.00  0.00    -0.257 OA
HETATM    3  C1  UNK     1      -0.403   0.263   0.312  1.00  0.00     0.081 A 
HETATM    4  C2  UNK     1      -1.514  -0.340  -0.470  1.00  0.00     0.027 A 
HETATM    5  C4  UNK     1      -2.417  -1.195   0.172  1.00  0.00     0.092 A 
HETATM    6  C5  UNK     1      -0.361  -0.069   1.613  1.00  0.00     0.205 A 
HETATM    7  C6  UNK     1      -1.731  -0.108  -1.839  1.00  0.00     0.017 A 
HETATM    8  C8  UNK     1      -1.293  -0.957   2.323  1.00  0.00     0.324 A 
HETATM    9  C9  UNK     1      -3.487  -1.802  -0.493  1.00  0.00     0.038 A 
HETATM   10  C10 UNK     1      -2.799  -0.708  -2.519  1.00  0.00     0.001 A 
HETATM   11  C11 UNK     1      -3.676  -1.554  -1.847  1.00  0.00     0.003 A 
ENDROOT
BRANCH   3  12
HETATM   12  N1  UNK     1       0.472   1.091  -0.343  1.00  0.00    -0.381 N 
HETATM   13  H1  UNK     1       1.118   1.646   0.203  1.00  0.00     0.160 HD
BRANCH  12  14
HETATM   14  C3  UNK     1       0.639   1.087  -1.769  1.00  0.00     0.184 C 
BRANCH  14  15
HETATM   15  C7  UNK     1       2.052   1.446  -2.136  1.00  0.00     0.070 A 
HETATM   16  C12 UNK     1       2.568   2.443  -2.889  1.00  0.00     0.036 A 
HETATM   17  C13 UNK     1       3.969   2.244  -2.855  1.00  0.00     0.027 A 
HETATM   18  C14 UNK     1       4.177   1.131  -2.074  1.00  0.00     0.142 A 
HETATM   19  O2  UNK     1       2.994   0.633  -1.627  1.00  0.00    -0.325 OA
ENDBRANCH  14  15
ENDBRANCH  12  14
ENDBRANCH   3  12
BRANCH   6  20
HETATM   20  N2  UNK     1       0.693   0.491   2.399  1.00  0.00    -0.107 N 
HETATM   21  O4  UNK     1       1.487   1.241   1.819  1.00  0.00    -0.531 OA
HETATM   22  O5  UNK     1       0.726   0.182   3.595  1.00  0.00    -0.531 OA
ENDBRANCH   6  20
TORSDOF 4
