REMARK  4 active torsions:
REMARK  status: ('A' for Active; 'I' for Inactive)
REMARK    1  A    between atoms: C11_19  and  O2_4 
REMARK       I    between atoms: C15_23  and  N1_7 
REMARK    2  A    between atoms: C7_15  and  N1_7 
REMARK    3  A    between atoms: C3_11  and  C9_17 
REMARK    4  A    between atoms: C13_21  and  C15_23 
ROOT
HETATM    1  N2  UNK     1       0.589   1.217   1.952  1.00  0.00    -0.191 NA
HETATM    2  C9  UNK     1      -0.208   0.548  -1.380  1.00  0.00     0.045 C 
HETATM    3  C13 UNK     1      -0.638   0.286  -0.129  1.00  0.00     0.113 C 
HETATM    4  C19 UNK     1       0.042   0.802   1.017  1.00  0.00     0.105 C 
ENDROOT
BRANCH   3   5
HETATM    5  C15 UNK     1      -1.869  -0.585   0.004  1.00  0.00     0.266 C 
HETATM    6  O4  UNK     1      -2.437  -1.015  -0.997  1.00  0.00    -0.267 OA
HETATM    7  N1  UNK     1      -2.248  -0.816   1.322  1.00  0.00    -0.320 N 
HETATM    8  H6  UNK     1      -1.700  -0.398   2.069  1.00  0.00     0.169 HD
BRANCH   7   9
HETATM    9  C7  UNK     1      -3.348  -1.585   1.781  1.00  0.00     0.070 A 
HETATM   10  C11 UNK     1      -3.584  -1.707   3.139  1.00  0.00     0.095 A 
HETATM   11  C16 UNK     1      -4.670  -2.467   3.576  1.00  0.00     0.041 A 
HETATM   12  C18 UNK     1      -5.502  -3.092   2.648  1.00  0.00     0.026 A 
HETATM   13  C17 UNK     1      -5.249  -2.958   1.283  1.00  0.00     0.036 A 
HETATM   14  C14 UNK     1      -4.163  -2.199   0.846  1.00  0.00     0.056 A 
HETATM   15 Cl2  UNK     1      -6.276  -3.730   0.138  1.00  0.00    -0.084 Cl
BRANCH  10  16
HETATM   16  O2  UNK     1      -2.783  -1.105   4.063  1.00  0.00    -0.354 OA
HETATM   17  C20 UNK     1      -1.665  -1.852   4.537  1.00  0.00     0.210 C 
ENDBRANCH  10  16
ENDBRANCH   7   9
ENDBRANCH   3   5
BRANCH   2  18
HETATM   18  C3  UNK     1       0.934   1.343  -1.746  1.00  0.00     0.039 A 
HETATM   19  C4  UNK     1       2.272   0.713  -1.908  1.00  0.00     0.197 A 
HETATM   20  C1  UNK     1       3.378   1.613  -2.285  1.00  0.00     0.050 A 
HETATM   21  O3  UNK     1       2.459  -0.485  -1.739  1.00  0.00    -0.286 OA
HETATM   22  C2  UNK     1       3.117   2.971  -2.467  1.00  0.00     0.089 A 
HETATM   23  C5  UNK     1       4.673   1.116  -2.461  1.00  0.00     0.042 A 
HETATM   24  O1  UNK     1       1.867   3.512  -2.308  1.00  0.00    -0.321 OA
HETATM   25  C6  UNK     1       4.149   3.840  -2.825  1.00  0.00     0.040 A 
HETATM   26  C8  UNK     1       0.846   2.664  -1.956  1.00  0.00     0.158 A 
HETATM   27  C12 UNK     1       5.441   3.346  -3.001  1.00  0.00     0.026 A 
HETATM   28  C10 UNK     1       5.702   1.987  -2.819  1.00  0.00     0.035 A 
HETATM   29 Cl1  UNK     1       7.300   1.385  -3.038  1.00  0.00    -0.084 Cl
ENDBRANCH   2  18
TORSDOF 4
