REMARK  7 active torsions:
REMARK  status: ('A' for Active; 'I' for Inactive)
REMARK    1  A    between atoms: C15_23  and  O3_4 
REMARK    2  A    between atoms: C20_28  and  O3_4 
REMARK    3  A    between atoms: C5_13  and  N1_6 
REMARK    4  A    between atoms: C6_14  and  N2_7 
REMARK    5  A    between atoms: C17_25  and  N3_8 
REMARK       I    between atoms: C9_17  and  N3_8 
REMARK    6  A    between atoms: C5_13  and  C7_15 
REMARK    7  A    between atoms: C6_14  and  C9_17 
ROOT
HETATM    1  N1  UNK     1       1.377  -0.357  -0.706  1.00  0.00     0.096 N 
HETATM    2  N2  UNK     1      -0.496  -1.355   1.258  1.00  0.00     0.100 N 
HETATM    3  C1  UNK     1       1.834  -1.102   0.474  1.00  0.00     0.303 C 
HETATM    4  C2  UNK     1       0.025  -0.782  -1.088  1.00  0.00     0.303 C 
HETATM    5  C3  UNK     1       0.856  -0.928   1.641  1.00  0.00     0.303 C 
HETATM    6  C4  UNK     1      -0.953  -0.609   0.079  1.00  0.00     0.303 C 
ENDROOT
BRANCH   1   7
HETATM    7  C5  UNK     1       2.309  -0.527  -1.819  1.00  0.00     0.312 C 
BRANCH   7   8
HETATM    8  C7  UNK     1       2.213   0.584  -2.806  1.00  0.00    -0.011 A 
HETATM    9  C10 UNK     1       1.370   0.516  -3.846  1.00  0.00     0.092 A 
HETATM   10  C13 UNK     1       1.241   1.588  -4.848  1.00  0.00     0.288 A 
HETATM   11  O1  UNK     1       2.044   2.704  -4.672  1.00  0.00    -0.275 OA
HETATM   12  O4  UNK     1       0.458   1.490  -5.786  1.00  0.00    -0.260 OA
HETATM   13  C11 UNK     1       2.940   2.805  -3.589  1.00  0.00     0.090 A 
HETATM   14  C8  UNK     1       3.052   1.780  -2.648  1.00  0.00     0.009 A 
HETATM   15  C14 UNK     1       3.700   3.973  -3.514  1.00  0.00     0.041 A 
HETATM   16  C12 UNK     1       3.967   1.956  -1.602  1.00  0.00     0.051 A 
HETATM   17  C15 UNK     1       4.736   3.122  -1.513  1.00  0.00     0.069 A 
HETATM   18  C16 UNK     1       4.603   4.129  -2.467  1.00  0.00     0.039 A 
BRANCH  17  19
HETATM   19  O3  UNK     1       5.620   3.274  -0.488  1.00  0.00    -0.351 OA
BRANCH  19  20
HETATM   20  C20 UNK     1       5.300   2.632   0.745  1.00  0.00     0.171 C 
HETATM   21  C24 UNK     1       5.897   3.428   1.886  1.00  0.00     0.034 C 
ENDBRANCH  19  20
ENDBRANCH  17  19
ENDBRANCH   7   8
ENDBRANCH   1   7
BRANCH   2  22
HETATM   22  C6  UNK     1      -1.428  -1.187   2.371  1.00  0.00     0.375 C 
BRANCH  22  23
HETATM   23  C9  UNK     1      -2.615  -2.115   2.180  1.00  0.00     0.250 C 
HETATM   24  O2  UNK     1      -2.526  -3.193   1.601  1.00  0.00    -0.271 OA
HETATM   25  N3  UNK     1      -3.758  -1.560   2.752  1.00  0.00    -0.324 N 
HETATM   26  H15 UNK     1      -3.670  -0.655   3.209  1.00  0.00     0.169 HD
BRANCH  25  27
HETATM   27  C17 UNK     1      -5.062  -2.110   2.786  1.00  0.00     0.056 A 
HETATM   28  C18 UNK     1      -6.119  -1.438   3.399  1.00  0.00     0.060 A 
HETATM   29 Cl1  UNK     1      -5.897   0.102   4.150  1.00  0.00    -0.082 Cl
HETATM   30  C21 UNK     1      -7.392  -2.009   3.416  1.00  0.00     0.026 A 
HETATM   31  C23 UNK     1      -7.607  -3.252   2.820  1.00  0.00     0.002 A 
HETATM   32  C22 UNK     1      -6.549  -3.923   2.207  1.00  0.00     0.002 A 
HETATM   33  C19 UNK     1      -5.277  -3.352   2.190  1.00  0.00     0.031 A 
ENDBRANCH  25  27
ENDBRANCH  22  23
ENDBRANCH   2  22
TORSDOF 7
