REMARK  7 active torsions:
REMARK  status: ('A' for Active; 'I' for Inactive)
REMARK    1  A    between atoms: C1_9  and  O1_2 
REMARK    2  A    between atoms: C24_32  and  O6_7 
REMARK    3  A    between atoms: C6_14  and  N1_8 
REMARK    4  A    between atoms: C1_9  and  C5_13 
REMARK    5  A    between atoms: C5_13  and  C9_17 
REMARK    6  A    between atoms: C10_18  and  C6_14 
REMARK    7  A    between atoms: C13_21  and  C9_17 
ROOT
HETATM    1  O2  UNK     1       1.594  -1.495  -1.555  1.00  0.00    -0.269 OA
HETATM    2  N1  UNK     1       2.733   0.552  -1.854  1.00  0.00    -0.310 N 
HETATM    3  C1  UNK     1       0.629   0.310  -2.915  1.00  0.00     0.175 A 
HETATM    4  C2  UNK     1       1.252   1.648  -3.202  1.00  0.00     0.013 A 
HETATM    5  C3  UNK     1       2.485   1.740  -2.554  1.00  0.00     0.047 A 
HETATM    6  C4  UNK     1       1.682  -0.365  -2.013  1.00  0.00     0.264 A 
HETATM    7  C7  UNK     1       0.775   2.695  -3.970  1.00  0.00     0.013 A 
HETATM    8  C8  UNK     1       3.276   2.872  -2.650  1.00  0.00     0.030 A 
HETATM    9  C11 UNK     1       1.560   3.846  -4.078  1.00  0.00     0.001 A 
HETATM   10  C12 UNK     1       2.800   3.934  -3.422  1.00  0.00     0.002 A 
ENDROOT
BRANCH   3  11
HETATM   11  O1  UNK     1       0.522  -0.438  -4.111  1.00  0.00    -0.375 OA
HETATM   12  H7  UNK     1       0.263  -1.348  -3.890  1.00  0.00     0.211 HD
ENDBRANCH   3  11
BRANCH   3  13
HETATM   13  C5  UNK     1      -0.717   0.408  -2.214  1.00  0.00     0.137 C 
BRANCH  13  14
HETATM   14  C9  UNK     1      -1.315  -0.953  -1.927  1.00  0.00     0.169 C 
HETATM   15  O3  UNK     1      -1.132  -1.943  -2.630  1.00  0.00    -0.292 OA
BRANCH  14  16
HETATM   16  C13 UNK     1      -2.164  -1.054  -0.723  1.00  0.00     0.086 A 
HETATM   17  C16 UNK     1      -2.185  -2.244  -0.112  1.00  0.00     0.035 A 
HETATM   18  C18 UNK     1      -2.992  -2.441   1.082  1.00  0.00     0.002 A 
HETATM   19  C19 UNK     1      -3.737  -1.375   1.574  1.00  0.00     0.123 A 
HETATM   20  C23 UNK     1      -3.043  -3.666   1.753  1.00  0.00     0.014 A 
HETATM   21  O4  UNK     1      -3.711  -0.124   0.927  1.00  0.00    -0.271 OA
HETATM   22  C24 UNK     1      -4.530  -1.497   2.714  1.00  0.00     0.102 A 
HETATM   23  C17 UNK     1      -2.949   0.095  -0.217  1.00  0.00     0.302 A 
HETATM   24  O5  UNK     1      -2.933   1.187  -0.775  1.00  0.00    -0.259 OA
HETATM   25  C26 UNK     1      -4.576  -2.722   3.376  1.00  0.00     0.040 A 
HETATM   26  C25 UNK     1      -3.834  -3.804   2.897  1.00  0.00     0.004 A 
BRANCH  22  27
HETATM   27  O6  UNK     1      -5.254  -0.446   3.184  1.00  0.00    -0.353 OA
HETATM   28  C27 UNK     1      -4.617   0.410   4.131  1.00  0.00     0.210 C 
ENDBRANCH  22  27
ENDBRANCH  14  16
ENDBRANCH  13  14
ENDBRANCH   3  13
BRANCH   2  29
HETATM   29  C6  UNK     1       3.931   0.321  -1.082  1.00  0.00     0.170 C 
BRANCH  29  30
HETATM   30  C10 UNK     1       3.712   0.770   0.331  1.00  0.00    -0.040 A 
HETATM   31  C14 UNK     1       4.010   2.080   0.693  1.00  0.00     0.010 A 
HETATM   32  C20 UNK     1       3.807   2.498   2.008  1.00  0.00     0.024 A 
HETATM   33  C22 UNK     1       3.307   1.604   2.955  1.00  0.00     0.034 A 
HETATM   34  C21 UNK     1       3.010   0.291   2.586  1.00  0.00     0.024 A 
HETATM   35 Cl1  UNK     1       3.057   2.119   4.577  1.00  0.00    -0.084 Cl
HETATM   36  C15 UNK     1       3.213  -0.126   1.271  1.00  0.00     0.010 A 
ENDBRANCH  29  30
ENDBRANCH   2  29
TORSDOF 7
