REMARK  6 active torsions:
REMARK  status: ('A' for Active; 'I' for Inactive)
REMARK    1  A    between atoms: C13_17  and  O3_3 
REMARK    2  A    between atoms: C12_16  and  N1_4 
REMARK    3  A    between atoms: C9_13  and  N1_4 
REMARK    4  A    between atoms: C8_12  and  C9_13 
REMARK    5  A    between atoms: C12_16  and  C14_18 
REMARK    6  A    between atoms: C14_18  and  C17_21 
ROOT
HETATM    1  O1  UNK     1      -0.003   0.810  -1.729  1.00  0.00    -0.274 OA
HETATM    2  O2  UNK     1       0.257   1.122  -3.989  1.00  0.00    -0.259 OA
HETATM    3  C1  UNK     1       2.719   1.339  -1.413  1.00  0.00    -0.033 A 
HETATM    4  C2  UNK     1       4.176   1.647  -1.452  1.00  0.00     0.040 C 
HETATM    5  C3  UNK     1       4.355   2.195  -2.873  1.00  0.00     0.009 C 
HETATM    6  C4  UNK     1       3.161   1.690  -3.690  1.00  0.00     0.046 C 
HETATM    7  C5  UNK     1       2.170   1.365  -2.629  1.00  0.00     0.025 A 
HETATM    8  C6  UNK     1       1.927   1.029  -0.241  1.00  0.00     0.006 A 
HETATM    9  C7  UNK     1       0.567   0.771  -0.433  1.00  0.00     0.101 A 
HETATM   10  C8  UNK     1      -0.282   0.464   0.629  1.00  0.00     0.038 A 
HETATM   11  C10 UNK     1       0.750   1.097  -2.868  1.00  0.00     0.295 A 
HETATM   12  C11 UNK     1       2.441   0.971   1.056  1.00  0.00     0.017 A 
HETATM   13  C13 UNK     1       0.243   0.411   1.918  1.00  0.00     0.076 A 
HETATM   14  C15 UNK     1       1.600   0.663   2.131  1.00  0.00     0.038 A 
ENDROOT
BRANCH  10  15
HETATM   15  C9  UNK     1      -1.732   0.193   0.394  1.00  0.00     0.316 C 
BRANCH  15  16
HETATM   16  N1  UNK     1      -2.204  -0.981   1.129  1.00  0.00     0.088 N 
HETATM   17  C16 UNK     1      -1.463  -2.172   0.720  1.00  0.00     0.310 C 
BRANCH  16  18
HETATM   18  C12 UNK     1      -3.638  -1.172   0.916  1.00  0.00     0.272 C 
BRANCH  18  19
HETATM   19  C14 UNK     1      -4.148  -2.340   1.760  1.00  0.00     0.030 C 
BRANCH  19  20
HETATM   20  C17 UNK     1      -5.652  -2.544   1.568  1.00  0.00    -0.003 C 
HETATM   21  C18 UNK     1      -6.160  -3.727   2.377  1.00  0.00     0.005 C 
ENDBRANCH  19  20
ENDBRANCH  18  19
ENDBRANCH  16  18
ENDBRANCH  15  16
ENDBRANCH  10  15
BRANCH  13  22
HETATM   22  O3  UNK     1      -0.553   0.115   2.983  1.00  0.00    -0.360 OA
HETATM   23  H23 UNK     1      -1.486   0.089   2.720  1.00  0.00     0.217 HD
ENDBRANCH  13  22
TORSDOF 6
