REMARK  2 active torsions:
REMARK  status: ('A' for Active; 'I' for Inactive)
REMARK       I    between atoms: C11_17  and  N1_6 
REMARK    1  A    between atoms: C4_10  and  N1_6 
REMARK    2  A    between atoms: C11_17  and  C12_18 
ROOT
HETATM    1  O1  UNK     1      -3.265  -1.800  -0.016  1.00  0.00    -0.275 OA
HETATM    2  O3  UNK     1      -5.230  -2.969  -0.073  1.00  0.00    -0.260 OA
HETATM    3  C1  UNK     1      -2.402  -1.019   2.131  1.00  0.00     0.004 A 
HETATM    4  C2  UNK     1      -2.289  -1.126   0.745  1.00  0.00     0.092 A 
HETATM    5  C3  UNK     1      -3.567  -1.624   2.791  1.00  0.00    -0.043 A 
HETATM    6  C4  UNK     1      -0.219   0.095   0.736  1.00  0.00     0.037 A 
HETATM    7  C5  UNK     1      -1.215  -0.581   0.039  1.00  0.00     0.067 A 
HETATM    8  C6  UNK     1      -1.388  -0.334   2.815  1.00  0.00     0.017 A 
HETATM    9  C7  UNK     1      -0.305   0.219   2.122  1.00  0.00     0.030 A 
HETATM   10  C8  UNK     1      -4.480  -2.258   2.043  1.00  0.00     0.090 A 
HETATM   11  C9  UNK     1      -3.717  -1.525   4.282  1.00  0.00     0.049 C 
HETATM   12  C10 UNK     1      -4.374  -2.381   0.579  1.00  0.00     0.288 A 
ENDROOT
BRANCH   6  13
HETATM   13  N1  UNK     1       0.864   0.648   0.051  1.00  0.00    -0.323 N 
HETATM   14  C11 UNK     1       1.128   0.629  -1.333  1.00  0.00     0.257 C 
HETATM   15  O2  UNK     1       0.396   0.093  -2.163  1.00  0.00    -0.267 OA
HETATM   16  H5  UNK     1       1.545   1.125   0.639  1.00  0.00     0.169 HD
BRANCH  14  17
HETATM   17  C12 UNK     1       2.390   1.272  -1.738  1.00  0.00     0.054 A 
HETATM   18  C13 UNK     1       2.407   2.329  -2.636  1.00  0.00     0.052 A 
HETATM   19 Cl1  UNK     1       0.959   2.959  -3.335  1.00  0.00    -0.083 Cl
HETATM   20  C15 UNK     1       3.626   2.908  -2.991  1.00  0.00     0.067 A 
HETATM   21  C17 UNK     1       4.814   2.423  -2.444  1.00  0.00     0.118 A 
HETATM   22  C16 UNK     1       4.783   1.360  -1.542  1.00  0.00     0.043 A 
HETATM   23  F1  UNK     1       5.984   2.979  -2.784  1.00  0.00    -0.206 F 
HETATM   24  C14 UNK     1       3.565   0.781  -1.187  1.00  0.00     0.022 A 
ENDBRANCH  14  17
ENDBRANCH   6  13
TORSDOF 2
