REMARK  4 active torsions:
REMARK  status: ('A' for Active; 'I' for Inactive)
REMARK    1  A    between atoms: C1_1  and  C3_3 
REMARK    2  A    between atoms: C1_1  and  C4_4 
REMARK    3  A    between atoms: C2_2  and  C5_5 
REMARK    4  A    between atoms: C2_2  and  C6_6 
ROOT
HETATM    1  C1  UNK     1       0.215   0.192   0.471  1.00  0.00    -0.004 C 
HETATM    2  C2  UNK     1      -0.352   0.072  -0.784  1.00  0.00    -0.004 C 
ENDROOT
BRANCH   1   3
HETATM    3  C3  UNK     1      -0.474  -0.270   1.666  1.00  0.00    -0.024 A 
HETATM    4  C11 UNK     1      -0.294  -1.579   2.113  1.00  0.00     0.012 A 
HETATM    5  C19 UNK     1      -0.955  -2.021   3.259  1.00  0.00     0.001 A 
HETATM    6  C23 UNK     1      -1.795  -1.154   3.958  1.00  0.00     0.000 A 
HETATM    7  C15 UNK     1      -1.975   0.155   3.511  1.00  0.00     0.001 A 
HETATM    8  C7  UNK     1      -1.315   0.597   2.365  1.00  0.00     0.012 A 
ENDBRANCH   1   3
BRANCH   1   9
HETATM    9  C4  UNK     1       1.577   0.818   0.579  1.00  0.00    -0.024 A 
HETATM   10  C12 UNK     1       1.655   2.176   0.752  1.00  0.00     0.012 A 
HETATM   11  C20 UNK     1       2.919   2.757   0.852  1.00  0.00     0.001 A 
HETATM   12  C24 UNK     1       4.061   1.959   0.777  1.00  0.00     0.000 A 
HETATM   13  C16 UNK     1       3.939   0.581   0.601  1.00  0.00     0.001 A 
HETATM   14  C8  UNK     1       2.675   0.000   0.500  1.00  0.00     0.012 A 
ENDBRANCH   1   9
BRANCH   2  15
HETATM   15  C5  UNK     1       0.355   0.539  -2.006  1.00  0.00    -0.024 A 
HETATM   16  C13 UNK     1       1.177  -0.341  -2.677  1.00  0.00     0.012 A 
HETATM   17  C21 UNK     1       1.840   0.098  -3.823  1.00  0.00     0.001 A 
HETATM   18  C25 UNK     1       1.664   1.407  -4.272  1.00  0.00     0.000 A 
HETATM   19  C17 UNK     1       0.826   2.277  -3.575  1.00  0.00     0.001 A 
HETATM   20  C9  UNK     1       0.164   1.838  -2.429  1.00  0.00     0.012 A 
ENDBRANCH   2  15
BRANCH   2  21
HETATM   21  C6  UNK     1      -1.700  -0.540  -0.918  1.00  0.00    -0.024 A 
HETATM   22  C10 UNK     1      -1.796  -1.903  -1.103  1.00  0.00     0.012 A 
HETATM   23  C18 UNK     1      -3.061  -2.477  -1.229  1.00  0.00     0.001 A 
HETATM   24  C26 UNK     1      -4.200  -1.675  -1.168  1.00  0.00     0.000 A 
HETATM   25  C22 UNK     1      -4.075  -0.299  -0.981  1.00  0.00     0.001 A 
HETATM   26  C14 UNK     1      -2.810   0.276  -0.855  1.00  0.00     0.012 A 
ENDBRANCH   2  21
TORSDOF 4
