REMARK  5 active torsions:
REMARK  status: ('A' for Active; 'I' for Inactive)
REMARK    1  A    between atoms: C18_23  and  O2_2 
REMARK    2  A    between atoms: C9_14  and  O2_2 
REMARK    3  A    between atoms: C21_26  and  O4_4 
REMARK    4  A    between atoms: C3_8  and  C5_10 
REMARK    5  A    between atoms: C17_22  and  C18_23 
ROOT
HETATM    1  O1  UNK     1       0.927   1.525  -3.538  1.00  0.00    -0.274 OA
HETATM    2  O3  UNK     1       2.764   2.735  -4.117  1.00  0.00    -0.259 OA
HETATM    3  C1  UNK     1       2.159   0.972  -1.045  1.00  0.00    -0.032 A 
HETATM    4  C2  UNK     1       0.818   0.437  -1.363  1.00  0.00     0.007 A 
HETATM    5  C3  UNK     1       2.796   1.733  -1.962  1.00  0.00     0.057 A 
HETATM    6  C4  UNK     1       0.249   0.733  -2.599  1.00  0.00     0.090 A 
HETATM    7  C6  UNK     1       0.067  -0.363  -0.487  1.00  0.00     0.052 A 
HETATM    8  C7  UNK     1       2.737   0.627   0.308  1.00  0.00     0.050 C 
HETATM    9  C8  UNK     1       2.184   2.046  -3.283  1.00  0.00     0.300 A 
HETATM   10  C9  UNK     1      -1.200  -0.838  -0.849  1.00  0.00     0.080 A 
HETATM   11  C10 UNK     1      -1.013   0.267  -2.977  1.00  0.00     0.041 A 
HETATM   12  C11 UNK     1      -1.739  -0.523  -2.094  1.00  0.00     0.040 A 
ENDROOT
BRANCH  10  13
HETATM   13  O2  UNK     1      -1.907  -1.612   0.021  1.00  0.00    -0.275 OA
BRANCH  13  14
HETATM   14  C18 UNK     1      -2.752  -0.903   0.899  1.00  0.00     0.298 C 
HETATM   15  O5  UNK     1      -2.855   0.319   0.893  1.00  0.00    -0.259 OA
BRANCH  14  16
HETATM   16  C17 UNK     1      -3.477  -1.801   1.801  1.00  0.00     0.042 A 
HETATM   17  C19 UNK     1      -4.358  -1.272   2.737  1.00  0.00     0.054 A 
HETATM   18  C21 UNK     1      -5.048  -2.127   3.596  1.00  0.00     0.069 A 
HETATM   19  C23 UNK     1      -4.852  -3.506   3.513  1.00  0.00     0.037 A 
HETATM   20  C22 UNK     1      -3.966  -4.029   2.571  1.00  0.00     0.004 A 
HETATM   21  C20 UNK     1      -3.276  -3.174   1.712  1.00  0.00     0.018 A 
BRANCH  18  22
HETATM   22  O4  UNK     1      -5.913  -1.617   4.515  1.00  0.00    -0.356 OA
HETATM   23  C24 UNK     1      -6.585  -2.549   5.361  1.00  0.00     0.210 C 
ENDBRANCH  18  22
ENDBRANCH  14  16
ENDBRANCH  13  14
ENDBRANCH  10  13
BRANCH   5  24
HETATM   24  C5  UNK     1       4.123   2.280  -1.685  1.00  0.00    -0.019 A 
HETATM   25  C12 UNK     1       5.256   1.548  -2.025  1.00  0.00     0.012 A 
HETATM   26  C14 UNK     1       6.523   2.070  -1.762  1.00  0.00     0.001 A 
HETATM   27  C16 UNK     1       6.649   3.323  -1.161  1.00  0.00     0.000 A 
HETATM   28  C15 UNK     1       5.510   4.052  -0.823  1.00  0.00     0.001 A 
HETATM   29  C13 UNK     1       4.243   3.530  -1.086  1.00  0.00     0.012 A 
ENDBRANCH   5  24
TORSDOF 5
