REMARK  3 active torsions:
REMARK  status: ('A' for Active; 'I' for Inactive)
REMARK    1  A    between atoms: C7_15  and  S1_1 
REMARK    2  A    between atoms: N1_7  and  S1_1 
REMARK       I    between atoms: C6_14  and  N2_8 
REMARK    3  A    between atoms: C1_9  and  C6_14 
ROOT
HETATM    1  S1  UNK     1       0.173  -0.272   2.499  1.00  0.00     0.243 S 
HETATM    2  O1  UNK     1       1.099  -1.339   2.810  1.00  0.00    -0.206 OA
HETATM    3  O2  UNK     1      -0.181   0.723   3.489  1.00  0.00    -0.206 OA
ENDROOT
BRANCH   1   4
HETATM    4  C7  UNK     1       0.780   0.572   1.072  1.00  0.00     0.075 A 
HETATM    5  C8  UNK     1       1.628  -0.097   0.199  1.00  0.00     0.039 A 
HETATM    6  C10 UNK     1       2.110   0.567  -0.931  1.00  0.00    -0.001 A 
HETATM    7  C12 UNK     1       1.724   1.887  -1.150  1.00  0.00     0.089 A 
HETATM    8  C13 UNK     1       2.999  -0.071  -1.886  1.00  0.00     0.020 A 
HETATM    9  C11 UNK     1       0.874   2.558  -0.273  1.00  0.00     0.040 A 
HETATM   10  O4  UNK     1       2.188   2.592  -2.280  1.00  0.00    -0.275 OA
HETATM   11  C9  UNK     1       0.398   1.888   0.851  1.00  0.00     0.027 A 
HETATM   12  C15 UNK     1       3.040   2.001  -3.208  1.00  0.00     0.288 A 
HETATM   13  C14 UNK     1       3.434   0.603  -2.953  1.00  0.00     0.083 A 
HETATM   14  O5  UNK     1       3.448   2.607  -4.193  1.00  0.00    -0.260 OA
ENDBRANCH   1   4
BRANCH   1  15
HETATM   15  N1  UNK     1      -1.264  -0.949   1.855  1.00  0.00    -0.206 NA
HETATM   16  C4  UNK     1      -2.370   0.019   1.608  1.00  0.00     0.108 C 
HETATM   17  C2  UNK     1      -3.679  -0.740   1.411  1.00  0.00     0.029 C 
HETATM   18  C1  UNK     1      -3.589  -1.798   0.310  1.00  0.00     0.080 C 
HETATM   19  C3  UNK     1      -2.348  -2.678   0.466  1.00  0.00     0.029 C 
HETATM   20  C5  UNK     1      -1.070  -1.877   0.705  1.00  0.00     0.108 C 
BRANCH  18  21
HETATM   21  C6  UNK     1      -3.628  -1.148  -1.043  1.00  0.00     0.219 C 
HETATM   22  O3  UNK     1      -3.674   0.073  -1.179  1.00  0.00    -0.273 OA
HETATM   23  N2  UNK     1      -3.628  -2.041  -2.087  1.00  0.00    -0.370 N 
HETATM   24  H12 UNK     1      -3.651  -1.714  -3.048  1.00  0.00     0.159 HD
HETATM   25  H13 UNK     1      -3.647  -3.046  -1.954  1.00  0.00     0.159 HD
ENDBRANCH  18  21
ENDBRANCH   1  15
TORSDOF 3
