REMARK  1 active torsions:
REMARK  status: ('A' for Active; 'I' for Inactive)
REMARK    1  A    between atoms: C1_5  and  C3_7 
ROOT
HETATM    1 Cl1  UNK     1       0.030   0.008   3.394  1.00  0.00    -0.081 Cl
HETATM    2 Cl2  UNK     1      -4.751  -2.345   2.648  1.00  0.00    -0.084 Cl
HETATM    3  O1  UNK     1       0.091   0.180   0.464  1.00  0.00    -0.307 OA
HETATM    4  O2  UNK     1      -2.737  -1.100  -2.174  1.00  0.00    -0.287 OA
HETATM    5  C1  UNK     1       0.257   0.320  -0.906  1.00  0.00     0.090 A 
HETATM    6  C2  UNK     1      -2.062  -0.877   0.079  1.00  0.00     0.051 A 
HETATM    7  C4  UNK     1      -1.055  -0.416   0.926  1.00  0.00     0.112 A 
HETATM    8  C5  UNK     1      -0.642  -0.078  -1.820  1.00  0.00     0.093 A 
HETATM    9  C6  UNK     1      -1.894  -0.721  -1.374  1.00  0.00     0.187 A 
HETATM   10  C9  UNK     1      -3.209  -1.476   0.606  1.00  0.00     0.042 A 
HETATM   11  C10 UNK     1      -1.191  -0.550   2.308  1.00  0.00     0.070 A 
HETATM   12  C14 UNK     1      -3.341  -1.609   1.988  1.00  0.00     0.036 A 
HETATM   13  C15 UNK     1      -2.335  -1.147   2.838  1.00  0.00     0.050 A 
ENDROOT
BRANCH   5  14
HETATM   14  C3  UNK     1       1.521   0.978  -1.293  1.00  0.00    -0.002 A 
HETATM   15  C7  UNK     1       1.582   1.753  -2.453  1.00  0.00     0.015 A 
HETATM   16  C12 UNK     1       2.777   2.374  -2.819  1.00  0.00     0.007 A 
HETATM   17  C11 UNK     1       3.914   2.222  -2.025  1.00  0.00    -0.062 A 
HETATM   18  C13 UNK     1       3.856   1.448  -0.866  1.00  0.00     0.007 A 
HETATM   19  C16 UNK     1       5.190   2.887  -2.416  1.00  0.00     0.048 C 
HETATM   20  C8  UNK     1       2.662   0.827  -0.500  1.00  0.00     0.015 A 
ENDBRANCH   5  14
TORSDOF 1
