REMARK  3 active torsions:
REMARK  status: ('A' for Active; 'I' for Inactive)
REMARK    1  A    between atoms: C1_4  and  C3_6 
REMARK    2  A    between atoms: C2_5  and  C4_7 
REMARK    3  A    between atoms: C3_6  and  C5_8 
ROOT
HETATM    1  O1  UNK     1       1.056  -1.944   3.392  1.00  0.00    -0.288 OA
HETATM    2  C3  UNK     1       0.755  -2.005   2.205  1.00  0.00     0.182 C 
ENDROOT
BRANCH   2   3
HETATM    3  C1  UNK     1       0.919  -3.283   1.471  1.00  0.00     0.014 A 
HETATM    4  C6  UNK     1       1.166  -3.248   0.113  1.00  0.00     0.017 A 
HETATM    5  C10 UNK     1       1.321  -4.450  -0.577  1.00  0.00     0.019 A 
HETATM    6  C14 UNK     1       1.225  -5.663   0.104  1.00  0.00     0.006 A 
HETATM    7  C11 UNK     1       0.975  -5.674   1.476  1.00  0.00     0.019 A 
HETATM    8  I1  UNK     1       1.455  -7.453  -0.924  1.00  0.00    -0.045 I 
HETATM    9  C7  UNK     1       0.820  -4.472   2.167  1.00  0.00     0.017 A 
ENDBRANCH   2   3
BRANCH   2  10
HETATM   10  C5  UNK     1       0.192  -0.846   1.456  1.00  0.00     0.056 C 
HETATM   11  C4  UNK     1       0.536   0.385   1.828  1.00  0.00     0.015 C 
BRANCH  11  12
HETATM   12  C2  UNK     1       0.021   1.577   1.174  1.00  0.00    -0.036 A 
HETATM   13  C8  UNK     1      -0.518   1.491  -0.110  1.00  0.00     0.013 A 
HETATM   14  C12 UNK     1      -1.011   2.635  -0.737  1.00  0.00     0.024 A 
HETATM   15  C15 UNK     1      -0.967   3.865  -0.081  1.00  0.00     0.034 A 
HETATM   16  C13 UNK     1      -0.428   3.951   1.203  1.00  0.00     0.024 A 
HETATM   17 Cl1  UNK     1      -1.576   5.276  -0.854  1.00  0.00    -0.084 Cl
HETATM   18  C9  UNK     1       0.066   2.807   1.831  1.00  0.00     0.013 A 
ENDBRANCH  11  12
ENDBRANCH   2  10
TORSDOF 3
