REMARK  3 active torsions:
REMARK  status: ('A' for Active; 'I' for Inactive)
REMARK       I    between atoms: C18_25  and  N1_6 
REMARK    1  A    between atoms: N1_6  and  N2_7 
REMARK    2  A    between atoms: C18_25  and  C7_14 
REMARK    3  A    between atoms: C14_21  and  C21_28 
ROOT
HETATM    1  O3  UNK     1       1.598   1.325   1.148  1.00  0.00    -0.265 OA
HETATM    2  N1  UNK     1       0.548   0.342  -0.640  1.00  0.00    -0.243 N 
HETATM    3  C18 UNK     1       1.566   1.089  -0.062  1.00  0.00     0.280 C 
HETATM    4  H15 UNK     1       0.504   0.150  -1.636  1.00  0.00     0.192 HD
ENDROOT
BRANCH   2   5
HETATM    5  N2  UNK     1      -0.437  -0.140   0.156  1.00  0.00    -0.183 NA
HETATM    6  C21 UNK     1      -1.357  -0.792  -0.480  1.00  0.00     0.156 C 
BRANCH   6   7
HETATM    7  C14 UNK     1      -2.507  -1.390   0.199  1.00  0.00     0.056 A 
HETATM    8  C13 UNK     1      -2.729  -1.309   1.659  1.00  0.00     0.198 A 
HETATM    9  O2  UNK     1      -1.953  -0.727   2.405  1.00  0.00    -0.286 OA
HETATM   10  C3  UNK     1      -3.944  -1.974   2.165  1.00  0.00     0.049 A 
HETATM   11  C12 UNK     1      -4.250  -1.958   3.528  1.00  0.00     0.025 A 
HETATM   12  C9  UNK     1      -4.789  -2.621   1.262  1.00  0.00     0.089 A 
HETATM   13  C11 UNK     1      -5.406  -2.594   3.982  1.00  0.00    -0.061 A 
HETATM   14  C16 UNK     1      -6.251  -3.242   3.079  1.00  0.00     0.009 A 
HETATM   15  C20 UNK     1      -5.740  -2.582   5.436  1.00  0.00     0.048 C 
HETATM   16  C15 UNK     1      -5.944  -3.257   1.718  1.00  0.00     0.039 A 
HETATM   17  O1  UNK     1      -4.539  -2.669  -0.088  1.00  0.00    -0.321 OA
HETATM   18  C19 UNK     1      -3.403  -2.045  -0.547  1.00  0.00     0.159 A 
ENDBRANCH   6   7
ENDBRANCH   2   5
BRANCH   3  19
HETATM   19  C7  UNK     1       2.585   1.602  -0.989  1.00  0.00     0.097 A 
HETATM   20  C6  UNK     1       2.412   2.412  -2.053  1.00  0.00     0.068 A 
HETATM   21  C1  UNK     1       3.656   2.692  -2.711  1.00  0.00     0.004 A 
HETATM   22 Cl1  UNK     1       0.907   3.050  -2.587  1.00  0.00    -0.082 Cl
HETATM   23  C2  UNK     1       4.722   2.050  -2.074  1.00  0.00     0.018 A 
HETATM   24  C8  UNK     1       3.937   3.484  -3.851  1.00  0.00     0.015 A 
HETATM   25  S1  UNK     1       4.182   1.138  -0.713  1.00  0.00    -0.082 SA
HETATM   26  C5  UNK     1       6.044   2.177  -2.541  1.00  0.00     0.026 A 
HETATM   27  C4  UNK     1       6.289   2.965  -3.668  1.00  0.00    -0.061 A 
HETATM   28  C10 UNK     1       5.248   3.612  -4.317  1.00  0.00     0.007 A 
HETATM   29  C17 UNK     1       7.685   3.111  -4.175  1.00  0.00     0.048 C 
ENDBRANCH   3  19
TORSDOF 3
