REMARK  5 active torsions:
REMARK  status: ('A' for Active; 'I' for Inactive)
REMARK    1  A    between atoms: C10_17  and  O1_2 
REMARK    2  A    between atoms: C13_20  and  O1_2 
REMARK       I    between atoms: C11_18  and  N1_7 
REMARK    3  A    between atoms: C9_16  and  N1_7 
REMARK    4  A    between atoms: C10_17  and  C8_15 
REMARK    5  A    between atoms: C11_18  and  C12_19 
ROOT
HETATM    1  S1  UNK     1      -2.500  -1.303  -1.017  1.00  0.00    -0.075 SA
HETATM    2  C1  UNK     1      -5.128  -1.551   2.882  1.00  0.00     0.005 C 
HETATM    3  C2  UNK     1      -6.201  -2.158   1.973  1.00  0.00     0.001 C 
HETATM    4  C3  UNK     1      -3.741  -2.173   2.717  1.00  0.00     0.041 C 
HETATM    5  C4  UNK     1      -6.052  -1.834   0.483  1.00  0.00     0.005 C 
HETATM    6  C5  UNK     1      -3.045  -1.742   1.463  1.00  0.00    -0.026 A 
HETATM    7  C6  UNK     1      -4.867  -2.522  -0.196  1.00  0.00     0.046 C 
HETATM    8  C7  UNK     1      -3.557  -1.905   0.187  1.00  0.00    -0.008 A 
HETATM    9  C8  UNK     1      -1.760  -1.110   1.426  1.00  0.00     0.080 A 
HETATM   10  C9  UNK     1      -1.348  -0.819   0.146  1.00  0.00     0.094 A 
ENDROOT
BRANCH  10  11
HETATM   11  N1  UNK     1      -0.208  -0.228  -0.327  1.00  0.00    -0.316 N 
HETATM   12  C11 UNK     1       0.157   0.045  -1.665  1.00  0.00     0.262 C 
HETATM   13  O4  UNK     1      -0.489  -0.200  -2.676  1.00  0.00    -0.267 OA
HETATM   14  H11 UNK     1       0.442   0.057   0.401  1.00  0.00     0.169 HD
BRANCH  12  15
HETATM   15  C12 UNK     1       1.476   0.701  -1.789  1.00  0.00     0.108 A 
HETATM   16  C14 UNK     1       1.633   1.521  -2.835  1.00  0.00     0.037 A 
HETATM   17  C15 UNK     1       2.896   2.212  -3.042  1.00  0.00    -0.001 A 
HETATM   18  C17 UNK     1       3.932   2.005  -2.138  1.00  0.00     0.089 A 
HETATM   19  C19 UNK     1       3.103   3.077  -4.119  1.00  0.00     0.014 A 
HETATM   20  O3  UNK     1       3.761   1.141  -1.038  1.00  0.00    -0.274 OA
HETATM   21  C20 UNK     1       5.166   2.636  -2.279  1.00  0.00     0.038 A 
HETATM   22  C16 UNK     1       2.565   0.466  -0.814  1.00  0.00     0.304 A 
HETATM   23  O5  UNK     1       2.425  -0.285   0.145  1.00  0.00    -0.259 OA
HETATM   24  C22 UNK     1       5.366   3.497  -3.357  1.00  0.00     0.003 A 
HETATM   25  C21 UNK     1       4.337   3.717  -4.275  1.00  0.00     0.001 A 
ENDBRANCH  12  15
ENDBRANCH  10  11
BRANCH   9  26
HETATM   26  C10 UNK     1      -0.944  -0.791   2.574  1.00  0.00     0.296 C 
HETATM   27  O2  UNK     1      -0.950  -1.443   3.627  1.00  0.00    -0.259 OA
BRANCH  26  28
HETATM   28  O1  UNK     1      -0.144   0.317   2.398  1.00  0.00    -0.318 OA
BRANCH  28  29
HETATM   29  C13 UNK     1       0.692   0.690   3.500  1.00  0.00     0.174 C 
HETATM   30  C18 UNK     1       1.489   1.919   3.119  1.00  0.00     0.034 C 
ENDBRANCH  28  29
ENDBRANCH  26  28
ENDBRANCH   9  26
TORSDOF 5
