REMARK  4 active torsions:
REMARK  status: ('A' for Active; 'I' for Inactive)
REMARK    1  A    between atoms: C2_6  and  N1_3 
REMARK    2  A    between atoms: C3_7  and  N1_3 
REMARK    3  A    between atoms: C7_11  and  N2_4 
REMARK    4  A    between atoms: C1_5  and  C2_6 
ROOT
HETATM    1  O1  UNK     1      -1.287  -0.773   2.111  1.00  0.00    -0.273 OA
HETATM    2  O2  UNK     1       0.373  -0.059   3.487  1.00  0.00    -0.257 OA
HETATM    3  C3  UNK     1       0.121   0.358  -0.071  1.00  0.00     0.074 A 
HETATM    4  C4  UNK     1      -1.172  -0.327  -0.282  1.00  0.00     0.027 A 
HETATM    5  C7  UNK     1       0.629   0.444   1.178  1.00  0.00     0.130 A 
HETATM    6  C8  UNK     1      -1.830  -0.870   0.820  1.00  0.00     0.092 A 
HETATM    7  C9  UNK     1      -1.799  -0.475  -1.531  1.00  0.00     0.017 A 
HETATM    8  C10 UNK     1      -0.083  -0.136   2.350  1.00  0.00     0.317 A 
HETATM    9  C11 UNK     1      -3.055  -1.535   0.716  1.00  0.00     0.038 A 
HETATM   10  C12 UNK     1      -3.026  -1.138  -1.653  1.00  0.00     0.001 A 
HETATM   11  C13 UNK     1      -3.654  -1.668  -0.530  1.00  0.00     0.003 A 
ENDROOT
BRANCH   3  12
HETATM   12  N1  UNK     1       0.762   0.884  -1.165  1.00  0.00    -0.387 N 
HETATM   13  H4  UNK     1       0.271   0.882  -2.048  1.00  0.00     0.159 HD
BRANCH  12  14
HETATM   14  C2  UNK     1       2.165   1.190  -1.180  1.00  0.00     0.123 C 
BRANCH  14  15
HETATM   15  C1  UNK     1       2.706   1.332  -2.609  1.00  0.00    -0.005 C 
HETATM   16  C5  UNK     1       1.982   2.428  -3.392  1.00  0.00     0.011 C 
HETATM   17  C6  UNK     1       4.218   1.566  -2.631  1.00  0.00     0.011 C 
ENDBRANCH  14  15
ENDBRANCH  12  14
ENDBRANCH   3  12
BRANCH   5  18
HETATM   18  N2  UNK     1       1.815   1.054   1.494  1.00  0.00    -0.392 N 
HETATM   19  H15 UNK     1       2.041   1.936   1.061  1.00  0.00     0.156 HD
HETATM   20  H16 UNK     1       2.157   0.937   2.442  1.00  0.00     0.156 HD
ENDBRANCH   5  18
TORSDOF 4
