REMARK  4 active torsions:
REMARK  status: ('A' for Active; 'I' for Inactive)
REMARK    1  A    between atoms: C17_23  and  O1_1 
REMARK    2  A    between atoms: C7_13  and  O1_1 
REMARK    3  A    between atoms: C5_11  and  N1_5 
REMARK       I    between atoms: C6_12  and  N2_6 
REMARK    4  A    between atoms: C6_12  and  C9_15 
ROOT
HETATM    1  O2  UNK     1      -0.833   2.344  -2.582  1.00  0.00    -0.267 OA
HETATM    2  N1  UNK     1      -1.856  -0.720   1.048  1.00  0.00    -0.376 N 
HETATM    3  N2  UNK     1      -0.763   0.411  -1.295  1.00  0.00    -0.345 N 
HETATM    4  C1  UNK     1      -2.609   0.318   0.323  1.00  0.00     0.143 C 
HETATM    5  C2  UNK     1      -0.398  -0.716   0.859  1.00  0.00     0.143 C 
HETATM    6  C3  UNK     1      -2.215   0.332  -1.154  1.00  0.00     0.146 C 
HETATM    7  C4  UNK     1      -0.058  -0.689  -0.630  1.00  0.00     0.146 C 
HETATM    8  C6  UNK     1      -0.195   1.450  -2.023  1.00  0.00     0.260 C 
ENDROOT
BRANCH   8   9
HETATM    9  C9  UNK     1       1.276   1.491  -2.132  1.00  0.00     0.108 A 
HETATM   10  C12 UNK     1       1.921   2.174  -1.180  1.00  0.00     0.037 A 
HETATM   11  C15 UNK     1       3.373   2.272  -1.203  1.00  0.00    -0.001 A 
HETATM   12  C16 UNK     1       4.073   1.644  -2.227  1.00  0.00     0.089 A 
HETATM   13  C18 UNK     1       4.087   2.974  -0.229  1.00  0.00     0.014 A 
HETATM   14  O3  UNK     1       3.389   0.925  -3.227  1.00  0.00    -0.274 OA
HETATM   15  C19 UNK     1       5.463   1.699  -2.307  1.00  0.00     0.038 A 
HETATM   16  C13 UNK     1       2.001   0.814  -3.232  1.00  0.00     0.304 A 
HETATM   17  O4  UNK     1       1.413   0.187  -4.106  1.00  0.00    -0.259 OA
HETATM   18  C22 UNK     1       6.168   2.402  -1.332  1.00  0.00     0.003 A 
HETATM   19  C20 UNK     1       5.482   3.038  -0.296  1.00  0.00     0.001 A 
ENDBRANCH   8   9
BRANCH   2  20
HETATM   20  C5  UNK     1      -2.394  -1.191   2.251  1.00  0.00     0.064 A 
HETATM   21  C7  UNK     1      -3.667  -1.810   2.314  1.00  0.00     0.095 A 
HETATM   22  C10 UNK     1      -4.190  -2.276   3.521  1.00  0.00     0.039 A 
HETATM   23  C14 UNK     1      -3.457  -2.136   4.699  1.00  0.00     0.003 A 
HETATM   24  C11 UNK     1      -2.201  -1.531   4.671  1.00  0.00     0.002 A 
HETATM   25  C8  UNK     1      -1.677  -1.066   3.465  1.00  0.00     0.032 A 
BRANCH  21  26
HETATM   26  O1  UNK     1      -4.398  -1.957   1.174  1.00  0.00    -0.349 OA
BRANCH  26  27
HETATM   27  C17 UNK     1      -4.740  -3.287   0.790  1.00  0.00     0.171 C 
HETATM   28  C21 UNK     1      -4.865  -3.349  -0.717  1.00  0.00     0.034 C 
ENDBRANCH  26  27
ENDBRANCH  21  26
ENDBRANCH   2  20
TORSDOF 4
