REMARK  5 active torsions:
REMARK  status: ('A' for Active; 'I' for Inactive)
REMARK    1  A    between atoms: C13_20  and  O2_2 
REMARK    2  A    between atoms: C19_26  and  O2_2 
REMARK    3  A    between atoms: C12_19  and  C6_13 
REMARK    4  A    between atoms: C10_17  and  C13_20 
REMARK    5  A    between atoms: C15_22  and  C19_26 
ROOT
HETATM    1  O1  UNK     1      -1.514  -3.484   0.349  1.00  0.00    -0.293 OA
HETATM    2  N1  UNK     1      -1.911   0.546   2.800  1.00  0.00    -0.362 N 
HETATM    3  C1  UNK     1      -4.557  -1.713   1.322  1.00  0.00    -0.036 C 
HETATM    4  C2  UNK     1      -3.925  -0.798   2.390  1.00  0.00     0.067 C 
HETATM    5  C3  UNK     1      -3.698  -2.976   1.169  1.00  0.00     0.092 C 
HETATM    6  C4  UNK     1      -2.447  -0.575   2.197  1.00  0.00     0.021 C 
HETATM    7  C5  UNK     1      -1.658  -1.409   1.489  1.00  0.00     0.024 C 
HETATM    8  C6  UNK     1      -0.177  -1.109   1.286  1.00  0.00     0.104 C 
HETATM    9  C7  UNK     1      -2.232  -2.672   0.934  1.00  0.00     0.159 C 
HETATM   10  C8  UNK     1      -5.973  -2.115   1.776  1.00  0.00     0.015 C 
HETATM   11  C9  UNK     1      -4.680  -0.977  -0.028  1.00  0.00     0.015 C 
HETATM   12  C10 UNK     1       0.309   0.079   2.123  1.00  0.00     0.052 C 
HETATM   13  C11 UNK     1      -0.558   0.854   2.815  1.00  0.00     0.018 C 
HETATM   14  C14 UNK     1      -0.208   2.050   3.659  1.00  0.00     0.069 C 
HETATM   15  H12 UNK     1      -2.535   1.141   3.333  1.00  0.00     0.165 HD
ENDROOT
BRANCH   8  16
HETATM   16  C12 UNK     1       0.109  -0.870  -0.172  1.00  0.00     0.029 A 
HETATM   17  C16 UNK     1      -0.549   0.278  -0.845  1.00  0.00     0.194 A 
HETATM   18  O6  UNK     1      -1.312   1.030  -0.252  1.00  0.00    -0.287 OA
HETATM   19  C22 UNK     1      -0.235   0.466  -2.274  1.00  0.00     0.049 A 
HETATM   20  C23 UNK     1       0.642  -0.422  -2.898  1.00  0.00     0.089 A 
HETATM   21  C24 UNK     1      -0.804   1.518  -2.996  1.00  0.00     0.025 A 
HETATM   22  O4  UNK     1       1.229  -1.471  -2.237  1.00  0.00    -0.321 OA
HETATM   23  C25 UNK     1       0.953  -0.263  -4.248  1.00  0.00     0.039 A 
HETATM   24  C18 UNK     1       0.927  -1.634  -0.907  1.00  0.00     0.154 A 
HETATM   25  C27 UNK     1       0.386   0.787  -4.972  1.00  0.00     0.009 A 
HETATM   26  C26 UNK     1      -0.490   1.675  -4.347  1.00  0.00    -0.061 A 
HETATM   27  C28 UNK     1      -1.093   2.796  -5.126  1.00  0.00     0.048 C 
ENDBRANCH   8  16
BRANCH  12  28
HETATM   28  C13 UNK     1       1.764   0.307   2.135  1.00  0.00     0.292 C 
HETATM   29  O5  UNK     1       2.514  -0.207   2.944  1.00  0.00    -0.259 OA
BRANCH  28  30
HETATM   30  O2  UNK     1       2.072   1.153   1.123  1.00  0.00    -0.315 OA
BRANCH  30  31
HETATM   31  C19 UNK     1       3.462   1.473   1.002  1.00  0.00     0.211 C 
BRANCH  31  32
HETATM   32  C15 UNK     1       3.651   2.422  -0.165  1.00  0.00     0.145 C 
HETATM   33  O3  UNK     1       5.045   2.741  -0.315  1.00  0.00    -0.384 OA
HETATM   34  C21 UNK     1       5.364   2.737  -1.714  1.00  0.00     0.168 C 
HETATM   35  C20 UNK     1       4.054   2.625  -2.466  1.00  0.00     0.029 C 
HETATM   36  C17 UNK     1       3.204   1.842  -1.496  1.00  0.00     0.036 C 
ENDBRANCH  31  32
ENDBRANCH  30  31
ENDBRANCH  28  30
ENDBRANCH  12  28
TORSDOF 5
