REMARK  6 active torsions:
REMARK  status: ('A' for Active; 'I' for Inactive)
REMARK    1  A    between atoms: C21_28  and  O4_4 
REMARK    2  A    between atoms: C5_12  and  N1_5 
REMARK    3  A    between atoms: C6_13  and  N2_6 
REMARK    4  A    between atoms: C17_24  and  N3_7 
REMARK       I    between atoms: C9_16  and  N3_7 
REMARK    5  A    between atoms: C5_12  and  C7_14 
REMARK    6  A    between atoms: C6_13  and  C9_16 
ROOT
HETATM    1  N1  UNK     1       1.264   0.278  -1.618  1.00  0.00     0.096 N 
HETATM    2  N2  UNK     1      -1.479  -0.245  -0.869  1.00  0.00     0.100 N 
HETATM    3  C1  UNK     1       0.912  -0.858  -0.758  1.00  0.00     0.303 C 
HETATM    4  C2  UNK     1       0.152   0.602  -2.520  1.00  0.00     0.303 C 
HETATM    5  C3  UNK     1      -0.367  -0.567   0.034  1.00  0.00     0.303 C 
HETATM    6  C4  UNK     1      -1.128   0.892  -1.728  1.00  0.00     0.303 C 
ENDROOT
BRANCH   1   7
HETATM    7  C5  UNK     1       2.482  -0.001  -2.375  1.00  0.00     0.312 C 
BRANCH   7   8
HETATM    8  C7  UNK     1       3.170   1.245  -2.814  1.00  0.00    -0.011 A 
HETATM    9  C10 UNK     1       2.883   1.817  -3.992  1.00  0.00     0.092 A 
HETATM   10  C13 UNK     1       3.536   3.048  -4.468  1.00  0.00     0.288 A 
HETATM   11  O1  UNK     1       4.486   3.612  -3.631  1.00  0.00    -0.275 OA
HETATM   12  O3  UNK     1       3.247   3.542  -5.552  1.00  0.00    -0.260 OA
HETATM   13  C11 UNK     1       4.808   3.035  -2.387  1.00  0.00     0.090 A 
HETATM   14  C8  UNK     1       4.181   1.867  -1.949  1.00  0.00     0.006 A 
HETATM   15  C14 UNK     1       5.780   3.689  -1.628  1.00  0.00     0.045 A 
HETATM   16  C12 UNK     1       4.559   1.356  -0.700  1.00  0.00     0.015 A 
HETATM   17  C16 UNK     1       5.532   2.000   0.072  1.00  0.00     0.007 A 
HETATM   18  C15 UNK     1       6.141   3.165  -0.391  1.00  0.00    -0.059 A 
HETATM   19  C18 UNK     1       7.176   3.847   0.438  1.00  0.00     0.048 C 
ENDBRANCH   7   8
ENDBRANCH   1   7
BRANCH   2  20
HETATM   20  C6  UNK     1      -2.698   0.033  -0.113  1.00  0.00     0.375 C 
BRANCH  20  21
HETATM   21  C9  UNK     1      -3.306  -1.275   0.364  1.00  0.00     0.250 C 
HETATM   22  O2  UNK     1      -3.178  -2.328  -0.252  1.00  0.00    -0.271 OA
HETATM   23  N3  UNK     1      -3.991  -1.079   1.562  1.00  0.00    -0.326 N 
HETATM   24  H15 UNK     1      -4.009  -0.138   1.949  1.00  0.00     0.169 HD
BRANCH  23  25
HETATM   25  C17 UNK     1      -4.690  -2.045   2.325  1.00  0.00     0.037 A 
HETATM   26  C19 UNK     1      -5.325  -1.672   3.510  1.00  0.00     0.066 A 
HETATM   27  C21 UNK     1      -6.014  -2.623   4.261  1.00  0.00     0.070 A 
HETATM   28  C23 UNK     1      -6.069  -3.948   3.828  1.00  0.00     0.037 A 
HETATM   29  C22 UNK     1      -5.435  -4.321   2.642  1.00  0.00     0.005 A 
HETATM   30  C20 UNK     1      -4.746  -3.369   1.891  1.00  0.00     0.029 A 
BRANCH  27  31
HETATM   31  O4  UNK     1      -6.633  -2.260   5.418  1.00  0.00    -0.356 OA
HETATM   32  C24 UNK     1      -7.320  -3.284   6.136  1.00  0.00     0.210 C 
ENDBRANCH  27  31
ENDBRANCH  23  25
ENDBRANCH  20  21
ENDBRANCH   2  20
TORSDOF 6
