REMARK  3 active torsions:
REMARK  status: ('A' for Active; 'I' for Inactive)
REMARK    1  A    between atoms: C5_12  and  N1_6 
REMARK       I    between atoms: C6_13  and  N2_7 
REMARK    2  A    between atoms: C5_12  and  C7_14 
REMARK    3  A    between atoms: C6_13  and  C8_15 
ROOT
HETATM    1  O1  UNK     1       1.155  -1.374  -2.743  1.00  0.00    -0.267 OA
HETATM    2  N1  UNK     1      -1.932  -0.024   0.955  1.00  0.00     0.095 N 
HETATM    3  N2  UNK     1      -0.094  -0.098  -1.252  1.00  0.00    -0.344 N 
HETATM    4  C1  UNK     1      -1.503  -1.309   0.387  1.00  0.00     0.292 C 
HETATM    5  C2  UNK     1      -0.844   0.958   0.865  1.00  0.00     0.292 C 
HETATM    6  C3  UNK     1      -1.107  -1.140  -1.078  1.00  0.00     0.156 C 
HETATM    7  C4  UNK     1      -0.407   1.173  -0.586  1.00  0.00     0.156 C 
HETATM    8  C6  UNK     1       0.981  -0.334  -2.106  1.00  0.00     0.260 C 
ENDROOT
BRANCH   8   9
HETATM    9  C8  UNK     1       1.980   0.741  -2.266  1.00  0.00     0.108 A 
HETATM   10  C11 UNK     1       3.011   0.722  -1.412  1.00  0.00     0.037 A 
HETATM   11  C13 UNK     1       4.047   1.740  -1.490  1.00  0.00    -0.001 A 
HETATM   12  C16 UNK     1       3.946   2.729  -2.464  1.00  0.00     0.089 A 
HETATM   13  C18 UNK     1       5.140   1.759  -0.620  1.00  0.00     0.014 A 
HETATM   14  O2  UNK     1       2.859   2.743  -3.360  1.00  0.00    -0.274 OA
HETATM   15  C19 UNK     1       4.904   3.733  -2.592  1.00  0.00     0.038 A 
HETATM   16  C12 UNK     1       1.853   1.783  -3.309  1.00  0.00     0.304 A 
HETATM   17  O3  UNK     1       0.910   1.804  -4.093  1.00  0.00    -0.259 OA
HETATM   18  C21 UNK     1       5.991   3.744  -1.720  1.00  0.00     0.003 A 
HETATM   19  C20 UNK     1       6.109   2.760  -0.737  1.00  0.00     0.001 A 
ENDBRANCH   8   9
BRANCH   2  20
HETATM   20  C5  UNK     1      -2.359  -0.193   2.343  1.00  0.00     0.312 C 
BRANCH  20  21
HETATM   21  C7  UNK     1      -3.512  -1.154   2.463  1.00  0.00    -0.008 A 
HETATM   22  C10 UNK     1      -4.563  -1.025   1.562  1.00  0.00     0.013 A 
HETATM   23  C15 UNK     1      -5.650  -1.897   1.642  1.00  0.00     0.043 A 
HETATM   24  C17 UNK     1      -5.677  -2.890   2.621  1.00  0.00     0.118 A 
HETATM   25  C14 UNK     1      -4.618  -3.012   3.521  1.00  0.00     0.066 A 
HETATM   26  F1  UNK     1      -6.720  -3.726   2.697  1.00  0.00    -0.206 F 
HETATM   27  C9  UNK     1      -3.531  -2.140   3.441  1.00  0.00     0.045 A 
HETATM   28 Cl1  UNK     1      -2.239  -2.321   4.571  1.00  0.00    -0.084 Cl
ENDBRANCH  20  21
ENDBRANCH   2  20
TORSDOF 3
