REMARK  4 active torsions:
REMARK  status: ('A' for Active; 'I' for Inactive)
REMARK    1  A    between atoms: C16_21  and  O2_3 
REMARK    2  A    between atoms: C9_14  and  O2_3 
REMARK    3  A    between atoms: C5_10  and  O3_4 
REMARK    4  A    between atoms: C1_6  and  C2_7 
ROOT
HETATM    1  F1  UNK     1      -0.103   2.794   3.843  1.00  0.00    -0.203 F 
HETATM    2  C2  UNK     1       0.224  -0.920   2.066  1.00  0.00     0.004 A 
HETATM    3  C7  UNK     1       0.592   0.225   1.358  1.00  0.00     0.054 A 
HETATM    4  C8  UNK     1      -0.253  -0.809   3.372  1.00  0.00     0.017 A 
HETATM    5  C9  UNK     1       0.482   1.481   1.957  1.00  0.00     0.115 A 
HETATM    6  C12 UNK     1      -0.363   0.446   3.970  1.00  0.00     0.046 A 
HETATM    7  C13 UNK     1       0.005   1.591   3.263  1.00  0.00     0.150 A 
ENDROOT
BRANCH   2   8
HETATM    8  C1  UNK     1       0.340  -2.246   1.434  1.00  0.00     0.123 A 
HETATM    9  O1  UNK     1       1.581  -2.831   1.628  1.00  0.00    -0.306 OA
HETATM   10  C4  UNK     1       1.812  -4.070   1.087  1.00  0.00     0.090 A 
HETATM   11  C11 UNK     1       3.067  -4.637   1.310  1.00  0.00     0.038 A 
HETATM   12  C3  UNK     1       0.857  -4.759   0.343  1.00  0.00     0.051 A 
HETATM   13  C15 UNK     1       3.361  -5.896   0.786  1.00  0.00     0.003 A 
HETATM   14  C14 UNK     1       2.404  -6.586   0.041  1.00  0.00     0.001 A 
HETATM   15  C10 UNK     1       1.149  -6.019  -0.184  1.00  0.00     0.018 A 
HETATM   16  C6  UNK     1      -0.457  -4.136   0.121  1.00  0.00     0.220 A 
HETATM   17  C5  UNK     1      -0.663  -2.799   0.728  1.00  0.00     0.152 A 
HETATM   18  O4  UNK     1      -1.332  -4.690  -0.531  1.00  0.00    -0.284 OA
BRANCH  17  19
HETATM   19  O3  UNK     1      -1.875  -2.175   0.527  1.00  0.00    -0.355 OA
HETATM   20  H8  UNK     1      -1.878  -1.311   0.968  1.00  0.00     0.218 HD
ENDBRANCH  17  19
ENDBRANCH   2   8
BRANCH   5  21
HETATM   21  O2  UNK     1       0.842   2.597   1.265  1.00  0.00    -0.308 OA
BRANCH  21  22
HETATM   22  C16 UNK     1       0.169   2.867   0.085  1.00  0.00     0.076 A 
HETATM   23  C17 UNK     1      -1.209   2.750   0.053  1.00  0.00     0.037 A 
HETATM   24  C19 UNK     1      -1.886   3.021  -1.136  1.00  0.00     0.003 A 
HETATM   25  C21 UNK     1      -1.174   3.406  -2.272  1.00  0.00     0.000 A 
HETATM   26  C20 UNK     1       0.215   3.518  -2.219  1.00  0.00     0.003 A 
HETATM   27  C18 UNK     1       0.893   3.247  -1.030  1.00  0.00     0.037 A 
ENDBRANCH  21  22
ENDBRANCH   5  21
TORSDOF 4
