REMARK  6 active torsions:
REMARK  status: ('A' for Active; 'I' for Inactive)
REMARK    1  A    between atoms: C12_19  and  O2_3 
REMARK    2  A    between atoms: C21_28  and  O2_3 
REMARK    3  A    between atoms: C1_8  and  C11_18 
REMARK    4  A    between atoms: C10_17  and  C4_11 
REMARK    5  A    between atoms: C12_19  and  C8_15 
REMARK    6  A    between atoms: C21_28  and  C23_30 
ROOT
HETATM    1  O1  UNK     1       2.569  -1.671  -1.085  1.00  0.00    -0.293 OA
HETATM    2  N1  UNK     1      -0.531   1.568  -2.616  1.00  0.00    -0.362 N 
HETATM    3  C1  UNK     1       3.129   1.829  -1.800  1.00  0.00     0.038 C 
HETATM    4  C2  UNK     1       0.959  -0.062  -1.760  1.00  0.00     0.024 C 
HETATM    5  C3  UNK     1       1.860   2.128  -2.611  1.00  0.00     0.068 C 
HETATM    6  C4  UNK     1      -0.208  -0.986  -1.423  1.00  0.00     0.104 C 
HETATM    7  C5  UNK     1       0.750   1.155  -2.305  1.00  0.00     0.021 C 
HETATM    8  C6  UNK     1       3.508   0.354  -1.932  1.00  0.00     0.094 C 
HETATM    9  C7  UNK     1       2.357  -0.543  -1.531  1.00  0.00     0.159 C 
HETATM   10  C8  UNK     1      -1.549  -0.460  -1.940  1.00  0.00     0.052 C 
HETATM   11  C9  UNK     1      -1.659   0.772  -2.490  1.00  0.00     0.018 C 
HETATM   12  C13 UNK     1      -2.923   1.381  -3.035  1.00  0.00     0.069 C 
HETATM   13  H7  UNK     1      -0.644   2.483  -3.037  1.00  0.00     0.165 HD
ENDROOT
BRANCH   6  14
HETATM   14  C10 UNK     1      -0.278  -1.217   0.063  1.00  0.00     0.029 A 
HETATM   15  C14 UNK     1      -0.521  -0.052   0.951  1.00  0.00     0.194 A 
HETATM   16  O5  UNK     1      -0.665   1.082   0.513  1.00  0.00    -0.287 OA
HETATM   17  C17 UNK     1      -0.580  -0.334   2.397  1.00  0.00     0.049 A 
HETATM   18  C19 UNK     1      -0.408  -1.646   2.840  1.00  0.00     0.089 A 
HETATM   19  C22 UNK     1      -0.804   0.695   3.316  1.00  0.00     0.025 A 
HETATM   20  O3  UNK     1      -0.185  -2.694   1.983  1.00  0.00    -0.321 OA
HETATM   21  C24 UNK     1      -0.460  -1.936   4.204  1.00  0.00     0.039 A 
HETATM   22  C16 UNK     1      -0.133  -2.416   0.640  1.00  0.00     0.154 A 
HETATM   23  C26 UNK     1      -0.684  -0.910   5.123  1.00  0.00     0.009 A 
HETATM   24  C25 UNK     1      -0.855   0.402   4.679  1.00  0.00    -0.061 A 
HETATM   25  C29 UNK     1      -1.096   1.494   5.667  1.00  0.00     0.048 C 
ENDBRANCH   6  14
BRANCH  10  26
HETATM   26  C12 UNK     1      -2.702  -1.366  -1.811  1.00  0.00     0.292 C 
HETATM   27  O4  UNK     1      -3.021  -2.168  -2.668  1.00  0.00    -0.259 OA
BRANCH  26  28
HETATM   28  O2  UNK     1      -3.295  -1.135  -0.615  1.00  0.00    -0.317 OA
BRANCH  28  29
HETATM   29  C21 UNK     1      -4.442  -1.946  -0.340  1.00  0.00     0.183 C 
BRANCH  29  30
HETATM   30  C23 UNK     1      -5.015  -1.589   1.034  1.00  0.00     0.002 C 
HETATM   31  C27 UNK     1      -6.182  -2.512   1.380  1.00  0.00     0.011 C 
HETATM   32  C28 UNK     1      -5.460  -0.126   1.090  1.00  0.00     0.011 C 
ENDBRANCH  29  30
ENDBRANCH  28  29
ENDBRANCH  26  28
ENDBRANCH  10  26
BRANCH   3  33
HETATM   33  C11 UNK     1       4.277   2.753  -2.177  1.00  0.00    -0.013 A 
HETATM   34  S1  UNK     1       4.924   3.809  -0.998  1.00  0.00    -0.106 SA
HETATM   35  C20 UNK     1       6.061   4.438  -2.113  1.00  0.00     0.050 A 
HETATM   36  C18 UNK     1       5.945   3.853  -3.355  1.00  0.00     0.008 A 
HETATM   37  C15 UNK     1       4.910   2.875  -3.391  1.00  0.00     0.015 A 
ENDBRANCH   3  33
TORSDOF 6
