REMARK  3 active torsions:
REMARK  status: ('A' for Active; 'I' for Inactive)
REMARK    1  A    between atoms: C5_11  and  N1_6 
REMARK       I    between atoms: C6_12  and  N1_6 
REMARK    2  A    between atoms: C2_8  and  C6_12 
REMARK    3  A    between atoms: C5_11  and  C7_13 
ROOT
HETATM    1 Cl1  UNK     1       5.526   3.447  -1.649  1.00  0.00    -0.084 Cl
HETATM    2  O1  UNK     1       0.472   0.526  -2.489  1.00  0.00    -0.274 OA
HETATM    3  O3  UNK     1      -1.284  -0.680  -1.661  1.00  0.00    -0.259 OA
HETATM    4  C1  UNK     1       2.204   1.316  -0.976  1.00  0.00     0.001 A 
HETATM    5  C2  UNK     1       0.344   0.037  -0.096  1.00  0.00     0.108 A 
HETATM    6  C3  UNK     1       1.677   1.218  -2.260  1.00  0.00     0.089 A 
HETATM    7  C4  UNK     1       1.489   0.693   0.127  1.00  0.00     0.037 A 
HETATM    8  C8  UNK     1       3.401   2.011  -0.790  1.00  0.00     0.038 A 
HETATM    9  C9  UNK     1      -0.235  -0.080  -1.453  1.00  0.00     0.304 A 
HETATM   10  C10 UNK     1       2.312   1.793  -3.359  1.00  0.00     0.040 A 
HETATM   11  C11 UNK     1       4.050   2.593  -1.883  1.00  0.00     0.035 A 
HETATM   12  C12 UNK     1       3.506   2.484  -3.165  1.00  0.00     0.026 A 
ENDROOT
BRANCH   5  13
HETATM   13  C6  UNK     1      -0.303  -0.558   1.080  1.00  0.00     0.258 C 
HETATM   14  O2  UNK     1      -0.177  -0.052   2.193  1.00  0.00    -0.267 OA
HETATM   15  N1  UNK     1      -1.026  -1.697   0.777  1.00  0.00    -0.352 N 
HETATM   16  H4  UNK     1      -1.055  -2.046  -0.175  1.00  0.00     0.163 HD
BRANCH  15  17
HETATM   17  C5  UNK     1      -1.748  -2.459   1.771  1.00  0.00     0.169 C 
BRANCH  17  18
HETATM   18  C7  UNK     1      -3.167  -1.973   1.880  1.00  0.00     0.000 A 
HETATM   19  C13 UNK     1      -4.108  -1.924   0.896  1.00  0.00     0.017 A 
HETATM   20  C14 UNK     1      -5.340  -1.401   1.385  1.00  0.00     0.008 A 
HETATM   21  C15 UNK     1      -5.270  -1.078   2.722  1.00  0.00     0.050 A 
HETATM   22  S1  UNK     1      -3.725  -1.405   3.382  1.00  0.00    -0.105 SA
ENDBRANCH  17  18
ENDBRANCH  15  17
ENDBRANCH   5  13
TORSDOF 3
