REMARK  2 active torsions:
REMARK  status: ('A' for Active; 'I' for Inactive)
REMARK       I    between atoms: C5_11  and  N1_6 
REMARK    1  A    between atoms: C7_13  and  N1_6 
REMARK    2  A    between atoms: C2_8  and  C5_11 
ROOT
HETATM    1  O2  UNK     1      -1.061  -0.694  -1.700  1.00  0.00    -0.267 OA
HETATM    2  N1  UNK     1      -0.891  -0.314   0.618  1.00  0.00    -0.323 N 
HETATM    3  C5  UNK     1      -0.477  -0.266  -0.706  1.00  0.00     0.262 C 
HETATM    4  H3  UNK     1      -0.296   0.109   1.326  1.00  0.00     0.169 HD
ENDROOT
BRANCH   3   5
HETATM    5  C2  UNK     1       0.826   0.394  -0.855  1.00  0.00     0.108 A 
HETATM    6  C4  UNK     1       1.034   1.037  -2.010  1.00  0.00     0.037 A 
HETATM    7  C1  UNK     1       2.296   1.721  -2.251  1.00  0.00    -0.001 A 
HETATM    8  C3  UNK     1       3.276   1.693  -1.265  1.00  0.00     0.089 A 
HETATM    9  C6  UNK     1       2.556   2.405  -3.441  1.00  0.00     0.014 A 
HETATM   10  O1  UNK     1       3.051   1.014  -0.051  1.00  0.00    -0.274 OA
HETATM   11  C9  UNK     1       4.505   2.327  -1.433  1.00  0.00     0.038 A 
HETATM   12  C8  UNK     1       1.854   0.351   0.209  1.00  0.00     0.304 A 
HETATM   13  O3  UNK     1       1.667  -0.238   1.268  1.00  0.00    -0.259 OA
HETATM   14  C11 UNK     1       4.757   3.007  -2.623  1.00  0.00     0.003 A 
HETATM   15  C10 UNK     1       3.785   3.046  -3.625  1.00  0.00     0.001 A 
ENDBRANCH   3   5
BRANCH   2  16
HETATM   16  C7  UNK     1      -2.088  -0.871   1.129  1.00  0.00     0.038 A 
HETATM   17  C12 UNK     1      -2.992  -1.450   0.254  1.00  0.00     0.053 A 
HETATM   18  C15 UNK     1      -4.171  -2.000   0.758  1.00  0.00     0.037 A 
HETATM   19 Cl2  UNK     1      -5.308  -2.725  -0.312  1.00  0.00    -0.084 Cl
HETATM   20  C16 UNK     1      -4.429  -1.962   2.128  1.00  0.00     0.048 A 
HETATM   21  C14 UNK     1      -3.507  -1.375   2.995  1.00  0.00     0.037 A 
HETATM   22  C13 UNK     1      -2.328  -0.825   2.492  1.00  0.00     0.053 A 
HETATM   23 Cl1  UNK     1      -3.825  -1.328   4.686  1.00  0.00    -0.084 Cl
ENDBRANCH   2  16
TORSDOF 2
