REMARK  4 active torsions:
REMARK  status: ('A' for Active; 'I' for Inactive)
REMARK    1  A    between atoms: C12_16  and  O3_3 
REMARK    2  A    between atoms: C3_7  and  C8_12 
REMARK    3  A    between atoms: C10_14  and  C8_12 
REMARK    4  A    between atoms: C11_15  and  C9_13 
ROOT
HETATM    1  O4  UNK     1       0.102  -1.559  -1.837  1.00  0.00    -0.288 OA
HETATM    2  C8  UNK     1       0.247  -0.501  -1.207  1.00  0.00     0.182 C 
ENDROOT
BRANCH   2   3
HETATM    3  C10 UNK     1      -0.544  -0.243   0.045  1.00  0.00     0.056 C 
HETATM    4  C11 UNK     1      -1.419  -1.152   0.499  1.00  0.00     0.018 C 
BRANCH   4   5
HETATM    5  C9  UNK     1      -2.249  -0.983   1.705  1.00  0.00    -0.003 A 
HETATM    6  C12 UNK     1      -3.502  -1.570   1.784  1.00  0.00     0.078 A 
HETATM    7  C14 UNK     1      -4.268  -1.396   2.936  1.00  0.00     0.037 A 
HETATM    8  C16 UNK     1      -3.772  -0.636   3.996  1.00  0.00     0.003 A 
HETATM    9  C15 UNK     1      -2.509  -0.051   3.903  1.00  0.00     0.001 A 
HETATM   10  C13 UNK     1      -1.743  -0.225   2.751  1.00  0.00     0.014 A 
BRANCH   6  11
HETATM   11  O3  UNK     1      -4.011  -2.317   0.763  1.00  0.00    -0.355 OA
HETATM   12  C17 UNK     1      -4.773  -1.627  -0.225  1.00  0.00     0.210 C 
ENDBRANCH   6  11
ENDBRANCH   4   5
ENDBRANCH   2   3
BRANCH   2  13
HETATM   13  C3  UNK     1       1.162   0.527  -1.677  1.00  0.00     0.017 A 
HETATM   14  C4  UNK     1       1.773   1.384  -0.758  1.00  0.00     0.055 A 
HETATM   15  C1  UNK     1       2.633   2.344  -1.251  1.00  0.00     0.105 A 
HETATM   16  O1  UNK     1       3.313   3.262  -0.512  1.00  0.00    -0.323 OA
HETATM   17  C2  UNK     1       2.888   2.464  -2.598  1.00  0.00     0.105 A 
HETATM   18  C7  UNK     1       4.026   3.973  -1.545  1.00  0.00     0.352 A 
HETATM   19  O2  UNK     1       3.761   3.472  -2.871  1.00  0.00    -0.323 OA
HETATM   20  C5  UNK     1       2.298   1.631  -3.526  1.00  0.00     0.040 A 
HETATM   21  C6  UNK     1       1.423   0.650  -3.053  1.00  0.00     0.018 A 
ENDBRANCH   2  13
TORSDOF 4
