REMARK  4 active torsions:
REMARK  status: ('A' for Active; 'I' for Inactive)
REMARK    1  A    between atoms: C9_14  and  O2_2 
REMARK    2  A    between atoms: C10_15  and  O4_4 
REMARK    3  A    between atoms: C15_20  and  O5_5 
REMARK    4  A    between atoms: C2_7  and  C5_10 
ROOT
HETATM    1  O1  UNK     1       1.601   1.060   1.325  1.00  0.00    -0.321 OA
HETATM    2  O3  UNK     1      -0.726  -0.371  -1.706  1.00  0.00    -0.286 OA
HETATM    3  C1  UNK     1       1.253   0.725  -1.054  1.00  0.00     0.052 A 
HETATM    4  C2  UNK     1      -0.411  -0.115   0.640  1.00  0.00     0.048 A 
HETATM    5  C3  UNK     1       2.001   1.204   0.021  1.00  0.00     0.092 A 
HETATM    6  C4  UNK     1      -0.024   0.037  -0.789  1.00  0.00     0.198 A 
HETATM    7  C6  UNK     1       1.710   0.901  -2.362  1.00  0.00     0.058 A 
HETATM    8  C7  UNK     1       0.420   0.399   1.560  1.00  0.00     0.159 A 
HETATM    9  C8  UNK     1       3.211   1.861  -0.206  1.00  0.00     0.077 A 
HETATM   10  C9  UNK     1       2.920   1.559  -2.587  1.00  0.00     0.102 A 
HETATM   11  C10 UNK     1       3.669   2.038  -1.512  1.00  0.00     0.101 A 
ENDROOT
BRANCH   4  12
HETATM   12  C5  UNK     1      -1.641  -0.815   1.044  1.00  0.00    -0.020 A 
HETATM   13  C11 UNK     1      -2.833  -0.104   1.201  1.00  0.00     0.015 A 
HETATM   14  C13 UNK     1      -3.999  -0.768   1.583  1.00  0.00     0.037 A 
HETATM   15  C15 UNK     1      -3.976  -2.144   1.809  1.00  0.00     0.068 A 
HETATM   16  C14 UNK     1      -2.787  -2.856   1.653  1.00  0.00     0.037 A 
HETATM   17  C12 UNK     1      -1.621  -2.193   1.271  1.00  0.00     0.015 A 
BRANCH  15  18
HETATM   18  O5  UNK     1      -5.113  -2.792   2.181  1.00  0.00    -0.356 OA
HETATM   19  C17 UNK     1      -6.294  -2.003   2.321  1.00  0.00     0.210 C 
ENDBRANCH  15  18
ENDBRANCH   4  12
BRANCH  10  20
HETATM   20  O2  UNK     1       3.362   1.726  -3.865  1.00  0.00    -0.353 OA
HETATM   21  C16 UNK     1       2.958   2.916  -4.540  1.00  0.00     0.210 C 
ENDBRANCH  10  20
BRANCH  11  22
HETATM   22  O4  UNK     1       4.852   2.679  -1.725  1.00  0.00    -0.358 OA
HETATM   23  H8  UNK     1       5.037   2.677  -2.679  1.00  0.00     0.217 HD
ENDBRANCH  11  22
TORSDOF 4
