REMARK  3 active torsions:
REMARK  status: ('A' for Active; 'I' for Inactive)
REMARK    1  A    between atoms: C15_19  and  O2_2 
REMARK    2  A    between atoms: C11_15  and  O4_4 
REMARK    3  A    between atoms: C2_6  and  C4_8 
ROOT
HETATM    1  O1  UNK     1       0.559  -1.556   1.526  1.00  0.00    -0.309 OA
HETATM    2  O3  UNK     1       0.486  -3.195  -2.203  1.00  0.00    -0.287 OA
HETATM    3  C1  UNK     1       0.793  -3.521   0.117  1.00  0.00     0.048 A 
HETATM    4  C2  UNK     1       0.303  -0.790   0.400  1.00  0.00     0.090 A 
HETATM    5  C3  UNK     1       0.801  -2.897   1.364  1.00  0.00     0.093 A 
HETATM    6  C5  UNK     1       0.512  -2.713  -1.079  1.00  0.00     0.187 A 
HETATM    7  C6  UNK     1       0.261  -1.275  -0.851  1.00  0.00     0.093 A 
HETATM    8  C7  UNK     1       1.046  -4.890   0.012  1.00  0.00     0.021 A 
HETATM    9  C8  UNK     1       1.063  -3.641   2.514  1.00  0.00     0.074 A 
HETATM   10  C11 UNK     1       1.317  -5.009   2.413  1.00  0.00     0.068 A 
HETATM   11  C12 UNK     1       1.308  -5.632   1.164  1.00  0.00     0.037 A 
ENDROOT
BRANCH   4  12
HETATM   12  C4  UNK     1       0.050   0.636   0.689  1.00  0.00    -0.002 A 
HETATM   13  C10 UNK     1       0.668   1.251   1.781  1.00  0.00     0.017 A 
HETATM   14  C14 UNK     1       0.428   2.597   2.055  1.00  0.00     0.037 A 
HETATM   15  C15 UNK     1      -0.428   3.334   1.236  1.00  0.00     0.068 A 
HETATM   16  C13 UNK     1      -1.046   2.724   0.145  1.00  0.00     0.037 A 
HETATM   17  C9  UNK     1      -0.807   1.377  -0.128  1.00  0.00     0.017 A 
BRANCH  15  18
HETATM   18  O2  UNK     1      -0.662   4.648   1.504  1.00  0.00    -0.356 OA
HETATM   19  C16 UNK     1      -1.549   5.341   0.627  1.00  0.00     0.210 C 
ENDBRANCH  15  18
ENDBRANCH   4  12
BRANCH  10  20
HETATM   20  O4  UNK     1       1.573  -5.738   3.534  1.00  0.00    -0.361 OA
HETATM   21  H9  UNK     1       1.726  -6.664   3.279  1.00  0.00     0.217 HD
ENDBRANCH  10  20
TORSDOF 3
