REMARK  3 active torsions:
REMARK  status: ('A' for Active; 'I' for Inactive)
REMARK    1  A    between atoms: C1_8  and  N1_5 
REMARK       I    between atoms: C3_10  and  N1_5 
REMARK    2  A    between atoms: C1_8  and  C2_9 
REMARK    3  A    between atoms: C3_10  and  C4_11 
ROOT
HETATM    1 Br1  UNK     1       5.443   2.733   1.072  1.00  0.00    -0.051 Br
HETATM    2  O1  UNK     1       1.369   1.133  -3.129  1.00  0.00    -0.274 OA
HETATM    3  O3  UNK     1      -0.555   0.049  -3.716  1.00  0.00    -0.259 OA
HETATM    4  C4  UNK     1       0.085  -0.080  -1.438  1.00  0.00     0.108 A 
HETATM    5  C5  UNK     1       2.125   1.070  -0.819  1.00  0.00     0.000 A 
HETATM    6  C7  UNK     1       0.966   0.256  -0.489  1.00  0.00     0.037 A 
HETATM    7  C9  UNK     1       2.300   1.490  -2.134  1.00  0.00     0.089 A 
HETATM    8  C11 UNK     1       0.250   0.356  -2.843  1.00  0.00     0.304 A 
HETATM    9  C12 UNK     1       3.070   1.446   0.140  1.00  0.00     0.033 A 
HETATM   10  C13 UNK     1       3.388   2.272  -2.516  1.00  0.00     0.039 A 
HETATM   11  C15 UNK     1       4.167   2.229  -0.229  1.00  0.00     0.011 A 
HETATM   12  C16 UNK     1       4.325   2.642  -1.554  1.00  0.00     0.022 A 
ENDROOT
BRANCH   4  13
HETATM   13  C3  UNK     1      -1.052  -0.903  -1.007  1.00  0.00     0.259 C 
HETATM   14  O2  UNK     1      -0.928  -2.133  -1.036  1.00  0.00    -0.267 OA
HETATM   15  N1  UNK     1      -2.205  -0.241  -0.575  1.00  0.00    -0.348 N 
HETATM   16  C8  UNK     1      -2.305   1.217  -0.559  1.00  0.00     0.153 C 
BRANCH  15  17
HETATM   17  C1  UNK     1      -3.385  -0.959  -0.112  1.00  0.00     0.167 C 
BRANCH  17  18
HETATM   18  C2  UNK     1      -3.288  -1.186   1.358  1.00  0.00    -0.004 A 
HETATM   19  C10 UNK     1      -3.749  -0.347   2.375  1.00  0.00     0.149 A 
HETATM   20  N3  UNK     1      -3.502  -0.847   3.589  1.00  0.00    -0.185 NA
HETATM   21  N2  UNK     1      -2.881  -2.008   3.320  1.00  0.00    -0.285 N 
HETATM   22  C14 UNK     1      -2.447  -2.856   4.405  1.00  0.00     0.179 C 
HETATM   23  C6  UNK     1      -2.728  -2.256   1.988  1.00  0.00     0.122 A 
ENDBRANCH  17  18
ENDBRANCH  15  17
ENDBRANCH   4  13
TORSDOF 3
