REMARK  3 active torsions:
REMARK  status: ('A' for Active; 'I' for Inactive)
REMARK    1  A    between atoms: C9_13  and  O3_3 
REMARK    2  A    between atoms: C13_17  and  O4_4 
REMARK    3  A    between atoms: C5_9  and  C6_10 
ROOT
HETATM    1  O1  UNK     1       0.437   0.826  -0.229  1.00  0.00    -0.306 OA
HETATM    2  O2  UNK     1       0.460  -0.268  -3.597  1.00  0.00    -0.284 OA
HETATM    3  C1  UNK     1       1.647   1.236  -2.153  1.00  0.00     0.051 A 
HETATM    4  C2  UNK     1       1.470   1.530  -0.803  1.00  0.00     0.093 A 
HETATM    5  C3  UNK     1      -0.089   0.034  -1.244  1.00  0.00     0.127 A 
HETATM    6  C4  UNK     1       0.642   0.245  -2.517  1.00  0.00     0.218 A 
HETATM    7  C5  UNK     1      -1.115  -0.805  -1.095  1.00  0.00     0.053 C 
HETATM    8  C7  UNK     1       2.628   1.831  -2.919  1.00  0.00     0.021 A 
HETATM    9  C8  UNK     1       2.278   2.442  -0.159  1.00  0.00     0.074 A 
HETATM   10  C9  UNK     1       3.281   3.060  -0.913  1.00  0.00     0.068 A 
HETATM   11  C10 UNK     1       3.454   2.757  -2.279  1.00  0.00     0.037 A 
ENDROOT
BRANCH   7  12
HETATM   12  C6  UNK     1      -1.827  -1.015   0.133  1.00  0.00    -0.033 A 
HETATM   13  C11 UNK     1      -1.395  -1.981   1.056  1.00  0.00     0.014 A 
HETATM   14  C14 UNK     1      -2.088  -2.185   2.250  1.00  0.00     0.037 A 
HETATM   15  C13 UNK     1      -3.222  -1.426   2.536  1.00  0.00     0.068 A 
HETATM   16  C15 UNK     1      -3.664  -0.462   1.630  1.00  0.00     0.037 A 
HETATM   17  C12 UNK     1      -2.971  -0.258   0.436  1.00  0.00     0.014 A 
BRANCH  15  18
HETATM   18  O4  UNK     1      -3.897  -1.624   3.702  1.00  0.00    -0.356 OA
HETATM   19  C16 UNK     1      -5.049  -0.813   3.931  1.00  0.00     0.210 C 
ENDBRANCH  15  18
ENDBRANCH   7  12
BRANCH  10  20
HETATM   20  O3  UNK     1       4.105   3.970  -0.319  1.00  0.00    -0.361 OA
HETATM   21  H9  UNK     1       4.739   4.299  -0.979  1.00  0.00     0.217 HD
ENDBRANCH  10  20
TORSDOF 3
