REMARK  7 active torsions:
REMARK  status: ('A' for Active; 'I' for Inactive)
REMARK    1  A    between atoms: C14_17  and  O2_2 
REMARK    2  A    between atoms: C16_19  and  O2_2 
REMARK    3  A    between atoms: C1_4  and  C2_5 
REMARK    4  A    between atoms: C2_5  and  C3_6 
REMARK    5  A    between atoms: C10_13  and  C11_14 
REMARK    6  A    between atoms: C10_13  and  C14_17 
REMARK    7  A    between atoms: C11_14  and  C17_20 
ROOT
HETATM    1  O1  UNK     1      -0.220  -0.172   1.562  1.00  0.00    -0.274 OA
HETATM    2  O3  UNK     1      -1.283  -0.503   3.540  1.00  0.00    -0.259 OA
HETATM    3  C3  UNK     1      -2.648  -0.555   1.588  1.00  0.00     0.025 A 
HETATM    4  C4  UNK     1      -2.715  -0.418   0.246  1.00  0.00    -0.037 A 
HETATM    5  C5  UNK     1      -1.476  -0.180  -0.522  1.00  0.00     0.005 A 
HETATM    6  C8  UNK     1      -0.271  -0.063   0.164  1.00  0.00     0.092 A 
HETATM    7  C9  UNK     1      -1.355  -0.416   2.318  1.00  0.00     0.295 A 
HETATM    8  C12 UNK     1      -4.003  -0.479  -0.538  1.00  0.00     0.050 C 
HETATM    9  C13 UNK     1      -1.429  -0.071  -1.921  1.00  0.00     0.017 A 
HETATM   10  C15 UNK     1       0.946   0.162  -0.486  1.00  0.00     0.075 A 
HETATM   11  C16 UNK     1       0.968   0.273  -1.871  1.00  0.00     0.071 A 
HETATM   12  C18 UNK     1      -0.219   0.155  -2.589  1.00  0.00     0.038 A 
ENDROOT
BRANCH  11  13
HETATM   13  O2  UNK     1       2.142   0.492  -2.522  1.00  0.00    -0.351 OA
BRANCH  13  14
HETATM   14  C14 UNK     1       3.145   1.229  -1.824  1.00  0.00     0.175 C 
BRANCH  14  15
HETATM   15  C10 UNK     1       4.001   1.976  -2.836  1.00  0.00     0.027 C 
BRANCH  15  16
HETATM   16  C11 UNK     1       5.090   2.802  -2.155  1.00  0.00     0.002 C 
BRANCH  16  17
HETATM   17  C17 UNK     1       5.918   3.582  -3.176  1.00  0.00    -0.004 C 
HETATM   18  C19 UNK     1       6.981   4.431  -2.498  1.00  0.00     0.005 C 
ENDBRANCH  16  17
ENDBRANCH  15  16
ENDBRANCH  14  15
ENDBRANCH  13  14
ENDBRANCH  11  13
BRANCH   3  19
HETATM   19  C2  UNK     1      -3.821  -0.863   2.483  1.00  0.00     0.049 C 
BRANCH  19  20
HETATM   20  C1  UNK     1      -4.035  -2.367   2.680  1.00  0.00    -0.018 C 
HETATM   21  C6  UNK     1      -2.807  -3.055   3.284  1.00  0.00     0.010 C 
HETATM   22  C7  UNK     1      -4.379  -3.013   1.335  1.00  0.00     0.010 C 
ENDBRANCH  19  20
ENDBRANCH   3  19
TORSDOF 7
