REMARK  2 active torsions:
REMARK  status: ('A' for Active; 'I' for Inactive)
REMARK       I    between atoms: C5_11  and  N1_5 
REMARK    1  A    between atoms: C8_14  and  N1_5 
REMARK    2  A    between atoms: C2_8  and  C5_11 
ROOT
HETATM    1  O2  UNK     1      -1.333  -0.967  -1.595  1.00  0.00    -0.267 OA
HETATM    2  N1  UNK     1      -1.269  -0.476   0.688  1.00  0.00    -0.318 N 
HETATM    3  C5  UNK     1      -0.787  -0.472  -0.610  1.00  0.00     0.262 C 
HETATM    4  H4  UNK     1      -0.743  -0.021   1.429  1.00  0.00     0.169 HD
ENDROOT
BRANCH   3   5
HETATM    5  C2  UNK     1       0.507   0.210  -0.733  1.00  0.00     0.108 A 
HETATM    6  C4  UNK     1       0.753   0.804  -1.907  1.00  0.00     0.037 A 
HETATM    7  C1  UNK     1       2.009   1.505  -2.125  1.00  0.00    -0.001 A 
HETATM    8  C3  UNK     1       2.945   1.545  -1.096  1.00  0.00     0.089 A 
HETATM    9  C6  UNK     1       2.308   2.140  -3.333  1.00  0.00     0.014 A 
HETATM   10  O1  UNK     1       2.680   0.917   0.137  1.00  0.00    -0.274 OA
HETATM   11  C9  UNK     1       4.167   2.199  -1.241  1.00  0.00     0.038 A 
HETATM   12  C7  UNK     1       1.488   0.240   0.375  1.00  0.00     0.304 A 
HETATM   13  O3  UNK     1       1.266  -0.305   1.451  1.00  0.00    -0.259 OA
HETATM   14  C11 UNK     1       4.457   2.829  -2.449  1.00  0.00     0.003 A 
HETATM   15  C10 UNK     1       3.530   2.800  -3.493  1.00  0.00     0.001 A 
ENDBRANCH   3   5
BRANCH   2  16
HETATM   16  C8  UNK     1      -2.452  -1.049   1.056  1.00  0.00     0.103 A 
HETATM   17  C12 UNK     1      -2.850  -0.978   2.500  1.00  0.00     0.272 A 
HETATM   18  O4  UNK     1      -2.138  -0.421   3.332  1.00  0.00    -0.266 OA
HETATM   19  N2  UNK     1      -4.062  -1.579   2.811  1.00  0.00    -0.332 N 
HETATM   20  C15 UNK     1      -4.862  -2.201   1.885  1.00  0.00     0.091 A 
HETATM   21  H8  UNK     1      -4.384  -1.562   3.774  1.00  0.00     0.168 HD
HETATM   22  C14 UNK     1      -4.503  -2.262   0.598  1.00  0.00     0.020 A 
HETATM   23  C13 UNK     1      -3.258  -1.666   0.178  1.00  0.00     0.037 A 
ENDBRANCH   2  16
TORSDOF 2
