REMARK  7 active torsions:
REMARK  status: ('A' for Active; 'I' for Inactive)
REMARK    1  A    between atoms: C17_20  and  O2_2 
REMARK    2  A    between atoms: C1_4  and  C2_5 
REMARK    3  A    between atoms: C1_4  and  C3_6 
REMARK    4  A    between atoms: C1_4  and  C12_15 
REMARK    5  A    between atoms: C2_5  and  C6_9 
REMARK    6  A    between atoms: C3_6  and  C4_7 
REMARK    7  A    between atoms: C4_7  and  C8_11 
ROOT
HETATM    1  O1  UNK     1      -0.959  -0.792  -0.610  1.00  0.00    -0.274 OA
HETATM    2  O3  UNK     1      -2.689  -1.222  -2.025  1.00  0.00    -0.259 OA
HETATM    3  C5  UNK     1      -2.736  -1.119   1.562  1.00  0.00    -0.033 A 
HETATM    4  C7  UNK     1      -3.643  -1.329   2.755  1.00  0.00     0.040 C 
HETATM    5  C8  UNK     1       0.870  -0.291   0.832  1.00  0.00     0.010 A 
HETATM    6  C9  UNK     1      -4.991  -1.967   2.414  1.00  0.00     0.005 C 
HETATM    7  C10 UNK     1      -3.188  -1.246   0.299  1.00  0.00     0.025 A 
HETATM    8  C11 UNK     1      -5.579  -1.354   1.154  1.00  0.00     0.005 C 
HETATM    9  C13 UNK     1      -4.631  -1.548  -0.027  1.00  0.00     0.045 C 
HETATM   10  C14 UNK     1      -1.326  -0.768   1.798  1.00  0.00     0.006 A 
HETATM   11  C15 UNK     1      -0.481  -0.620   0.700  1.00  0.00     0.099 A 
HETATM   12  C17 UNK     1       1.400  -0.095   2.102  1.00  0.00     0.074 A 
HETATM   13  C18 UNK     1      -2.288  -1.089  -0.873  1.00  0.00     0.295 A 
HETATM   14  C19 UNK     1      -0.772  -0.559   3.069  1.00  0.00     0.017 A 
HETATM   15  C22 UNK     1       0.580  -0.227   3.220  1.00  0.00     0.038 A 
ENDROOT
BRANCH   5  16
HETATM   16  C4  UNK     1       1.742  -0.145  -0.378  1.00  0.00     0.045 C 
BRANCH  16  17
HETATM   17  C3  UNK     1       1.738   1.299  -0.905  1.00  0.00     0.014 C 
BRANCH  17  18
HETATM   18  C1  UNK     1       2.608   1.510  -2.173  1.00  0.00     0.017 C 
BRANCH  18  19
HETATM   19  C2  UNK     1       2.724   3.023  -2.580  1.00  0.00    -0.011 C 
HETATM   20  C16 UNK     1       3.668   3.222  -3.776  1.00  0.00     0.010 C 
BRANCH  19  21
HETATM   21  C6  UNK     1       3.189   3.885  -1.377  1.00  0.00     0.000 C 
HETATM   22  C20 UNK     1       4.559   3.508  -0.828  1.00  0.00     0.005 C 
ENDBRANCH  19  21
ENDBRANCH  18  19
BRANCH  18  23
HETATM   23  C12 UNK     1       2.119   0.634  -3.328  1.00  0.00    -0.089 C 
HETATM   24  C21 UNK     1       0.741   0.880  -3.880  1.00  0.00     0.043 C 
HETATM   25  C23 UNK     1       2.896  -0.337  -3.838  1.00  0.00     0.014 C 
ENDBRANCH  18  23
ENDBRANCH  17  18
ENDBRANCH  16  17
ENDBRANCH   5  16
BRANCH  12  26
HETATM   26  O2  UNK     1       2.714   0.229   2.275  1.00  0.00    -0.360 OA
HETATM   27  H30 UNK     1       2.895   0.325   3.226  1.00  0.00     0.217 HD
ENDBRANCH  12  26
TORSDOF 7
