REMARK  3 active torsions:
REMARK  status: ('A' for Active; 'I' for Inactive)
REMARK    1  A    between atoms: C1_5  and  N1_4 
REMARK       I    between atoms: C7_11  and  N1_4 
REMARK    2  A    between atoms: C1_5  and  C2_6 
REMARK    3  A    between atoms: C4_8  and  C7_11 
ROOT
HETATM    1  O1  UNK     1       0.101   0.420  -2.098  1.00  0.00    -0.274 OA
HETATM    2  O3  UNK     1      -1.812  -0.575  -1.342  1.00  0.00    -0.259 OA
HETATM    3  C3  UNK     1       1.824   1.070  -0.510  1.00  0.00    -0.001 A 
HETATM    4  C4  UNK     1      -0.203   0.014   0.294  1.00  0.00     0.108 A 
HETATM    5  C5  UNK     1       0.991   0.555   0.566  1.00  0.00     0.037 A 
HETATM    6  C6  UNK     1       1.359   0.991  -1.818  1.00  0.00     0.089 A 
HETATM    7  C8  UNK     1      -0.718  -0.081  -1.090  1.00  0.00     0.304 A 
HETATM    8  C9  UNK     1       3.076   1.642  -0.273  1.00  0.00     0.014 A 
HETATM    9  C11 UNK     1       2.107   1.466  -2.893  1.00  0.00     0.038 A 
HETATM   10  C12 UNK     1       3.839   2.123  -1.341  1.00  0.00     0.001 A 
HETATM   11  C13 UNK     1       3.355   2.035  -2.648  1.00  0.00     0.003 A 
ENDROOT
BRANCH   4  12
HETATM   12  C7  UNK     1      -0.969  -0.477   1.446  1.00  0.00     0.257 C 
HETATM   13  O2  UNK     1      -0.850   0.045   2.553  1.00  0.00    -0.267 OA
HETATM   14  N1  UNK     1      -1.790  -1.544   1.130  1.00  0.00    -0.357 N 
HETATM   15  H6  UNK     1      -1.800  -1.921   0.187  1.00  0.00     0.162 HD
BRANCH  14  16
HETATM   16  C1  UNK     1      -2.639  -2.199   2.099  1.00  0.00     0.122 C 
BRANCH  16  17
HETATM   17  C2  UNK     1      -4.024  -1.568   2.179  1.00  0.00     0.015 C 
HETATM   18  C10 UNK     1      -4.780  -1.640   0.860  1.00  0.00     0.006 C 
ENDBRANCH  16  17
ENDBRANCH  14  16
ENDBRANCH   4  12
TORSDOF 3
