REMARK  2 active torsions:
REMARK  status: ('A' for Active; 'I' for Inactive)
REMARK    1  A    between atoms: C7_11  and  O2_2 
REMARK    2  A    between atoms: C10_14  and  C4_8 
ROOT
HETATM    1  O1  UNK     1      -1.149  -0.116  -1.455  1.00  0.00    -0.274 OA
HETATM    2  O3  UNK     1      -3.151  -1.079  -0.919  1.00  0.00    -0.259 OA
HETATM    3  C1  UNK     1       0.494   0.287   0.291  1.00  0.00    -0.001 A 
HETATM    4  C2  UNK     1       0.113   0.358  -1.045  1.00  0.00     0.092 A 
HETATM    5  C3  UNK     1      -0.430  -0.286   1.258  1.00  0.00     0.035 A 
HETATM    6  C4  UNK     1      -1.627  -0.735   0.862  1.00  0.00     0.086 A 
HETATM    7  C5  UNK     1       1.753   0.768   0.659  1.00  0.00     0.017 A 
HETATM    8  C6  UNK     1       0.951   0.894  -2.020  1.00  0.00     0.075 A 
HETATM    9  C7  UNK     1       2.205   1.372  -1.645  1.00  0.00     0.070 A 
HETATM   10  C8  UNK     1       2.605   1.309  -0.308  1.00  0.00     0.038 A 
HETATM   11  C9  UNK     1      -2.054  -0.669  -0.554  1.00  0.00     0.302 A 
ENDROOT
BRANCH   6  12
HETATM   12  C10 UNK     1      -2.488  -1.294   1.911  1.00  0.00     0.161 C 
HETATM   13  O4  UNK     1      -3.293  -2.189   1.648  1.00  0.00    -0.293 OA
HETATM   14  C11 UNK     1      -2.348  -0.745   3.307  1.00  0.00     0.097 C 
ENDBRANCH   6  12
BRANCH   9  15
HETATM   15  O2  UNK     1       3.040   1.899  -2.580  1.00  0.00    -0.356 OA
HETATM   16  C12 UNK     1       4.309   2.369  -2.127  1.00  0.00     0.210 C 
ENDBRANCH   9  15
TORSDOF 2
