REMARK  6 active torsions:
REMARK  status: ('A' for Active; 'I' for Inactive)
REMARK    1  A    between atoms: C2_8  and  O1_4 
REMARK    2  A    between atoms: C3_9  and  O1_4 
REMARK    3  A    between atoms: C5_11  and  O2_5 
REMARK    4  A    between atoms: C1_7  and  C2_8 
REMARK    5  A    between atoms: C12_18  and  C4_10 
REMARK    6  A    between atoms: C15_21  and  C16_22 
ROOT
HETATM    1  N1  UNK     1       3.245  -1.376  -2.104  1.00  0.00    -0.191 NA
HETATM    2  C12 UNK     1       1.707   1.551  -0.958  1.00  0.00     0.036 C 
HETATM    3  C15 UNK     1       2.764   1.120  -1.658  1.00  0.00     0.057 C 
HETATM    4  C24 UNK     1       3.034  -0.252  -1.906  1.00  0.00     0.100 C 
ENDROOT
BRANCH   3   5
HETATM    5  C16 UNK     1       3.701   2.120  -2.156  1.00  0.00     0.006 A 
HETATM    6  C18 UNK     1       3.572   2.695  -3.420  1.00  0.00     0.047 A 
HETATM    7 Cl1  UNK     1       2.288   2.260  -4.494  1.00  0.00    -0.083 Cl
HETATM    8  C20 UNK     1       4.494   3.649  -3.850  1.00  0.00     0.048 A 
HETATM    9  C22 UNK     1       5.545   4.029  -3.015  1.00  0.00     0.035 A 
HETATM   10  C21 UNK     1       5.674   3.454  -1.751  1.00  0.00     0.025 A 
HETATM   11 Cl2  UNK     1       6.683   5.206  -3.544  1.00  0.00    -0.084 Cl
HETATM   12  C19 UNK     1       4.752   2.499  -1.321  1.00  0.00     0.016 A 
ENDBRANCH   3   5
BRANCH   2  13
HETATM   13  C4  UNK     1       0.670   0.686  -0.378  1.00  0.00    -0.015 A 
HETATM   14  C6  UNK     1      -0.448   0.425  -1.161  1.00  0.00     0.052 A 
HETATM   15  C5  UNK     1      -1.464  -0.390  -0.660  1.00  0.00     0.102 A 
HETATM   16  C3  UNK     1      -1.353  -0.936   0.618  1.00  0.00     0.103 A 
HETATM   17  C7  UNK     1      -0.227  -0.668   1.396  1.00  0.00     0.059 A 
HETATM   18  C8  UNK     1       0.789   0.146   0.896  1.00  0.00     0.024 A 
HETATM   19 Br1  UNK     1       2.295   0.471   2.008  1.00  0.00    -0.050 Br
BRANCH  15  20
HETATM   20  O2  UNK     1      -2.559  -0.644  -1.430  1.00  0.00    -0.353 OA
HETATM   21  C23 UNK     1      -2.501  -1.786  -2.282  1.00  0.00     0.210 C 
ENDBRANCH  15  20
BRANCH  16  22
HETATM   22  O1  UNK     1      -2.338  -1.733   1.118  1.00  0.00    -0.344 OA
BRANCH  22  23
HETATM   23  C2  UNK     1      -2.526  -1.724   2.531  1.00  0.00     0.214 C 
BRANCH  23  24
HETATM   24  C1  UNK     1      -3.963  -2.030   2.837  1.00  0.00    -0.034 A 
HETATM   25  C9  UNK     1      -4.362  -3.350   3.020  1.00  0.00     0.010 A 
HETATM   26  C13 UNK     1      -5.697  -3.635   3.304  1.00  0.00     0.007 A 
HETATM   27  C11 UNK     1      -6.625  -2.598   3.403  1.00  0.00    -0.062 A 
HETATM   28  C14 UNK     1      -6.218  -1.277   3.218  1.00  0.00     0.007 A 
HETATM   29  C17 UNK     1      -8.053  -2.903   3.708  1.00  0.00     0.048 C 
HETATM   30  C10 UNK     1      -4.883  -0.992   2.934  1.00  0.00     0.010 A 
ENDBRANCH  23  24
ENDBRANCH  22  23
ENDBRANCH  16  22
ENDBRANCH   2  13
TORSDOF 6
