REMARK  3 active torsions:
REMARK  status: ('A' for Active; 'I' for Inactive)
REMARK    1  A    between atoms: C9_13  and  O2_2 
REMARK    2  A    between atoms: C10_14  and  O3_3 
REMARK    3  A    between atoms: C3_7  and  C4_8 
ROOT
HETATM    1  O1  UNK     1      -0.147   0.046  -0.358  1.00  0.00    -0.309 OA
HETATM    2  O4  UNK     1      -0.752   2.131   3.090  1.00  0.00    -0.287 OA
HETATM    3  C1  UNK     1      -1.411   0.340   1.696  1.00  0.00     0.048 A 
HETATM    4  C2  UNK     1      -1.149  -0.329   0.501  1.00  0.00     0.093 A 
HETATM    5  C3  UNK     1       0.632   1.144  -0.025  1.00  0.00     0.093 A 
HETATM    6  C5  UNK     1      -0.580   1.499   2.057  1.00  0.00     0.187 A 
HETATM    7  C6  UNK     1       0.482   1.864   1.098  1.00  0.00     0.094 A 
HETATM    8  C7  UNK     1      -1.921  -1.432   0.136  1.00  0.00     0.075 A 
HETATM    9  C8  UNK     1      -2.444  -0.087   2.532  1.00  0.00     0.021 A 
HETATM   10  C10 UNK     1      -2.954  -1.861   0.969  1.00  0.00     0.070 A 
HETATM   11  C12 UNK     1      -3.215  -1.190   2.165  1.00  0.00     0.038 A 
ENDROOT
BRANCH   5  12
HETATM   12  C4  UNK     1       1.682   1.456  -1.015  1.00  0.00     0.031 A 
HETATM   13  C11 UNK     1       2.879   2.033  -0.579  1.00  0.00     0.017 A 
HETATM   14  C14 UNK     1       3.886   2.337  -1.496  1.00  0.00     0.001 A 
HETATM   15  C15 UNK     1       3.701   2.067  -2.851  1.00  0.00     0.003 A 
HETATM   16  C13 UNK     1       2.508   1.491  -3.291  1.00  0.00     0.038 A 
HETATM   17  C9  UNK     1       1.502   1.187  -2.375  1.00  0.00     0.081 A 
BRANCH  17  18
HETATM   18  O2  UNK     1       0.346   0.625  -2.831  1.00  0.00    -0.355 OA
HETATM   19  C16 UNK     1       0.252   0.387  -4.234  1.00  0.00     0.210 C 
ENDBRANCH  17  18
ENDBRANCH   5  12
BRANCH  10  20
HETATM   20  O3  UNK     1      -3.710  -2.937   0.616  1.00  0.00    -0.356 OA
HETATM   21  C17 UNK     1      -4.750  -3.322   1.514  1.00  0.00     0.210 C 
ENDBRANCH  10  20
TORSDOF 3
