REMARK  6 active torsions:
REMARK  status: ('A' for Active; 'I' for Inactive)
REMARK    1  A    between atoms: C12_19  and  O3_3 
REMARK    2  A    between atoms: C19_26  and  O3_3 
REMARK    3  A    between atoms: C22_29  and  O6_6 
REMARK    4  A    between atoms: C1_8  and  C10_17 
REMARK    5  A    between atoms: C12_19  and  C6_13 
REMARK    6  A    between atoms: C19_26  and  C22_29 
ROOT
HETATM    1  O1  UNK     1      -1.889  -3.077  -0.984  1.00  0.00    -0.293 OA
HETATM    2  N1  UNK     1      -2.426   0.288   2.305  1.00  0.00    -0.362 N 
HETATM    3  C1  UNK     1      -0.567  -1.201   0.764  1.00  0.00     0.104 C 
HETATM    4  C2  UNK     1      -2.079  -1.321   0.601  1.00  0.00     0.024 C 
HETATM    5  C3  UNK     1      -2.921  -0.571   1.343  1.00  0.00     0.020 C 
HETATM    6  C4  UNK     1      -4.419  -0.611   1.188  1.00  0.00     0.058 C 
HETATM    7  C5  UNK     1      -4.841  -1.160  -0.169  1.00  0.00     0.014 C 
HETATM    8  C6  UNK     1      -0.166  -0.322   1.952  1.00  0.00     0.052 C 
HETATM    9  C7  UNK     1      -4.138  -2.472  -0.463  1.00  0.00     0.084 C 
HETATM   10  C8  UNK     1      -2.636  -2.331  -0.352  1.00  0.00     0.158 C 
HETATM   11  C9  UNK     1      -1.086   0.384   2.650  1.00  0.00     0.018 C 
HETATM   12  C13 UNK     1      -0.813   1.280   3.828  1.00  0.00     0.069 C 
HETATM   13  H8  UNK     1      -3.093   0.825   2.848  1.00  0.00     0.165 HD
ENDROOT
BRANCH   3  14
HETATM   14  C10 UNK     1       0.051  -0.677  -0.504  1.00  0.00     0.029 A 
HETATM   15  C11 UNK     1      -0.335   0.678  -0.973  1.00  0.00     0.194 A 
HETATM   16  O4  UNK     1      -1.134   1.376  -0.362  1.00  0.00    -0.287 OA
HETATM   17  C15 UNK     1       0.298   1.143  -2.221  1.00  0.00     0.048 A 
HETATM   18  C16 UNK     1       1.202   0.305  -2.876  1.00  0.00     0.089 A 
HETATM   19  C17 UNK     1       0.001   2.403  -2.745  1.00  0.00     0.018 A 
HETATM   20  O2  UNK     1       1.531  -0.942  -2.407  1.00  0.00    -0.321 OA
HETATM   21  C18 UNK     1       1.813   0.724  -4.058  1.00  0.00     0.038 A 
HETATM   22  C14 UNK     1       0.933  -1.361  -1.244  1.00  0.00     0.154 A 
HETATM   23  C21 UNK     1       1.518   1.982  -4.583  1.00  0.00     0.003 A 
HETATM   24  C20 UNK     1       0.614   2.820  -3.928  1.00  0.00     0.001 A 
ENDBRANCH   3  14
BRANCH   8  25
HETATM   25  C12 UNK     1       1.268  -0.304   2.288  1.00  0.00     0.292 C 
HETATM   26  O5  UNK     1       1.783  -1.088   3.063  1.00  0.00    -0.259 OA
BRANCH  25  27
HETATM   27  O3  UNK     1       1.856   0.702   1.597  1.00  0.00    -0.316 OA
BRANCH  27  28
HETATM   28  C19 UNK     1       3.262   0.848   1.819  1.00  0.00     0.205 C 
BRANCH  28  29
HETATM   29  C22 UNK     1       3.777   2.006   0.985  1.00  0.00     0.193 C 
BRANCH  29  30
HETATM   30  O6  UNK     1       3.547   1.725  -0.391  1.00  0.00    -0.394 OA
HETATM   31  C23 UNK     1       3.991   2.790  -1.220  1.00  0.00     0.201 C 
ENDBRANCH  29  30
ENDBRANCH  28  29
ENDBRANCH  27  28
ENDBRANCH  25  27
ENDBRANCH   8  25
TORSDOF 6
