REMARK  5 active torsions:
REMARK  status: ('A' for Active; 'I' for Inactive)
REMARK    1  A    between atoms: C8_15  and  O2_3 
REMARK    2  A    between atoms: C20_27  and  N1_6 
REMARK    3  A    between atoms: C6_13  and  N1_6 
REMARK    4  A    between atoms: C13_20  and  N2_7 
REMARK    5  A    between atoms: C20_27  and  N2_7 
ROOT
HETATM    1  N1  UNK     1      -0.666  -0.003  -1.201  1.00  0.00    -0.331 N 
HETATM    2  H5  UNK     1      -1.150   0.185  -0.329  1.00  0.00     0.168 HD
ENDROOT
BRANCH   1   3
HETATM    3  C20 UNK     1      -1.510  -0.466  -2.212  1.00  0.00     0.176 C 
HETATM    4  S1  UNK     1      -1.335  -0.176  -3.863  1.00  0.00    -0.041 SA
BRANCH   3   5
HETATM    5  N2  UNK     1      -2.663  -1.126  -1.815  1.00  0.00    -0.333 N 
HETATM    6  H11 UNK     1      -3.330  -1.279  -2.569  1.00  0.00     0.168 HD
BRANCH   5   7
HETATM    7  C13 UNK     1      -3.169  -1.433  -0.527  1.00  0.00     0.036 A 
HETATM    8  C17 UNK     1      -2.289  -1.594   0.524  1.00  0.00     0.067 A 
HETATM    9  C12 UNK     1      -2.808  -1.895   1.784  1.00  0.00     0.092 A 
HETATM   10  C11 UNK     1      -4.177  -2.037   2.012  1.00  0.00     0.004 A 
HETATM   11  O3  UNK     1      -1.875  -2.051   2.829  1.00  0.00    -0.275 OA
HETATM   12  C15 UNK     1      -4.636  -2.355   3.371  1.00  0.00    -0.043 A 
HETATM   13  C18 UNK     1      -5.039  -1.866   0.920  1.00  0.00     0.017 A 
HETATM   14  C21 UNK     1      -3.726  -2.498   4.346  1.00  0.00     0.090 A 
HETATM   15  C22 UNK     1      -6.102  -2.513   3.649  1.00  0.00     0.049 C 
HETATM   16  C23 UNK     1      -2.278  -2.351   4.121  1.00  0.00     0.288 A 
HETATM   17  O4  UNK     1      -1.476  -2.489   5.038  1.00  0.00    -0.260 OA
HETATM   18  C19 UNK     1      -4.534  -1.564  -0.349  1.00  0.00     0.030 A 
ENDBRANCH   5   7
ENDBRANCH   3   5
ENDBRANCH   1   3
BRANCH   1  19
HETATM   19  C6  UNK     1       0.549   0.687  -1.249  1.00  0.00     0.070 A 
HETATM   20  C7  UNK     1       1.460   0.370  -2.261  1.00  0.00     0.070 A 
HETATM   21  C3  UNK     1       2.657   1.085  -2.266  1.00  0.00     0.089 A 
HETATM   22  C1  UNK     1       2.981   2.071  -1.339  1.00  0.00     0.014 A 
HETATM   23  O1  UNK     1       3.668   0.926  -3.164  1.00  0.00    -0.309 OA
HETATM   24  C2  UNK     1       4.277   2.541  -1.702  1.00  0.00     0.011 A 
HETATM   25  C5  UNK     1       2.048   2.372  -0.330  1.00  0.00     0.054 A 
HETATM   26  C4  UNK     1       4.650   1.807  -2.824  1.00  0.00     0.087 A 
HETATM   27  C9  UNK     1       5.173   3.505  -1.206  1.00  0.00     0.015 A 
HETATM   28  C10 UNK     1       5.862   1.965  -3.494  1.00  0.00     0.038 A 
HETATM   29  C16 UNK     1       6.736   2.928  -2.982  1.00  0.00     0.003 A 
HETATM   30  C14 UNK     1       6.400   3.686  -1.858  1.00  0.00     0.001 A 
HETATM   31  C8  UNK     1       0.835   1.670  -0.299  1.00  0.00     0.096 A 
BRANCH  31  32
HETATM   32  O2  UNK     1      -0.064   1.968   0.684  1.00  0.00    -0.354 OA
HETATM   33  C24 UNK     1      -1.018   2.987   0.398  1.00  0.00     0.210 C 
ENDBRANCH  31  32
ENDBRANCH   1  19
TORSDOF 5
