REMARK  1 active torsions:
REMARK  status: ('A' for Active; 'I' for Inactive)
REMARK       I    between atoms: C7_13  and  N1_6 
REMARK    1  A    between atoms: C7_13  and  C8_14 
ROOT
HETATM    1 Cl1  UNK     1       3.331   3.191  -4.550  1.00  0.00    -0.084 Cl
HETATM    2  O3  UNK     1       2.276   0.733   0.707  1.00  0.00    -0.274 OA
HETATM    3  O4  UNK     1       1.067  -0.687   2.026  1.00  0.00    -0.259 OA
HETATM    4  C8  UNK     1       0.430  -0.552  -0.253  1.00  0.00     0.108 A 
HETATM    5  C9  UNK     1       0.644  -0.011  -1.458  1.00  0.00     0.037 A 
HETATM    6  C10 UNK     1       1.714   0.955  -1.649  1.00  0.00     0.001 A 
HETATM    7  C11 UNK     1       1.260  -0.194   0.920  1.00  0.00     0.304 A 
HETATM    8  C12 UNK     1       2.507   1.305  -0.560  1.00  0.00     0.089 A 
HETATM    9  C13 UNK     1       1.974   1.544  -2.888  1.00  0.00     0.038 A 
HETATM   10  C14 UNK     1       3.548   2.224  -0.676  1.00  0.00     0.040 A 
HETATM   11  C15 UNK     1       3.015   2.467  -3.020  1.00  0.00     0.035 A 
HETATM   12  C16 UNK     1       3.801   2.806  -1.916  1.00  0.00     0.026 A 
ENDROOT
BRANCH   4  13
HETATM   13  C7  UNK     1      -0.679  -1.522  -0.160  1.00  0.00     0.260 C 
HETATM   14  O2  UNK     1      -0.419  -2.708  -0.368  1.00  0.00    -0.267 OA
HETATM   15  N1  UNK     1      -1.943  -1.033   0.153  1.00  0.00    -0.343 N 
HETATM   16  C3  UNK     1      -2.304   0.367   0.409  1.00  0.00     0.157 C 
HETATM   17  C4  UNK     1      -3.082  -1.950   0.194  1.00  0.00     0.157 C 
HETATM   18  C1  UNK     1      -3.133   0.495   1.691  1.00  0.00     0.136 C 
HETATM   19  O1  UNK     1      -4.231  -0.424   1.690  1.00  0.00    -0.378 OA
HETATM   20  C5  UNK     1      -2.288   0.363   2.957  1.00  0.00     0.041 C 
HETATM   21  C2  UNK     1      -3.845  -1.792   1.507  1.00  0.00     0.136 C 
HETATM   22  C6  UNK     1      -5.115  -2.632   1.505  1.00  0.00     0.041 C 
ENDBRANCH   4  13
TORSDOF 1
