REMARK  4 active torsions:
REMARK  status: ('A' for Active; 'I' for Inactive)
REMARK    1  A    between atoms: C7_12  and  O2_2 
REMARK    2  A    between atoms: C9_14  and  O4_4 
REMARK    3  A    between atoms: C11_16  and  O5_5 
REMARK    4  A    between atoms: C3_8  and  C4_9 
ROOT
HETATM    1  O1  UNK     1       0.339  -0.809   1.666  1.00  0.00    -0.309 OA
HETATM    2  O3  UNK     1       0.088  -2.590  -1.990  1.00  0.00    -0.287 OA
HETATM    3  C1  UNK     1       0.578  -2.811   0.311  1.00  0.00     0.081 A 
HETATM    4  C2  UNK     1       0.641  -2.141   1.532  1.00  0.00     0.095 A 
HETATM    5  C3  UNK     1      -0.040  -0.101   0.536  1.00  0.00     0.093 A 
HETATM    6  C5  UNK     1       0.168  -2.065  -0.888  1.00  0.00     0.190 A 
HETATM    7  C6  UNK     1      -0.144  -0.635  -0.691  1.00  0.00     0.094 A 
HETATM    8  C7  UNK     1       0.897  -4.169   0.234  1.00  0.00     0.085 A 
HETATM    9  C8  UNK     1       1.025  -2.826   2.685  1.00  0.00     0.075 A 
HETATM   10  C9  UNK     1       1.345  -4.182   2.611  1.00  0.00     0.071 A 
HETATM   11  C10 UNK     1       1.281  -4.852   1.389  1.00  0.00     0.074 A 
ENDROOT
BRANCH   5  12
HETATM   12  C4  UNK     1      -0.348   1.320   0.794  1.00  0.00     0.031 A 
HETATM   13  C11 UNK     1       0.638   2.307   0.698  1.00  0.00     0.078 A 
HETATM   14  C13 UNK     1       0.322   3.643   0.947  1.00  0.00     0.037 A 
HETATM   15  C15 UNK     1      -0.982   3.998   1.292  1.00  0.00     0.003 A 
HETATM   16  C14 UNK     1      -1.970   3.018   1.389  1.00  0.00     0.001 A 
HETATM   17  C12 UNK     1      -1.654   1.682   1.140  1.00  0.00     0.017 A 
BRANCH  13  18
HETATM   18  O5  UNK     1       1.921   1.987   0.363  1.00  0.00    -0.360 OA
HETATM   19  H10 UNK     1       2.458   2.797   0.347  1.00  0.00     0.217 HD
ENDBRANCH  13  18
ENDBRANCH   5  12
BRANCH   8  20
HETATM   20  O2  UNK     1       0.850  -4.868  -0.934  1.00  0.00    -0.360 OA
HETATM   21  H8  UNK     1       0.575  -4.293  -1.664  1.00  0.00     0.217 HD
ENDBRANCH   8  20
BRANCH  10  22
HETATM   22  O4  UNK     1       1.719  -4.853   3.735  1.00  0.00    -0.361 OA
HETATM   23  H9  UNK     1       1.904  -5.779   3.503  1.00  0.00     0.217 HD
ENDBRANCH  10  22
TORSDOF 4
