REMARK  1 active torsions:
REMARK  status: ('A' for Active; 'I' for Inactive)
REMARK    1  A    between atoms: C12_17  and  C4_9 
ROOT
HETATM    1  O1  UNK     1       0.427   1.212  -2.654  1.00  0.00    -0.332 OA
HETATM    2  O2  UNK     1      -1.083  -0.834   1.496  1.00  0.00    -0.274 OA
HETATM    3  O3  UNK     1       3.291   1.095  -0.459  1.00  0.00    -0.289 OA
HETATM    4  O4  UNK     1      -1.824  -1.877   3.397  1.00  0.00    -0.260 OA
HETATM    5  C1  UNK     1       1.794   0.923  -2.355  1.00  0.00     0.125 C 
HETATM    6  C2  UNK     1      -0.286   0.286  -0.513  1.00  0.00     0.048 A 
HETATM    7  C3  UNK     1       2.141   0.940  -0.863  1.00  0.00     0.196 C 
HETATM    8  C4  UNK     1       0.994   0.718   0.069  1.00  0.00     0.044 C 
HETATM    9  C5  UNK     1      -0.505   0.587  -1.865  1.00  0.00     0.084 A 
HETATM   10  C6  UNK     1       2.603   2.021  -3.057  1.00  0.00     0.055 C 
HETATM   11  C7  UNK     1       2.173  -0.441  -2.947  1.00  0.00     0.055 C 
HETATM   12  C8  UNK     1      -1.301  -0.415   0.161  1.00  0.00     0.103 A 
HETATM   13  C9  UNK     1      -2.513  -0.743  -0.455  1.00  0.00    -0.001 A 
HETATM   14  C10 UNK     1      -1.722   0.287  -2.487  1.00  0.00     0.039 A 
HETATM   15  C11 UNK     1      -2.726  -0.374  -1.783  1.00  0.00     0.017 A 
HETATM   16  C13 UNK     1      -3.527  -1.463   0.300  1.00  0.00     0.020 A 
HETATM   17  C14 UNK     1      -3.302  -1.831   1.563  1.00  0.00     0.083 A 
HETATM   18  C15 UNK     1      -2.030  -1.530   2.239  1.00  0.00     0.288 A 
ENDROOT
BRANCH   8  19
HETATM   19  C12 UNK     1       1.190   1.047   1.355  1.00  0.00     0.098 C 
HETATM   20  N1  UNK     1       2.341   1.449   1.940  1.00  0.00    -0.402 N 
HETATM   21  C16 UNK     1       2.464   1.752   3.349  1.00  0.00     0.145 C 
HETATM   22  H11 UNK     1       3.175   1.526   1.370  1.00  0.00     0.158 HD
ENDBRANCH   8  19
TORSDOF 1
