REMARK  6 active torsions:
REMARK  status: ('A' for Active; 'I' for Inactive)
REMARK    1  A    between atoms: C12_15  and  O2_2 
REMARK    2  A    between atoms: C15_18  and  O2_2 
REMARK    3  A    between atoms: C1_4  and  C2_5 
REMARK    4  A    between atoms: C1_4  and  C3_6 
REMARK    5  A    between atoms: C3_6  and  C6_9 
REMARK    6  A    between atoms: C15_18  and  C16_19 
ROOT
HETATM    1  O1  UNK     1      -0.407  -0.752   1.661  1.00  0.00    -0.274 OA
HETATM    2  O3  UNK     1      -1.394  -1.715   3.464  1.00  0.00    -0.259 OA
HETATM    3  C2  UNK     1      -2.612  -1.809   1.418  1.00  0.00     0.024 A 
HETATM    4  C4  UNK     1      -2.669  -1.463   0.115  1.00  0.00    -0.037 A 
HETATM    5  C5  UNK     1      -1.529  -0.750  -0.497  1.00  0.00     0.005 A 
HETATM    6  C7  UNK     1      -0.437  -0.417   0.299  1.00  0.00     0.092 A 
HETATM    7  C8  UNK     1      -1.445  -1.438   2.269  1.00  0.00     0.295 A 
HETATM    8  C9  UNK     1      -3.852  -1.749  -0.776  1.00  0.00     0.050 C 
HETATM    9  C10 UNK     1      -1.466  -0.387  -1.852  1.00  0.00     0.017 A 
HETATM   10  C11 UNK     1       0.681   0.257  -0.200  1.00  0.00     0.075 A 
HETATM   11  C12 UNK     1       0.718   0.611  -1.543  1.00  0.00     0.071 A 
HETATM   12  C14 UNK     1      -0.354   0.288  -2.370  1.00  0.00     0.038 A 
ENDROOT
BRANCH  11  13
HETATM   13  O2  UNK     1       1.797   1.267  -2.048  1.00  0.00    -0.347 OA
BRANCH  13  14
HETATM   14  C15 UNK     1       2.860   1.566  -1.143  1.00  0.00     0.214 C 
BRANCH  14  15
HETATM   15  C16 UNK     1       3.934   2.312  -1.878  1.00  0.00    -0.034 A 
HETATM   16  C17 UNK     1       4.961   1.609  -2.497  1.00  0.00     0.009 A 
HETATM   17  C19 UNK     1       5.960   2.303  -3.180  1.00  0.00     0.001 A 
HETATM   18  C21 UNK     1       5.925   3.696  -3.239  1.00  0.00     0.000 A 
HETATM   19  C20 UNK     1       4.891   4.395  -2.616  1.00  0.00     0.001 A 
HETATM   20  C18 UNK     1       3.893   3.701  -1.933  1.00  0.00     0.009 A 
ENDBRANCH  14  15
ENDBRANCH  13  14
ENDBRANCH  11  13
BRANCH   3  21
HETATM   21  C1  UNK     1      -3.673  -2.592   2.149  1.00  0.00     0.045 C 
BRANCH  21  22
HETATM   22  C3  UNK     1      -4.715  -1.669   2.768  1.00  0.00     0.004 C 
BRANCH  22  23
HETATM   23  C6  UNK     1      -5.800  -2.478   3.480  1.00  0.00    -0.004 C 
HETATM   24  C13 UNK     1      -6.870  -1.575   4.073  1.00  0.00     0.005 C 
ENDBRANCH  22  23
ENDBRANCH  21  22
ENDBRANCH   3  21
TORSDOF 6
