REMARK  5 active torsions:
REMARK  status: ('A' for Active; 'I' for Inactive)
REMARK    1  A    between atoms: C8_15  and  O2_3 
REMARK       I    between atoms: C10_17  and  N1_7 
REMARK    2  A    between atoms: C5_12  and  N1_7 
REMARK    3  A    between atoms: C1_8  and  C3_10 
REMARK    4  A    between atoms: C2_9  and  C8_15 
REMARK    5  A    between atoms: C10_17  and  C9_16 
ROOT
HETATM    1  O4  UNK     1      -1.000   0.269  -2.434  1.00  0.00    -0.267 OA
HETATM    2  N1  UNK     1      -0.695  -0.123  -0.128  1.00  0.00    -0.316 N 
HETATM    3  C10 UNK     1      -0.358   0.348  -1.389  1.00  0.00     0.262 C 
HETATM    4  H3  UNK     1      -0.047   0.002   0.645  1.00  0.00     0.169 HD
ENDROOT
BRANCH   2   5
HETATM    5  C5  UNK     1      -1.870  -0.801   0.212  1.00  0.00     0.094 A 
HETATM    6  C2  UNK     1      -2.288  -1.296   1.405  1.00  0.00     0.080 A 
HETATM    7  C1  UNK     1      -3.565  -1.917   1.285  1.00  0.00    -0.027 A 
HETATM    8  C4  UNK     1      -4.049  -1.858  -0.003  1.00  0.00    -0.012 A 
HETATM    9  S1  UNK     1      -2.967  -1.057  -1.061  1.00  0.00    -0.076 SA
HETATM   10  C7  UNK     1      -5.326  -2.379  -0.540  1.00  0.00     0.057 C 
BRANCH   6  11
HETATM   11  C8  UNK     1      -1.519  -1.192   2.621  1.00  0.00     0.296 C 
HETATM   12  O3  UNK     1      -2.021  -1.125   3.752  1.00  0.00    -0.259 OA
BRANCH  11  13
HETATM   13  O2  UNK     1      -0.156  -1.174   2.420  1.00  0.00    -0.322 OA
HETATM   14  C19 UNK     1       0.669  -1.071   3.587  1.00  0.00     0.213 C 
ENDBRANCH  11  13
ENDBRANCH   6  11
BRANCH   7  15
HETATM   15  C3  UNK     1      -4.290  -2.553   2.414  1.00  0.00     0.036 C 
HETATM   16  C6  UNK     1      -5.203  -1.573   3.152  1.00  0.00     0.010 C 
ENDBRANCH   7  15
ENDBRANCH   2   5
BRANCH   3  17
HETATM   17  C9  UNK     1       0.950   1.014  -1.392  1.00  0.00     0.108 A 
HETATM   18  C12 UNK     1       1.644   0.950  -2.534  1.00  0.00     0.037 A 
HETATM   19  C11 UNK     1       2.951   1.579  -2.635  1.00  0.00    -0.001 A 
HETATM   20  C13 UNK     1       3.464   2.246  -1.527  1.00  0.00     0.089 A 
HETATM   21  C15 UNK     1       3.710   1.538  -3.807  1.00  0.00     0.014 A 
HETATM   22  O1  UNK     1       2.729   2.310  -0.327  1.00  0.00    -0.274 OA
HETATM   23  C16 UNK     1       4.710   2.869  -1.557  1.00  0.00     0.038 A 
HETATM   24  C14 UNK     1       1.476   1.718  -0.200  1.00  0.00     0.304 A 
HETATM   25  O5  UNK     1       0.844   1.778   0.849  1.00  0.00    -0.259 OA
HETATM   26  C18 UNK     1       5.461   2.822  -2.730  1.00  0.00     0.003 A 
HETATM   27  C17 UNK     1       4.962   2.158  -3.853  1.00  0.00     0.001 A 
ENDBRANCH   3  17
TORSDOF 5
