REMARK  3 active torsions:
REMARK  status: ('A' for Active; 'I' for Inactive)
REMARK       I    between atoms: C12_17  and  N1_4 
REMARK    1  A    between atoms: C15_20  and  N1_4 
REMARK    2  A    between atoms: C12_17  and  C6_11 
REMARK    3  A    between atoms: C15_20  and  C16_21 
ROOT
HETATM    1  O1  UNK     1      -0.292   0.321  -2.571  1.00  0.00    -0.274 OA
HETATM    2  O2  UNK     1      -1.944  -0.857  -1.524  1.00  0.00    -0.259 OA
HETATM    3  C1  UNK     1       1.687   1.053  -1.328  1.00  0.00     0.010 A 
HETATM    4  C2  UNK     1       2.941   1.731  -1.330  1.00  0.00    -0.013 A 
HETATM    5  C3  UNK     1       3.399   2.310  -2.547  1.00  0.00    -0.025 A 
HETATM    6  C4  UNK     1       0.954   0.980  -2.515  1.00  0.00     0.090 A 
HETATM    7  C5  UNK     1       1.097   0.414  -0.149  1.00  0.00     0.038 A 
HETATM    8  C6  UNK     1      -0.086  -0.210  -0.207  1.00  0.00     0.108 A 
HETATM    9  C7  UNK     1       2.624   2.210  -3.712  1.00  0.00     0.015 A 
HETATM   10  C8  UNK     1       1.404   1.547  -3.702  1.00  0.00     0.039 A 
HETATM   11  C9  UNK     1       3.778   1.873  -0.195  1.00  0.00     0.013 A 
HETATM   12  C10 UNK     1       4.629   2.987  -2.590  1.00  0.00     0.012 A 
HETATM   13  C11 UNK     1      -0.860  -0.288  -1.461  1.00  0.00     0.304 A 
HETATM   14  C13 UNK     1       4.999   2.548  -0.257  1.00  0.00     0.001 A 
HETATM   15  C14 UNK     1       5.425   3.105  -1.454  1.00  0.00     0.001 A 
ENDROOT
BRANCH   8  16
HETATM   16  C12 UNK     1      -0.569  -0.812   1.042  1.00  0.00     0.258 C 
HETATM   17  O3  UNK     1      -0.266  -0.331   2.132  1.00  0.00    -0.267 OA
HETATM   18  N1  UNK     1      -1.359  -1.927   0.831  1.00  0.00    -0.351 N 
HETATM   19  H10 UNK     1      -1.539  -2.256  -0.112  1.00  0.00     0.163 HD
BRANCH  18  20
HETATM   20  C15 UNK     1      -1.948  -2.690   1.908  1.00  0.00     0.182 C 
BRANCH  20  21
HETATM   21  C16 UNK     1      -3.328  -2.207   2.251  1.00  0.00     0.051 A 
HETATM   22  N2  UNK     1      -3.407  -1.244   3.190  1.00  0.00    -0.264 NA
HETATM   23  C19 UNK     1      -4.652  -0.813   3.495  1.00  0.00     0.117 A 
HETATM   24  C20 UNK     1      -5.807  -1.300   2.905  1.00  0.00     0.019 A 
HETATM   25  C18 UNK     1      -5.676  -2.293   1.941  1.00  0.00     0.003 A 
HETATM   26  C17 UNK     1      -4.412  -2.762   1.600  1.00  0.00     0.029 A 
ENDBRANCH  20  21
ENDBRANCH  18  20
ENDBRANCH   8  16
TORSDOF 3
