REMARK  5 active torsions:
REMARK  status: ('A' for Active; 'I' for Inactive)
REMARK    1  A    between atoms: C16_20  and  O2_2 
REMARK    2  A    between atoms: C18_22  and  O3_3 
REMARK    3  A    between atoms: C20_24  and  O3_3 
REMARK    4  A    between atoms: C7_11  and  C9_13 
REMARK    5  A    between atoms: C14_18  and  C18_22 
ROOT
HETATM    1  C9  UNK     1       0.252  -0.654   0.576  1.00  0.00    -0.035 A 
HETATM    2  C12 UNK     1      -1.077  -0.920   0.247  1.00  0.00     0.023 A 
HETATM    3  C14 UNK     1      -2.093  -0.627   1.157  1.00  0.00     0.000 A 
HETATM    4  C15 UNK     1       0.565  -0.093   1.815  1.00  0.00     0.014 A 
HETATM    5  C16 UNK     1      -1.780  -0.067   2.395  1.00  0.00     0.076 A 
HETATM    6  C17 UNK     1      -0.451   0.200   2.724  1.00  0.00     0.038 A 
ENDROOT
BRANCH   1   7
HETATM    7  C7  UNK     1       1.324  -0.963  -0.383  1.00  0.00     0.022 C 
HETATM    8  C4  UNK     1       1.812  -0.125  -1.307  1.00  0.00    -0.006 C 
HETATM    9  C2  UNK     1       2.908  -0.491  -2.261  1.00  0.00     0.047 C 
HETATM   10  C6  UNK     1       1.241   1.251  -1.399  1.00  0.00     0.189 C 
HETATM   11  C1  UNK     1       3.951   0.618  -2.337  1.00  0.00     0.044 C 
HETATM   12  C3  UNK     1       3.308   1.943  -2.646  1.00  0.00    -0.044 A 
HETATM   13  C5  UNK     1       2.014   2.244  -2.188  1.00  0.00     0.021 A 
HETATM   14  C8  UNK     1       4.025   2.918  -3.354  1.00  0.00     0.008 A 
HETATM   15  C10 UNK     1       1.446   3.496  -2.454  1.00  0.00     0.016 A 
HETATM   16  C13 UNK     1       2.166   4.450  -3.173  1.00  0.00     0.001 A 
HETATM   17  C11 UNK     1       3.454   4.163  -3.621  1.00  0.00     0.001 A 
HETATM   18  O1  UNK     1       0.186   1.564  -0.861  1.00  0.00    -0.287 OA
ENDBRANCH   1   7
BRANCH   3  19
HETATM   19  C18 UNK     1      -3.510  -0.919   0.788  1.00  0.00     0.220 C 
BRANCH  19  20
HETATM   20  O3  UNK     1      -3.949  -2.077   1.485  1.00  0.00    -0.317 OA
BRANCH  20  21
HETATM   21  C20 UNK     1      -5.238  -2.465   1.242  1.00  0.00     0.255 C 
HETATM   22  O4  UNK     1      -6.028  -1.910   0.491  1.00  0.00    -0.266 OA
HETATM   23  C21 UNK     1      -5.560  -3.692   2.041  1.00  0.00     0.126 C 
ENDBRANCH  20  21
ENDBRANCH  19  20
ENDBRANCH   3  19
BRANCH   5  24
HETATM   24  O2  UNK     1      -2.760   0.226   3.295  1.00  0.00    -0.355 OA
HETATM   25  C19 UNK     1      -2.351   0.797   4.536  1.00  0.00     0.210 C 
ENDBRANCH   5  24
TORSDOF 5
