REMARK  5 active torsions:
REMARK  status: ('A' for Active; 'I' for Inactive)
REMARK    1  A    between atoms: C2_7  and  N1_5 
REMARK       I    between atoms: C5_10  and  N1_5 
REMARK    2  A    between atoms: C1_6  and  C3_8 
REMARK    3  A    between atoms: C1_6  and  C5_10 
REMARK    4  A    between atoms: C12_17  and  C4_9 
REMARK    5  A    between atoms: C6_11  and  C7_12 
ROOT
HETATM    1  C1  UNK     1       1.440   1.082  -0.656  1.00  0.00     0.043 C 
HETATM    2  C6  UNK     1       2.311   0.624   0.281  1.00  0.00     0.029 C 
ENDROOT
BRANCH   1   3
HETATM    3  C3  UNK     1       1.853   1.339  -2.050  1.00  0.00    -0.021 A 
HETATM    4  C10 UNK     1       1.758   0.319  -2.981  1.00  0.00     0.012 A 
HETATM    5  C17 UNK     1       2.148   0.562  -4.298  1.00  0.00     0.001 A 
HETATM    6  C19 UNK     1       2.626   1.820  -4.663  1.00  0.00     0.000 A 
HETATM    7  C18 UNK     1       2.714   2.836  -3.712  1.00  0.00     0.001 A 
HETATM    8  C11 UNK     1       2.324   2.594  -2.395  1.00  0.00     0.012 A 
ENDBRANCH   1   3
BRANCH   1   9
HETATM    9  C5  UNK     1       0.011   1.284  -0.203  1.00  0.00     0.257 C 
HETATM   10  O1  UNK     1      -0.356   2.374   0.227  1.00  0.00    -0.267 OA
HETATM   11  N1  UNK     1      -0.768   0.142  -0.343  1.00  0.00    -0.322 N 
HETATM   12  H1  UNK     1      -0.310  -0.684  -0.721  1.00  0.00     0.169 HD
BRANCH  11  13
HETATM   13  C2  UNK     1      -2.138  -0.012  -0.016  1.00  0.00     0.050 A 
HETATM   14  C4  UNK     1      -2.770  -1.227  -0.220  1.00  0.00     0.074 A 
HETATM   15  C9  UNK     1      -4.119  -1.358   0.109  1.00  0.00     0.018 A 
HETATM   16  C14 UNK     1      -4.818  -0.272   0.636  1.00  0.00     0.001 A 
HETATM   17  C13 UNK     1      -4.167   0.945   0.835  1.00  0.00     0.002 A 
HETATM   18  C8  UNK     1      -2.818   1.077   0.506  1.00  0.00     0.030 A 
BRANCH  14  19
HETATM   19  C12 UNK     1      -2.047  -2.408  -0.782  1.00  0.00     0.419 C 
HETATM   20  F1  UNK     1      -2.832  -3.517  -0.911  1.00  0.00    -0.166 F 
HETATM   21  F2  UNK     1      -1.531  -2.187  -2.026  1.00  0.00    -0.166 F 
HETATM   22  F3  UNK     1      -0.991  -2.791  -0.008  1.00  0.00    -0.166 F 
ENDBRANCH  14  19
ENDBRANCH  11  13
ENDBRANCH   1   9
BRANCH   2  23
HETATM   23  C7  UNK     1       2.013   0.339   1.676  1.00  0.00    -0.035 A 
HETATM   24  C15 UNK     1       2.170   1.334   2.641  1.00  0.00     0.011 A 
HETATM   25  C20 UNK     1       1.884   1.061   3.978  1.00  0.00     0.001 A 
HETATM   26  C22 UNK     1       1.442  -0.209   4.351  1.00  0.00     0.000 A 
HETATM   27  C21 UNK     1       1.286  -1.204   3.387  1.00  0.00     0.001 A 
HETATM   28  C16 UNK     1       1.571  -0.931   2.049  1.00  0.00     0.011 A 
ENDBRANCH   2  23
TORSDOF 5
