REMARK  1 active torsions:
REMARK  status: ('A' for Active; 'I' for Inactive)
REMARK       I    between atoms: C5_11  and  N1_5 
REMARK    1  A    between atoms: C2_8  and  C5_11 
ROOT
HETATM    1  O1  UNK     1      -0.585  -1.269   1.904  1.00  0.00    -0.274 OA
HETATM    2  O3  UNK     1       1.454  -0.246   2.034  1.00  0.00    -0.259 OA
HETATM    3  C1  UNK     1      -2.236  -0.458   0.314  1.00  0.00    -0.001 A 
HETATM    4  C2  UNK     1      -0.075   0.628   0.448  1.00  0.00     0.110 A 
HETATM    5  C3  UNK     1      -1.862  -1.349   1.315  1.00  0.00     0.089 A 
HETATM    6  C4  UNK     1      -1.287   0.557  -0.115  1.00  0.00     0.037 A 
HETATM    7  C6  UNK     1       0.344  -0.309   1.515  1.00  0.00     0.304 A 
HETATM    8  C7  UNK     1      -3.511  -0.570  -0.246  1.00  0.00     0.014 A 
HETATM    9  C8  UNK     1      -2.724  -2.344   1.772  1.00  0.00     0.038 A 
HETATM   10  C9  UNK     1      -4.387  -1.563   0.202  1.00  0.00     0.001 A 
HETATM   11  C10 UNK     1      -3.994  -2.448   1.208  1.00  0.00     0.003 A 
ENDROOT
BRANCH   4  12
HETATM   12  C5  UNK     1       0.812   1.688  -0.052  1.00  0.00     0.284 C 
HETATM   13  O2  UNK     1       0.854   2.813   0.423  1.00  0.00    -0.265 OA
HETATM   14  N1  UNK     1       1.641   1.369  -1.128  1.00  0.00    -0.207 N 
HETATM   15  C11 UNK     1       2.543   2.207  -1.748  1.00  0.00     0.142 A 
HETATM   16  N2  UNK     1       1.631   0.136  -1.689  1.00  0.00    -0.176 NA
HETATM   17  C12 UNK     1       3.136   1.481  -2.750  1.00  0.00     0.047 A 
HETATM   18 Br1  UNK     1       4.441   2.007  -3.968  1.00  0.00    -0.048 Br
HETATM   19  C13 UNK     1       2.536   0.216  -2.667  1.00  0.00     0.160 A 
ENDBRANCH   4  12
TORSDOF 1
