REMARK  6 active torsions:
REMARK  status: ('A' for Active; 'I' for Inactive)
REMARK    1  A    between atoms: C2_8  and  O1_1 
REMARK    2  A    between atoms: C5_11  and  O1_1 
REMARK       I    between atoms: C18_24  and  N1_5 
REMARK    3  A    between atoms: N1_5  and  N2_6 
REMARK    4  A    between atoms: C1_7  and  C2_8 
REMARK    5  A    between atoms: C18_24  and  C9_15 
REMARK    6  A    between atoms: C14_20  and  C21_27 
ROOT
HETATM    1  O4  UNK     1      -0.680   0.136  -2.613  1.00  0.00    -0.266 OA
HETATM    2  N1  UNK     1      -0.024   0.300  -0.399  1.00  0.00    -0.243 N 
HETATM    3  C18 UNK     1       0.130   0.489  -1.760  1.00  0.00     0.271 C 
HETATM    4  H20 UNK     1       0.679   0.545   0.291  1.00  0.00     0.192 HD
ENDROOT
BRANCH   2   5
HETATM    5  N2  UNK     1      -1.144  -0.318   0.045  1.00  0.00    -0.183 NA
HETATM    6  C21 UNK     1      -1.183  -0.479   1.329  1.00  0.00     0.156 C 
BRANCH   6   7
HETATM    7  C14 UNK     1      -2.308  -1.125   2.005  1.00  0.00     0.056 A 
HETATM    8  C13 UNK     1      -3.496  -1.651   1.298  1.00  0.00     0.198 A 
HETATM    9  O3  UNK     1      -3.617  -1.577   0.083  1.00  0.00    -0.286 OA
HETATM   10  C6  UNK     1      -4.530  -2.271   2.148  1.00  0.00     0.049 A 
HETATM   11  C10 UNK     1      -4.333  -2.322   3.529  1.00  0.00     0.089 A 
HETATM   12  C15 UNK     1      -5.693  -2.800   1.582  1.00  0.00     0.018 A 
HETATM   13  O2  UNK     1      -3.211  -1.818   4.139  1.00  0.00    -0.321 OA
HETATM   14  C16 UNK     1      -5.299  -2.902   4.351  1.00  0.00     0.038 A 
HETATM   15  C17 UNK     1      -2.253  -1.244   3.336  1.00  0.00     0.159 A 
HETATM   16  C20 UNK     1      -6.461  -3.431   3.789  1.00  0.00     0.003 A 
HETATM   17  C19 UNK     1      -6.657  -3.380   2.408  1.00  0.00     0.001 A 
ENDBRANCH   6   7
ENDBRANCH   2   5
BRANCH   3  18
HETATM   18  C9  UNK     1       1.391   1.153  -2.182  1.00  0.00     0.033 A 
HETATM   19  C11 UNK     1       1.891   0.892  -3.441  1.00  0.00     0.020 A 
HETATM   20  C7  UNK     1       3.074   1.515  -3.838  1.00  0.00     0.038 A 
HETATM   21  C5  UNK     1       3.730   2.385  -2.967  1.00  0.00     0.068 A 
HETATM   22  C8  UNK     1       3.203   2.632  -1.700  1.00  0.00     0.038 A 
HETATM   23  C12 UNK     1       2.020   2.009  -1.302  1.00  0.00     0.020 A 
BRANCH  21  24
HETATM   24  O1  UNK     1       4.883   2.995  -3.355  1.00  0.00    -0.351 OA
BRANCH  24  25
HETATM   25  C2  UNK     1       5.828   3.307  -2.333  1.00  0.00     0.179 C 
BRANCH  25  26
HETATM   26  C1  UNK     1       7.247   3.283  -2.909  1.00  0.00     0.002 C 
HETATM   27  C3  UNK     1       8.275   3.523  -1.805  1.00  0.00     0.011 C 
HETATM   28  C4  UNK     1       7.413   4.316  -4.025  1.00  0.00     0.011 C 
ENDBRANCH  25  26
ENDBRANCH  24  25
ENDBRANCH  21  24
ENDBRANCH   3  18
TORSDOF 6
