REMARK  9 active torsions:
REMARK  status: ('A' for Active; 'I' for Inactive)
REMARK    1  A    between atoms: C25_34  and  S1_1 
REMARK    2  A    between atoms: C27_36  and  S1_1 
REMARK    3  A    between atoms: C12_21  and  O2_3 
REMARK    4  A    between atoms: C14_23  and  O5_6 
REMARK    5  A    between atoms: C22_31  and  O5_6 
REMARK    6  A    between atoms: C12_21  and  C2_11 
REMARK    7  A    between atoms: C11_20  and  C6_15 
REMARK    8  A    between atoms: C14_23  and  C8_17 
REMARK    9  A    between atoms: C22_31  and  C25_34 
ROOT
HETATM    1  O1  UNK     1       2.792  -0.675  -1.302  1.00  0.00    -0.292 OA
HETATM    2  N1  UNK     1      -0.728   2.069  -2.886  1.00  0.00    -0.362 N 
HETATM    3  C1  UNK     1       2.873   2.870  -2.061  1.00  0.00     0.008 C 
HETATM    4  C2  UNK     1       3.433   1.450  -2.223  1.00  0.00     0.164 C 
HETATM    5  C3  UNK     1       1.554   2.977  -2.842  1.00  0.00     0.063 C 
HETATM    6  C4  UNK     1       0.974   0.671  -2.013  1.00  0.00     0.025 C 
HETATM    7  C5  UNK     1       0.595   1.848  -2.554  1.00  0.00     0.020 C 
HETATM    8  C6  UNK     1      -0.051  -0.412  -1.682  1.00  0.00     0.104 C 
HETATM    9  C7  UNK     1       2.429   0.399  -1.779  1.00  0.00     0.172 C 
HETATM   10  C8  UNK     1      -1.429  -0.108  -2.278  1.00  0.00     0.052 C 
HETATM   11  C9  UNK     1       2.682   3.287  -0.594  1.00  0.00     0.011 C 
HETATM   12  C10 UNK     1      -1.717   1.101  -2.812  1.00  0.00     0.018 C 
HETATM   13  C13 UNK     1      -3.053   1.514  -3.367  1.00  0.00     0.069 C 
HETATM   14  H9  UNK     1      -0.971   2.963  -3.296  1.00  0.00     0.165 HD
ENDROOT
BRANCH   8  15
HETATM   15  C11 UNK     1      -0.160  -0.599  -0.189  1.00  0.00     0.029 A 
HETATM   16  C15 UNK     1      -0.621   0.545   0.638  1.00  0.00     0.194 A 
HETATM   17  O7  UNK     1      -0.912   1.627   0.147  1.00  0.00    -0.287 OA
HETATM   18  C17 UNK     1      -0.708   0.307   2.091  1.00  0.00     0.049 A 
HETATM   19  C18 UNK     1      -0.362  -0.947   2.595  1.00  0.00     0.089 A 
HETATM   20  C19 UNK     1      -1.131   1.321   2.955  1.00  0.00     0.025 A 
HETATM   21  O3  UNK     1       0.059  -1.978   1.794  1.00  0.00    -0.321 OA
HETATM   22  C21 UNK     1      -0.437  -1.194   3.967  1.00  0.00     0.039 A 
HETATM   23  C16 UNK     1       0.136  -1.742   0.443  1.00  0.00     0.154 A 
HETATM   24  C24 UNK     1      -0.859  -0.184   4.831  1.00  0.00     0.009 A 
HETATM   25  C23 UNK     1      -1.205   1.071   4.326  1.00  0.00    -0.061 A 
HETATM   26  C26 UNK     1      -1.657   2.147   5.255  1.00  0.00     0.048 C 
ENDBRANCH   8  15
BRANCH  10  27
HETATM   27  C14 UNK     1      -2.403  -1.213  -2.291  1.00  0.00     0.292 C 
HETATM   28  O6  UNK     1      -2.480  -2.024  -3.194  1.00  0.00    -0.259 OA
BRANCH  27  29
HETATM   29  O5  UNK     1      -3.145  -1.141  -1.160  1.00  0.00    -0.317 OA
BRANCH  29  30
HETATM   30  C22 UNK     1      -4.144  -2.157  -1.026  1.00  0.00     0.189 C 
BRANCH  30  31
HETATM   31  C25 UNK     1      -4.906  -1.971   0.277  1.00  0.00     0.100 C 
BRANCH  31  32
HETATM   32  S1  UNK     1      -3.799  -2.077   1.716  1.00  0.00    -0.167 SA
BRANCH  32  33
HETATM   33  C27 UNK     1      -3.678  -3.877   1.817  1.00  0.00     0.069 C 
HETATM   34  C28 UNK     1      -2.783  -4.287   2.970  1.00  0.00     0.016 C 
ENDBRANCH  32  33
ENDBRANCH  31  32
ENDBRANCH  30  31
ENDBRANCH  29  30
ENDBRANCH  27  29
ENDBRANCH  10  27
BRANCH   4  35
HETATM   35  C12 UNK     1       4.770   1.328  -1.558  1.00  0.00     0.270 C 
HETATM   36  O4  UNK     1       5.027   0.516  -0.680  1.00  0.00    -0.264 OA
BRANCH  35  37
HETATM   37  O2  UNK     1       5.627   2.250  -2.083  1.00  0.00    -0.326 OA
HETATM   38  C20 UNK     1       6.948   2.244  -1.534  1.00  0.00     0.213 C 
ENDBRANCH  35  37
ENDBRANCH   4  35
TORSDOF 9
