REMARK  4 active torsions:
REMARK  status: ('A' for Active; 'I' for Inactive)
REMARK    1  A    between atoms: C11_16  and  N1_4 
REMARK    2  A    between atoms: C8_13  and  N1_4 
REMARK    3  A    between atoms: C11_16  and  N2_5 
REMARK    4  A    between atoms: C12_17  and  N2_5 
ROOT
HETATM    1  N2  UNK     1       0.231   0.457   0.166  1.00  0.00    -0.333 N 
HETATM    2  H12 UNK     1       0.339   0.829  -0.772  1.00  0.00     0.168 HD
ENDROOT
BRANCH   1   3
HETATM    3  C11 UNK     1       1.121   1.020   1.084  1.00  0.00     0.176 C 
HETATM    4  S1  UNK     1       0.820   1.286   2.721  1.00  0.00    -0.041 SA
BRANCH   3   5
HETATM    5  N1  UNK     1       2.317   1.512   0.584  1.00  0.00    -0.333 N 
HETATM    6  H10 UNK     1       2.842   2.071   1.254  1.00  0.00     0.168 HD
BRANCH   5   7
HETATM    7  C8  UNK     1       2.826   1.554  -0.723  1.00  0.00     0.034 A 
HETATM    8  C6  UNK     1       3.733   2.554  -1.081  1.00  0.00     0.037 A 
HETATM    9  C4  UNK     1       4.214   2.569  -2.379  1.00  0.00    -0.050 A 
HETATM   10  C2  UNK     1       5.212   3.507  -2.982  1.00  0.00     0.039 C 
HETATM   11  C5  UNK     1       3.813   1.603  -3.309  1.00  0.00    -0.052 A 
HETATM   12  C1  UNK     1       4.988   3.256  -4.481  1.00  0.00     0.009 C 
HETATM   13  C3  UNK     1       4.506   1.804  -4.619  1.00  0.00     0.039 C 
HETATM   14  C7  UNK     1       2.924   0.601  -2.959  1.00  0.00     0.010 A 
HETATM   15  C9  UNK     1       2.424   0.585  -1.655  1.00  0.00     0.030 A 
ENDBRANCH   5   7
ENDBRANCH   3   5
ENDBRANCH   1   3
BRANCH   1  16
HETATM   16  C12 UNK     1      -1.030  -0.118   0.327  1.00  0.00     0.036 A 
HETATM   17  C15 UNK     1      -1.308  -0.887   1.452  1.00  0.00     0.067 A 
HETATM   18  C13 UNK     1      -2.577  -1.452   1.594  1.00  0.00     0.092 A 
HETATM   19  C10 UNK     1      -3.583  -1.273   0.643  1.00  0.00     0.004 A 
HETATM   20  O1  UNK     1      -2.799  -2.221   2.754  1.00  0.00    -0.275 OA
HETATM   21  C14 UNK     1      -4.890  -1.905   0.874  1.00  0.00    -0.043 A 
HETATM   22  C16 UNK     1      -3.283  -0.495  -0.482  1.00  0.00     0.017 A 
HETATM   23  C18 UNK     1      -5.072  -2.630   1.987  1.00  0.00     0.090 A 
HETATM   24  C19 UNK     1      -5.992  -1.731  -0.129  1.00  0.00     0.049 C 
HETATM   25  C20 UNK     1      -4.021  -2.828   2.999  1.00  0.00     0.288 A 
HETATM   26  O2  UNK     1      -4.225  -3.499   4.005  1.00  0.00    -0.260 OA
HETATM   27  C17 UNK     1      -2.016   0.078  -0.639  1.00  0.00     0.030 A 
ENDBRANCH   1  16
TORSDOF 4
