REMARK  5 active torsions:
REMARK  status: ('A' for Active; 'I' for Inactive)
REMARK    1  A    between atoms: C5_13  and  N1_6 
REMARK    2  A    between atoms: C6_14  and  N2_7 
REMARK    3  A    between atoms: C17_25  and  N3_8 
REMARK       I    between atoms: C9_17  and  N3_8 
REMARK    4  A    between atoms: C5_13  and  C7_15 
REMARK    5  A    between atoms: C6_14  and  C9_17 
ROOT
HETATM    1  N1  UNK     1       1.365  -0.061  -1.975  1.00  0.00     0.096 N 
HETATM    2  N2  UNK     1      -1.239  -1.103  -1.273  1.00  0.00     0.100 N 
HETATM    3  C1  UNK     1       0.544  -0.784  -2.954  1.00  0.00     0.303 C 
HETATM    4  C2  UNK     1       1.072  -0.531  -0.615  1.00  0.00     0.303 C 
HETATM    5  C3  UNK     1      -0.947  -0.634  -2.633  1.00  0.00     0.303 C 
HETATM    6  C4  UNK     1      -0.419  -0.379  -0.294  1.00  0.00     0.303 C 
ENDROOT
BRANCH   1   7
HETATM    7  C5  UNK     1       2.787  -0.209  -2.280  1.00  0.00     0.312 C 
BRANCH   7   8
HETATM    8  C7  UNK     1       3.612   0.853  -1.640  1.00  0.00    -0.011 A 
HETATM    9  C10 UNK     1       4.127   0.685  -0.413  1.00  0.00     0.092 A 
HETATM   10  C13 UNK     1       4.949   1.705   0.260  1.00  0.00     0.288 A 
HETATM   11  O1  UNK     1       5.178   2.880  -0.439  1.00  0.00    -0.275 OA
HETATM   12  O3  UNK     1       5.403   1.516   1.382  1.00  0.00    -0.260 OA
HETATM   13  C11 UNK     1       4.650   3.085  -1.730  1.00  0.00     0.090 A 
HETATM   14  C8  UNK     1       3.873   2.109  -2.355  1.00  0.00     0.006 A 
HETATM   15  C14 UNK     1       4.945   4.306  -2.339  1.00  0.00     0.045 A 
HETATM   16  C12 UNK     1       3.385   2.390  -3.638  1.00  0.00     0.015 A 
HETATM   17  C16 UNK     1       3.672   3.610  -4.261  1.00  0.00     0.007 A 
HETATM   18  C15 UNK     1       4.451   4.566  -3.613  1.00  0.00    -0.059 A 
HETATM   19  C18 UNK     1       4.754   5.863  -4.283  1.00  0.00     0.048 C 
ENDBRANCH   7   8
ENDBRANCH   1   7
BRANCH   2  20
HETATM   20  C6  UNK     1      -2.661  -0.958  -0.968  1.00  0.00     0.375 C 
BRANCH  20  21
HETATM   21  C9  UNK     1      -3.024  -1.870   0.191  1.00  0.00     0.250 C 
HETATM   22  O2  UNK     1      -2.442  -2.928   0.409  1.00  0.00    -0.271 OA
HETATM   23  N3  UNK     1      -4.073  -1.320   0.927  1.00  0.00    -0.326 N 
HETATM   24  H15 UNK     1      -4.454  -0.429   0.614  1.00  0.00     0.169 HD
BRANCH  23  25
HETATM   25  C17 UNK     1      -4.698  -1.860   2.076  1.00  0.00     0.036 A 
HETATM   26  C19 UNK     1      -5.742  -1.169   2.692  1.00  0.00     0.056 A 
HETATM   27  C21 UNK     1      -6.357  -1.701   3.825  1.00  0.00     0.074 A 
HETATM   28 Cl1  UNK     1      -7.645  -0.844   4.581  1.00  0.00    -0.081 Cl
HETATM   29  C23 UNK     1      -5.928  -2.924   4.342  1.00  0.00     0.138 A 
HETATM   30  C22 UNK     1      -4.884  -3.614   3.727  1.00  0.00     0.046 A 
HETATM   31  F1  UNK     1      -6.509  -3.447   5.432  1.00  0.00    -0.204 F 
HETATM   32  C20 UNK     1      -4.269  -3.082   2.593  1.00  0.00     0.032 A 
ENDBRANCH  23  25
ENDBRANCH  20  21
ENDBRANCH   2  20
TORSDOF 5
