REMARK  4 active torsions:
REMARK  status: ('A' for Active; 'I' for Inactive)
REMARK    1  A    between atoms: C12_21  and  N2_7 
REMARK    2  A    between atoms: N2_7  and  N3_8 
REMARK    3  A    between atoms: C15_24  and  N4_9 
REMARK    4  A    between atoms: C13_22  and  C18_27 
ROOT
HETATM    1  S1  UNK     1       2.221   1.018   2.804  1.00  0.00    -0.060 SA
HETATM    2  O1  UNK     1       2.042   2.320  -3.331  1.00  0.00    -0.274 OA
HETATM    3  O2  UNK     1       0.443   1.994  -1.740  1.00  0.00    -0.259 OA
HETATM    4  N1  UNK     1       1.101   0.706   0.495  1.00  0.00    -0.222 NA
HETATM    5  C1  UNK     1       4.389   2.093  -2.764  1.00  0.00    -0.001 A 
HETATM    6  C2  UNK     1       2.704   1.690  -1.043  1.00  0.00     0.070 A 
HETATM    7  C3  UNK     1       3.399   2.371  -3.697  1.00  0.00     0.089 A 
HETATM    8  C4  UNK     1       3.995   1.744  -1.410  1.00  0.00     0.034 A 
HETATM    9  C5  UNK     1       2.308   1.339   0.298  1.00  0.00     0.082 A 
HETATM   10  C6  UNK     1       5.727   2.155  -3.161  1.00  0.00     0.014 A 
HETATM   11  C7  UNK     1       1.634   2.004  -2.037  1.00  0.00     0.301 A 
HETATM   12  C8  UNK     1       3.705   2.709  -5.014  1.00  0.00     0.038 A 
HETATM   13  C9  UNK     1       6.050   2.493  -4.478  1.00  0.00     0.001 A 
HETATM   14  C10 UNK     1       5.041   2.769  -5.403  1.00  0.00     0.003 A 
HETATM   15  C11 UNK     1       3.057   1.595   1.422  1.00  0.00     0.086 A 
HETATM   16  C12 UNK     1       0.949   0.486   1.782  1.00  0.00     0.187 A 
ENDROOT
BRANCH  16  17
HETATM   17  N2  UNK     1      -0.134  -0.125   2.332  1.00  0.00    -0.255 N 
HETATM   18  H9  UNK     1      -0.156  -0.248   3.342  1.00  0.00     0.191 HD
BRANCH  17  19
HETATM   19  N3  UNK     1      -1.196  -0.585   1.619  1.00  0.00    -0.184 NA
HETATM   20  C18 UNK     1      -2.121  -1.134   2.338  1.00  0.00     0.150 C 
BRANCH  20  21
HETATM   21  C13 UNK     1      -3.347  -1.690   1.739  1.00  0.00    -0.015 A 
HETATM   22  C14 UNK     1      -4.304  -2.263   2.560  1.00  0.00     0.049 A 
HETATM   23  C15 UNK     1      -5.465  -2.788   1.992  1.00  0.00     0.103 A 
HETATM   24  C17 UNK     1      -5.653  -2.731   0.611  1.00  0.00     0.036 A 
HETATM   25  C19 UNK     1      -4.680  -2.151  -0.202  1.00  0.00     0.003 A 
HETATM   26  C16 UNK     1      -3.519  -1.626   0.366  1.00  0.00     0.013 A 
BRANCH  23  27
HETATM   27  N4  UNK     1      -6.456  -3.379   2.819  1.00  0.00    -0.116 N 
HETATM   28  O3  UNK     1      -7.494  -3.844   2.288  1.00  0.00    -0.532 OA
HETATM   29  O4  UNK     1      -6.268  -3.420   4.059  1.00  0.00    -0.532 OA
ENDBRANCH  23  27
ENDBRANCH  20  21
ENDBRANCH  17  19
ENDBRANCH  16  17
TORSDOF 4
