REMARK  4 active torsions:
REMARK  status: ('A' for Active; 'I' for Inactive)
REMARK    1  A    between atoms: C1_7  and  N1_4 
REMARK       I    between atoms: C15_21  and  N3_6 
REMARK    2  A    between atoms: C5_11  and  N3_6 
REMARK    3  A    between atoms: C1_7  and  C2_8 
REMARK    4  A    between atoms: C15_21  and  C9_15 
ROOT
HETATM    1  O2  UNK     1       0.513  -0.407  -2.673  1.00  0.00    -0.267 OA
HETATM    2  N3  UNK     1      -0.069   0.582  -0.616  1.00  0.00    -0.320 N 
HETATM    3  C15 UNK     1       0.744   0.321  -1.709  1.00  0.00     0.262 C 
HETATM    4  H7  UNK     1       0.253   1.228   0.101  1.00  0.00     0.169 HD
ENDROOT
BRANCH   2   5
HETATM    5  C5  UNK     1      -1.348   0.066  -0.369  1.00  0.00     0.071 A 
HETATM    6  C4  UNK     1      -2.117   0.343   0.713  1.00  0.00     0.143 A 
HETATM    7  N1  UNK     1      -3.260  -0.377   0.524  1.00  0.00    -0.275 N 
HETATM    8  N2  UNK     1      -3.268  -1.095  -0.612  1.00  0.00    -0.183 NA
HETATM    9  C8  UNK     1      -2.081  -0.815  -1.156  1.00  0.00     0.169 A 
BRANCH   7  10
HETATM   10  C1  UNK     1      -4.401  -0.419   1.406  1.00  0.00     0.189 C 
BRANCH  10  11
HETATM   11  C2  UNK     1      -4.267  -1.518   2.425  1.00  0.00    -0.032 A 
HETATM   12  C3  UNK     1      -4.753  -2.791   2.158  1.00  0.00    -0.054 A 
HETATM   13  C11 UNK     1      -5.421  -3.113   0.862  1.00  0.00     0.049 C 
HETATM   14  C7  UNK     1      -4.618  -3.795   3.118  1.00  0.00     0.007 A 
HETATM   15  C16 UNK     1      -3.999  -3.517   4.336  1.00  0.00     0.001 A 
HETATM   16  C12 UNK     1      -3.514  -2.235   4.595  1.00  0.00     0.001 A 
HETATM   17  C6  UNK     1      -3.649  -1.231   3.636  1.00  0.00     0.009 A 
ENDBRANCH  10  11
ENDBRANCH   7  10
ENDBRANCH   2   5
BRANCH   3  18
HETATM   18  C9  UNK     1       2.021   1.041  -1.632  1.00  0.00     0.108 A 
HETATM   19  C13 UNK     1       2.582   1.377  -2.799  1.00  0.00     0.037 A 
HETATM   20  C10 UNK     1       3.849   2.092  -2.824  1.00  0.00    -0.001 A 
HETATM   21  C14 UNK     1       4.462   2.418  -1.619  1.00  0.00     0.089 A 
HETATM   22  C18 UNK     1       4.470   2.464  -4.019  1.00  0.00     0.014 A 
HETATM   23  O1  UNK     1       3.867   2.061  -0.394  1.00  0.00    -0.274 OA
HETATM   24  C19 UNK     1       5.676   3.101  -1.574  1.00  0.00     0.038 A 
HETATM   25  C17 UNK     1       2.656   1.377  -0.337  1.00  0.00     0.304 A 
HETATM   26  O3  UNK     1       2.145   1.069   0.734  1.00  0.00    -0.259 OA
HETATM   27  C21 UNK     1       6.289   3.467  -2.770  1.00  0.00     0.003 A 
HETATM   28  C20 UNK     1       5.688   3.150  -3.990  1.00  0.00     0.001 A 
ENDBRANCH   3  18
TORSDOF 4
