REMARK  4 active torsions:
REMARK  status: ('A' for Active; 'I' for Inactive)
REMARK    1  A    between atoms: C9_15  and  O2_2 
REMARK    2  A    between atoms: C6_12  and  N1_6 
REMARK       I    between atoms: C8_14  and  N1_6 
REMARK    3  A    between atoms: C3_9  and  C8_14 
REMARK    4  A    between atoms: C13_19  and  C17_23 
ROOT
HETATM    1  O1  UNK     1       1.165   0.249  -2.773  1.00  0.00    -0.274 OA
HETATM    2  O4  UNK     1      -0.475  -1.061  -1.869  1.00  0.00    -0.259 OA
HETATM    3  C1  UNK     1       2.601   1.555  -1.309  1.00  0.00     0.002 A 
HETATM    4  C2  UNK     1       2.229   1.153  -2.588  1.00  0.00     0.089 A 
HETATM    5  C3  UNK     1       0.864   0.166  -0.347  1.00  0.00     0.108 A 
HETATM    6  C4  UNK     1       1.874   1.025  -0.166  1.00  0.00     0.037 A 
HETATM    7  C5  UNK     1       3.661   2.453  -1.166  1.00  0.00     0.051 A 
HETATM    8  C7  UNK     1       2.884   1.624  -3.724  1.00  0.00     0.041 A 
HETATM    9  C9  UNK     1       4.328   2.933  -2.297  1.00  0.00     0.069 A 
HETATM   10  C10 UNK     1       0.451  -0.275  -1.699  1.00  0.00     0.304 A 
HETATM   11  C11 UNK     1       3.940   2.519  -3.573  1.00  0.00     0.039 A 
ENDROOT
BRANCH   5  12
HETATM   12  C8  UNK     1       0.192  -0.312   0.867  1.00  0.00     0.262 C 
HETATM   13  O3  UNK     1       0.825  -0.407   1.917  1.00  0.00    -0.267 OA
HETATM   14  N1  UNK     1      -1.145  -0.608   0.643  1.00  0.00    -0.323 N 
HETATM   15  H4  UNK     1      -1.526  -0.453  -0.287  1.00  0.00     0.169 HD
BRANCH  14  16
HETATM   16  C6  UNK     1      -2.092  -1.091   1.580  1.00  0.00     0.035 A 
HETATM   17  C12 UNK     1      -3.391  -1.331   1.168  1.00  0.00     0.044 A 
HETATM   18  C13 UNK     1      -4.322  -1.807   2.091  1.00  0.00     0.011 A 
HETATM   19  C15 UNK     1      -3.940  -2.036   3.412  1.00  0.00     0.015 A 
HETATM   20  C16 UNK     1      -2.626  -1.789   3.811  1.00  0.00     0.003 A 
HETATM   21  C14 UNK     1      -1.695  -1.313   2.888  1.00  0.00     0.029 A 
BRANCH  18  22
HETATM   22  C17 UNK     1      -5.692  -2.064   1.676  1.00  0.00     0.155 C 
HETATM   23  O5  UNK     1      -6.547  -2.489   2.479  1.00  0.00    -0.293 OA
HETATM   24  C18 UNK     1      -6.118  -1.816   0.233  1.00  0.00     0.096 C 
ENDBRANCH  18  22
ENDBRANCH  14  16
ENDBRANCH   5  12
BRANCH   9  25
HETATM   25  O2  UNK     1       5.361   3.809  -2.154  1.00  0.00    -0.356 OA
HETATM   26  C19 UNK     1       6.000   4.260  -3.347  1.00  0.00     0.210 C 
ENDBRANCH   9  25
TORSDOF 4
