REMARK  6 active torsions:
REMARK  status: ('A' for Active; 'I' for Inactive)
REMARK    1  A    between atoms: C10_18  and  O2_4 
REMARK    2  A    between atoms: C22_30  and  O2_4 
REMARK    3  A    between atoms: C3_11  and  N1_8 
REMARK       I    between atoms: C8_16  and  N1_8 
REMARK    4  A    between atoms: C1_9  and  C4_12 
REMARK    5  A    between atoms: C10_18  and  C2_10 
REMARK    6  A    between atoms: C6_14  and  C8_16 
ROOT
HETATM    1  S1  UNK     1       0.441   0.345   2.560  1.00  0.00    -0.082 SA
HETATM    2  C1  UNK     1      -1.785  -0.860   2.119  1.00  0.00    -0.000 A 
HETATM    3  C2  UNK     1      -1.269  -0.503   0.840  1.00  0.00     0.085 A 
HETATM    4  C3  UNK     1      -0.081   0.147   0.955  1.00  0.00     0.094 A 
HETATM    5  C5  UNK     1      -0.954  -0.459   3.142  1.00  0.00     0.065 A 
ENDROOT
BRANCH   4   6
HETATM    6  N1  UNK     1       0.765   0.669  -0.027  1.00  0.00    -0.316 N 
HETATM    7  C8  UNK     1       1.969   1.323   0.194  1.00  0.00     0.262 C 
HETATM    8  O3  UNK     1       2.524   1.570   1.263  1.00  0.00    -0.267 OA
HETATM    9  H2  UNK     1       0.443   0.520  -0.980  1.00  0.00     0.169 HD
BRANCH   7  10
HETATM   10  C6  UNK     1       2.602   1.743  -1.062  1.00  0.00     0.108 A 
HETATM   11  C14 UNK     1       1.810   2.090  -2.263  1.00  0.00     0.304 A 
HETATM   12  O1  UNK     1       2.525   2.475  -3.394  1.00  0.00    -0.274 OA
HETATM   13  O5  UNK     1       0.585   2.044  -2.267  1.00  0.00    -0.259 OA
HETATM   14  C11 UNK     1       3.932   2.532  -3.400  1.00  0.00     0.089 A 
HETATM   15  C7  UNK     1       4.658   2.201  -2.260  1.00  0.00    -0.001 A 
HETATM   16  C18 UNK     1       4.559   2.929  -4.580  1.00  0.00     0.038 A 
HETATM   17  C15 UNK     1       6.052   2.270  -2.306  1.00  0.00     0.014 A 
HETATM   18  C9  UNK     1       3.940   1.795  -1.062  1.00  0.00     0.037 A 
HETATM   19  C20 UNK     1       6.696   2.666  -3.482  1.00  0.00     0.001 A 
HETATM   20  C21 UNK     1       5.950   2.995  -4.616  1.00  0.00     0.003 A 
ENDBRANCH   7  10
ENDBRANCH   4   6
BRANCH   3  21
HETATM   21  C10 UNK     1      -1.900  -0.780  -0.427  1.00  0.00     0.297 C 
HETATM   22  O4  UNK     1      -1.422  -0.454  -1.523  1.00  0.00    -0.259 OA
BRANCH  21  23
HETATM   23  O2  UNK     1      -3.100  -1.449  -0.318  1.00  0.00    -0.318 OA
BRANCH  23  24
HETATM   24  C22 UNK     1      -3.782  -1.756  -1.539  1.00  0.00     0.174 C 
HETATM   25  C23 UNK     1      -5.069  -2.484  -1.216  1.00  0.00     0.034 C 
ENDBRANCH  23  24
ENDBRANCH  21  23
ENDBRANCH   3  21
BRANCH   2  26
HETATM   26  C4  UNK     1      -3.012  -1.555   2.411  1.00  0.00    -0.024 A 
HETATM   27  C12 UNK     1      -4.186  -0.833   2.610  1.00  0.00     0.015 A 
HETATM   28  C16 UNK     1      -5.375  -1.505   2.893  1.00  0.00     0.043 A 
HETATM   29  C19 UNK     1      -5.386  -2.898   2.975  1.00  0.00     0.116 A 
HETATM   30  C17 UNK     1      -4.208  -3.618   2.775  1.00  0.00     0.043 A 
HETATM   31  F1  UNK     1      -6.528  -3.544   3.247  1.00  0.00    -0.206 F 
HETATM   32  C13 UNK     1      -3.019  -2.945   2.492  1.00  0.00     0.015 A 
ENDBRANCH   2  26
TORSDOF 6
