REMARK  1 active torsions:
REMARK  status: ('A' for Active; 'I' for Inactive)
REMARK       I    between atoms: C5_9  and  N1_4 
REMARK    1  A    between atoms: C5_9  and  C6_10 
ROOT
HETATM    1  O2  UNK     1       0.763   0.008  -2.325  1.00  0.00    -0.274 OA
HETATM    2  O3  UNK     1      -1.350  -0.859  -2.310  1.00  0.00    -0.259 OA
HETATM    3  C6  UNK     1      -0.717   0.427  -0.424  1.00  0.00     0.108 A 
HETATM    4  C7  UNK     1       0.229   1.151   0.188  1.00  0.00     0.037 A 
HETATM    5  C8  UNK     1       1.525   1.346  -0.443  1.00  0.00    -0.001 A 
HETATM    6  C9  UNK     1      -0.486  -0.196  -1.746  1.00  0.00     0.304 A 
HETATM    7  C10 UNK     1       1.762   0.769  -1.687  1.00  0.00     0.089 A 
HETATM    8  C11 UNK     1       2.541   2.093   0.158  1.00  0.00     0.014 A 
HETATM    9  C12 UNK     1       2.982   0.919  -2.344  1.00  0.00     0.038 A 
HETATM   10  C13 UNK     1       3.769   2.252  -0.489  1.00  0.00     0.001 A 
HETATM   11  C14 UNK     1       3.989   1.666  -1.738  1.00  0.00     0.003 A 
ENDROOT
BRANCH   3  12
HETATM   12  C5  UNK     1      -1.998   0.287   0.296  1.00  0.00     0.259 C 
HETATM   13  O1  UNK     1      -2.880   1.123   0.104  1.00  0.00    -0.267 OA
HETATM   14  N1  UNK     1      -2.112  -0.791   1.151  1.00  0.00    -0.348 N 
HETATM   15  C3  UNK     1      -1.112  -1.821   1.429  1.00  0.00     0.126 C 
HETATM   16  C4  UNK     1      -3.326  -1.029   1.921  1.00  0.00     0.126 C 
HETATM   17  C1  UNK     1      -1.860  -2.874   2.236  1.00  0.00     0.021 C 
HETATM   18  C2  UNK     1      -2.921  -2.060   2.963  1.00  0.00     0.021 C 
ENDBRANCH   3  12
TORSDOF 1
