REMARK  5 active torsions:
REMARK  status: ('A' for Active; 'I' for Inactive)
REMARK    1  A    between atoms: C11_17  and  O2_2 
REMARK    2  A    between atoms: C13_19  and  O3_3 
REMARK    3  A    between atoms: C12_18  and  O4_4 
REMARK    4  A    between atoms: C18_24  and  O4_4 
REMARK    5  A    between atoms: C1_7  and  C3_9 
ROOT
HETATM    1  O1  UNK     1       2.078  -0.453   0.025  1.00  0.00    -0.274 OA
HETATM    2  O5  UNK     1       0.996  -1.741   1.565  1.00  0.00    -0.259 OA
HETATM    3  C1  UNK     1      -0.376  -0.548   0.031  1.00  0.00     0.051 A 
HETATM    4  C2  UNK     1       0.802   0.845  -1.581  1.00  0.00    -0.001 A 
HETATM    5  C4  UNK     1      -0.419   0.308  -1.002  1.00  0.00     0.032 A 
HETATM    6  C5  UNK     1       2.025   0.449  -1.054  1.00  0.00     0.092 A 
HETATM    7  C6  UNK     1       0.927  -0.974   0.610  1.00  0.00     0.299 A 
HETATM    8  C8  UNK     1       0.788   1.743  -2.651  1.00  0.00     0.017 A 
HETATM    9  C10 UNK     1       3.232   0.922  -1.564  1.00  0.00     0.075 A 
HETATM   10  C12 UNK     1       3.210   1.818  -2.631  1.00  0.00     0.081 A 
HETATM   11  C14 UNK     1       1.990   2.228  -3.173  1.00  0.00     0.038 A 
ENDROOT
BRANCH   3  12
HETATM   12  C3  UNK     1      -1.641  -1.077   0.574  1.00  0.00    -0.017 A 
HETATM   13  C7  UNK     1      -2.296  -0.400   1.602  1.00  0.00     0.052 A 
HETATM   14  C11 UNK     1      -3.492  -0.901   2.116  1.00  0.00     0.102 A 
HETATM   15  C13 UNK     1      -4.033  -2.079   1.600  1.00  0.00     0.101 A 
HETATM   16  C15 UNK     1      -3.377  -2.756   0.572  1.00  0.00     0.040 A 
HETATM   17  C9  UNK     1      -2.181  -2.255   0.058  1.00  0.00     0.015 A 
BRANCH  14  18
HETATM   18  O2  UNK     1      -4.124  -0.231   3.120  1.00  0.00    -0.353 OA
HETATM   19  C16 UNK     1      -3.774  -0.586   4.456  1.00  0.00     0.210 C 
ENDBRANCH  14  18
BRANCH  15  20
HETATM   20  O3  UNK     1      -5.201  -2.578   2.093  1.00  0.00    -0.353 OA
HETATM   21  C17 UNK     1      -6.407  -2.142   1.468  1.00  0.00     0.210 C 
ENDBRANCH  15  20
ENDBRANCH   3  12
BRANCH  10  22
HETATM   22  O4  UNK     1       4.377   2.293  -3.145  1.00  0.00    -0.279 OA
BRANCH  22  23
HETATM   23  C18 UNK     1       4.832   3.475  -2.538  1.00  0.00     0.260 C 
HETATM   24  O6  UNK     1       4.275   4.072  -1.626  1.00  0.00    -0.265 OA
HETATM   25  C19 UNK     1       6.118   3.916  -3.172  1.00  0.00     0.126 C 
ENDBRANCH  22  23
ENDBRANCH  10  22
TORSDOF 5
