REMARK  3 active torsions:
REMARK  status: ('A' for Active; 'I' for Inactive)
REMARK    1  A    between atoms: C7_11  and  O2_2 
REMARK    2  A    between atoms: C8_12  and  O3_3 
REMARK    3  A    between atoms: C10_14  and  C3_7 
ROOT
HETATM    1  O1  UNK     1       0.386  -0.148   1.444  1.00  0.00    -0.309 OA
HETATM    2  O4  UNK     1      -0.318  -1.719  -2.249  1.00  0.00    -0.287 OA
HETATM    3  C1  UNK     1       0.408  -2.079  -0.029  1.00  0.00     0.051 A 
HETATM    4  C2  UNK     1       0.629  -1.478   1.209  1.00  0.00     0.093 A 
HETATM    5  C3  UNK     1      -0.108   0.627   0.406  1.00  0.00     0.090 A 
HETATM    6  C4  UNK     1       0.674  -3.438  -0.211  1.00  0.00     0.058 A 
HETATM    7  C5  UNK     1      -0.106  -1.258  -1.136  1.00  0.00     0.187 A 
HETATM    8  C6  UNK     1       1.118  -2.234   2.274  1.00  0.00     0.077 A 
HETATM    9  C7  UNK     1       1.163  -4.192   0.856  1.00  0.00     0.102 A 
HETATM   10  C8  UNK     1       1.384  -3.592   2.096  1.00  0.00     0.104 A 
HETATM   11  C9  UNK     1      -0.354   0.166  -0.831  1.00  0.00     0.093 A 
ENDROOT
BRANCH   5  12
HETATM   12  C10 UNK     1      -0.328   2.042   0.766  1.00  0.00    -0.002 A 
HETATM   13  C11 UNK     1      -1.568   2.456   1.259  1.00  0.00     0.014 A 
HETATM   14  C13 UNK     1      -1.776   3.793   1.600  1.00  0.00     0.001 A 
HETATM   15  C15 UNK     1      -0.744   4.720   1.448  1.00  0.00     0.000 A 
HETATM   16  C14 UNK     1       0.495   4.310   0.956  1.00  0.00     0.001 A 
HETATM   17  C12 UNK     1       0.703   2.974   0.615  1.00  0.00     0.014 A 
ENDBRANCH   5  12
BRANCH  10  18
HETATM   18  O3  UNK     1       1.862  -4.322   3.143  1.00  0.00    -0.353 OA
HETATM   19  C17 UNK     1       0.900  -4.949   3.988  1.00  0.00     0.210 C 
ENDBRANCH  10  18
BRANCH   9  20
HETATM   20  O2  UNK     1       1.421  -5.518   0.675  1.00  0.00    -0.353 OA
HETATM   21  C16 UNK     1       1.168  -6.056  -0.621  1.00  0.00     0.210 C 
ENDBRANCH   9  20
TORSDOF 3
