REMARK  5 active torsions:
REMARK  status: ('A' for Active; 'I' for Inactive)
REMARK    1  A    between atoms: C14_21  and  N1_6 
REMARK       I    between atoms: C17_24  and  N1_6 
REMARK    2  A    between atoms: C1_8  and  C2_9 
REMARK    3  A    between atoms: C1_8  and  C3_10 
REMARK    4  A    between atoms: C5_12  and  C8_15 
REMARK    5  A    between atoms: C16_23  and  C17_24 
ROOT
HETATM    1  S1  UNK     1      -1.622   0.040  -1.935  1.00  0.00    -0.075 SA
HETATM    2  N2  UNK     1       0.167  -0.259   2.822  1.00  0.00    -0.191 NA
HETATM    3  C8  UNK     1      -2.397  -0.838   0.352  1.00  0.00     0.011 A 
HETATM    4  C12 UNK     1      -2.806  -0.718  -0.958  1.00  0.00    -0.006 A 
HETATM    5  C13 UNK     1      -1.093  -0.300   0.556  1.00  0.00     0.090 A 
HETATM    6  C14 UNK     1      -0.597   0.189  -0.596  1.00  0.00     0.099 A 
HETATM    7  C15 UNK     1      -4.078  -1.142  -1.590  1.00  0.00     0.057 C 
HETATM    8  C20 UNK     1      -0.397  -0.277   1.807  1.00  0.00     0.103 C 
ENDROOT
BRANCH   3   9
HETATM    9  C5  UNK     1      -3.254  -1.451   1.338  1.00  0.00    -0.023 A 
HETATM   10  C10 UNK     1      -3.180  -2.822   1.560  1.00  0.00     0.013 A 
HETATM   11  C7  UNK     1      -4.008  -3.415   2.513  1.00  0.00     0.008 A 
HETATM   12  C2  UNK     1      -4.906  -2.633   3.239  1.00  0.00    -0.054 A 
HETATM   13  C6  UNK     1      -4.976  -1.258   3.013  1.00  0.00     0.008 A 
HETATM   14  C9  UNK     1      -4.148  -0.666   2.059  1.00  0.00     0.013 A 
BRANCH  12  15
HETATM   15  C1  UNK     1      -5.792  -3.266   4.258  1.00  0.00     0.014 C 
HETATM   16  C4  UNK     1      -4.978  -3.895   5.408  1.00  0.00     0.015 C 
BRANCH  15  17
HETATM   17  C3  UNK     1      -6.751  -4.348   3.688  1.00  0.00     0.004 C 
HETATM   18  C11 UNK     1      -7.657  -3.809   2.588  1.00  0.00     0.006 C 
ENDBRANCH  15  17
ENDBRANCH  12  15
ENDBRANCH   3   9
BRANCH   6  19
HETATM   19  N1  UNK     1       0.648   0.809  -0.862  1.00  0.00    -0.316 N 
HETATM   20  C17 UNK     1       1.109   1.298  -2.076  1.00  0.00     0.262 C 
HETATM   21  O2  UNK     1       0.534   1.293  -3.164  1.00  0.00    -0.267 OA
HETATM   22  H17 UNK     1       1.252   0.867  -0.046  1.00  0.00     0.170 HD
BRANCH  20  23
HETATM   23  C16 UNK     1       2.453   1.877  -1.967  1.00  0.00     0.108 A 
HETATM   24  C19 UNK     1       3.220   1.802  -3.061  1.00  0.00     0.037 A 
HETATM   25  C18 UNK     1       4.569   2.349  -3.049  1.00  0.00     0.001 A 
HETATM   26  C21 UNK     1       5.043   2.947  -1.886  1.00  0.00     0.089 A 
HETATM   27  C23 UNK     1       5.404   2.293  -4.167  1.00  0.00     0.038 A 
HETATM   28  O1  UNK     1       4.230   3.022  -0.738  1.00  0.00    -0.274 OA
HETATM   29  C24 UNK     1       6.324   3.488  -1.809  1.00  0.00     0.040 A 
HETATM   30  C22 UNK     1       2.936   2.508  -0.718  1.00  0.00     0.304 A 
HETATM   31  O3  UNK     1       2.236   2.578   0.286  1.00  0.00    -0.259 OA
HETATM   32  C26 UNK     1       7.151   3.429  -2.928  1.00  0.00     0.026 A 
HETATM   33  C25 UNK     1       6.693   2.832  -4.105  1.00  0.00     0.035 A 
HETATM   34 Cl1  UNK     1       7.719   2.762  -5.486  1.00  0.00    -0.084 Cl
ENDBRANCH  20  23
ENDBRANCH   6  19
TORSDOF 5
