REMARK  4 active torsions:
REMARK  status: ('A' for Active; 'I' for Inactive)
REMARK    1  A    between atoms: C9_14  and  O3_3 
REMARK    2  A    between atoms: C10_15  and  O4_4 
REMARK    3  A    between atoms: C13_18  and  O5_5 
REMARK    4  A    between atoms: C3_8  and  C4_9 
ROOT
HETATM    1  O1  UNK     1       0.030   0.600   0.331  1.00  0.00    -0.309 OA
HETATM    2  O2  UNK     1      -2.350  -1.735  -2.010  1.00  0.00    -0.287 OA
HETATM    3  C1  UNK     1      -1.912  -0.846   0.135  1.00  0.00     0.051 A 
HETATM    4  C2  UNK     1      -1.056  -0.035   0.879  1.00  0.00     0.093 A 
HETATM    5  C3  UNK     1       0.280   0.433  -1.022  1.00  0.00     0.090 A 
HETATM    6  C5  UNK     1      -1.644  -1.034  -1.299  1.00  0.00     0.187 A 
HETATM    7  C6  UNK     1      -0.465  -0.327  -1.840  1.00  0.00     0.093 A 
HETATM    8  C7  UNK     1      -3.003  -1.470   0.746  1.00  0.00     0.057 A 
HETATM    9  C8  UNK     1      -1.287   0.158   2.241  1.00  0.00     0.077 A 
HETATM   10  C9  UNK     1      -3.231  -1.275   2.108  1.00  0.00     0.099 A 
HETATM   11  C10 UNK     1      -2.376  -0.463   2.854  1.00  0.00     0.101 A 
ENDROOT
BRANCH   5  12
HETATM   12  C4  UNK     1       1.474   1.155  -1.505  1.00  0.00     0.001 A 
HETATM   13  C11 UNK     1       1.858   2.357  -0.906  1.00  0.00     0.050 A 
HETATM   14  C13 UNK     1       2.986   3.039  -1.363  1.00  0.00     0.066 A 
HETATM   15  C15 UNK     1       3.733   2.521  -2.421  1.00  0.00     0.036 A 
HETATM   16  C14 UNK     1       3.352   1.321  -3.022  1.00  0.00     0.004 A 
HETATM   17  C12 UNK     1       2.225   0.639  -2.565  1.00  0.00     0.014 A 
BRANCH  14  18
HETATM   18  O5  UNK     1       3.357   4.211  -0.779  1.00  0.00    -0.361 OA
HETATM   19  H10 UNK     1       4.157   4.544  -1.221  1.00  0.00     0.217 HD
ENDBRANCH  14  18
ENDBRANCH   5  12
BRANCH  11  20
HETATM   20  O4  UNK     1      -2.593  -0.269   4.185  1.00  0.00    -0.358 OA
HETATM   21  H9  UNK     1      -1.902   0.319   4.537  1.00  0.00     0.217 HD
ENDBRANCH  11  20
BRANCH  10  22
HETATM   22  O3  UNK     1      -4.296  -1.884   2.701  1.00  0.00    -0.358 OA
HETATM   23  H8  UNK     1      -4.302  -1.641   3.643  1.00  0.00     0.217 HD
ENDBRANCH  10  22
TORSDOF 4
