REMARK  3 active torsions:
REMARK  status: ('A' for Active; 'I' for Inactive)
REMARK    1  A    between atoms: C2_7  and  N1_5 
REMARK       I    between atoms: C7_12  and  N1_5 
REMARK    2  A    between atoms: C2_7  and  C4_9 
REMARK    3  A    between atoms: C3_8  and  C7_12 
ROOT
HETATM    1  O2  UNK     1       1.267   0.286   1.557  1.00  0.00    -0.267 OA
HETATM    2  N1  UNK     1       0.387   1.779  -0.002  1.00  0.00    -0.352 N 
HETATM    3  C7  UNK     1       0.362   0.663   0.815  1.00  0.00     0.258 C 
HETATM    4  H4  UNK     1      -0.421   2.016  -0.570  1.00  0.00     0.163 HD
ENDROOT
BRANCH   3   5
HETATM    5  C3  UNK     1      -0.900  -0.081   0.727  1.00  0.00     0.108 A 
HETATM    6  C6  UNK     1      -1.278  -0.737   1.831  1.00  0.00     0.037 A 
HETATM    7  C1  UNK     1      -2.515  -1.502   1.842  1.00  0.00    -0.001 A 
HETATM    8  C5  UNK     1      -3.292  -1.541   0.689  1.00  0.00     0.089 A 
HETATM    9  C8  UNK     1      -2.948  -2.201   2.971  1.00  0.00     0.014 A 
HETATM   10  C10 UNK     1      -4.487  -2.256   0.633  1.00  0.00     0.038 A 
HETATM   11  O1  UNK     1      -2.889  -0.849  -0.470  1.00  0.00    -0.274 OA
HETATM   12  C14 UNK     1      -4.912  -2.950   1.764  1.00  0.00     0.003 A 
HETATM   13  C13 UNK     1      -4.145  -2.923   2.930  1.00  0.00     0.001 A 
HETATM   14  C9  UNK     1      -1.712  -0.107  -0.510  1.00  0.00     0.304 A 
HETATM   15  O3  UNK     1      -1.369   0.492  -1.524  1.00  0.00    -0.259 OA
ENDBRANCH   3   5
BRANCH   2  16
HETATM   16  C2  UNK     1       1.522   2.670  -0.085  1.00  0.00     0.161 C 
BRANCH  16  17
HETATM   17  C4  UNK     1       2.492   2.244  -1.155  1.00  0.00    -0.040 A 
HETATM   18  C11 UNK     1       3.523   1.373  -0.834  1.00  0.00     0.012 A 
HETATM   19  C15 UNK     1       4.422   0.979  -1.826  1.00  0.00     0.043 A 
HETATM   20  C17 UNK     1       4.280   1.460  -3.127  1.00  0.00     0.116 A 
HETATM   21  C16 UNK     1       3.239   2.335  -3.438  1.00  0.00     0.043 A 
HETATM   22  F1  UNK     1       5.143   1.081  -4.079  1.00  0.00    -0.206 F 
HETATM   23  C12 UNK     1       2.341   2.729  -2.446  1.00  0.00     0.012 A 
ENDBRANCH  16  17
ENDBRANCH   2  16
TORSDOF 3
