REMARK  3 active torsions:
REMARK  status: ('A' for Active; 'I' for Inactive)
REMARK       I    between atoms: C11_15  and  N1_4 
REMARK    1  A    between atoms: C3_7  and  N1_4 
REMARK    2  A    between atoms: C1_5  and  C2_6 
REMARK    3  A    between atoms: C11_15  and  C9_13 
ROOT
HETATM    1  O2  UNK     1       0.815   0.101   2.059  1.00  0.00    -0.267 OA
HETATM    2  N1  UNK     1      -1.050  -0.155   0.643  1.00  0.00    -0.322 N 
HETATM    3  C11 UNK     1       0.243   0.224   0.977  1.00  0.00     0.262 C 
HETATM    4  H9  UNK     1      -1.294  -0.083  -0.336  1.00  0.00     0.169 HD
ENDROOT
BRANCH   3   5
HETATM    5  C9  UNK     1       0.949   0.839  -0.154  1.00  0.00     0.108 A 
HETATM    6  C13 UNK     1       2.277   0.676  -0.181  1.00  0.00     0.037 A 
HETATM    7  C12 UNK     1       3.064   1.248  -1.262  1.00  0.00    -0.001 A 
HETATM    8  C16 UNK     1       4.452   1.103  -1.331  1.00  0.00     0.014 A 
HETATM    9  C14 UNK     1       2.414   1.965  -2.262  1.00  0.00     0.089 A 
HETATM   10  C18 UNK     1       5.163   1.673  -2.391  1.00  0.00     0.001 A 
HETATM   11  C19 UNK     1       4.493   2.389  -3.385  1.00  0.00     0.003 A 
HETATM   12  C17 UNK     1       3.109   2.539  -3.324  1.00  0.00     0.038 A 
HETATM   13  O1  UNK     1       1.015   2.133  -2.228  1.00  0.00    -0.274 OA
HETATM   14  C15 UNK     1       0.236   1.597  -1.207  1.00  0.00     0.304 A 
HETATM   15  O3  UNK     1      -0.981   1.749  -1.185  1.00  0.00    -0.259 OA
ENDBRANCH   3   5
BRANCH   2  16
HETATM   16  C3  UNK     1      -2.011  -0.774   1.479  1.00  0.00     0.041 A 
HETATM   17  C2  UNK     1      -2.960  -1.626   0.937  1.00  0.00    -0.028 A 
HETATM   18  C6  UNK     1      -3.898  -2.226   1.777  1.00  0.00     0.010 A 
HETATM   19  C8  UNK     1      -3.875  -1.967   3.147  1.00  0.00     0.001 A 
HETATM   20  C10 UNK     1      -2.913  -1.107   3.678  1.00  0.00     0.002 A 
HETATM   21  C7  UNK     1      -1.975  -0.506   2.838  1.00  0.00     0.030 A 
BRANCH  17  22
HETATM   22  C1  UNK     1      -3.008  -1.923  -0.527  1.00  0.00     0.013 C 
HETATM   23  C4  UNK     1      -4.326  -1.460  -1.175  1.00  0.00     0.015 C 
HETATM   24  C5  UNK     1      -2.769  -3.412  -0.831  1.00  0.00     0.015 C 
ENDBRANCH  17  22
ENDBRANCH   2  16
TORSDOF 3
