REMARK  3 active torsions:
REMARK  status: ('A' for Active; 'I' for Inactive)
REMARK    1  A    between atoms: C16_21  and  O3_3 
REMARK       I    between atoms: C10_15  and  N1_5 
REMARK    2  A    between atoms: C8_13  and  N1_5 
REMARK    3  A    between atoms: C10_15  and  C11_16 
ROOT
HETATM    1  O1  UNK     1       1.502   1.640  -2.406  1.00  0.00    -0.271 OA
HETATM    2  O4  UNK     1      -0.669   0.992  -2.112  1.00  0.00    -0.259 OA
HETATM    3  C11 UNK     1       0.763   0.789  -0.236  1.00  0.00     0.108 A 
HETATM    4  C12 UNK     1       3.065   1.475  -0.552  1.00  0.00     0.002 A 
HETATM    5  C13 UNK     1       1.990   0.949   0.275  1.00  0.00     0.037 A 
HETATM    6  C14 UNK     1       2.795   1.809  -1.875  1.00  0.00     0.123 A 
HETATM    7  C15 UNK     1       0.454   1.137  -1.641  1.00  0.00     0.304 A 
HETATM    8  C16 UNK     1       3.780   2.319  -2.719  1.00  0.00     0.102 A 
HETATM    9  C17 UNK     1       4.360   1.657  -0.061  1.00  0.00     0.014 A 
HETATM   10  C18 UNK     1       5.069   2.498  -2.221  1.00  0.00     0.040 A 
HETATM   11  C19 UNK     1       5.359   2.168  -0.895  1.00  0.00     0.004 A 
ENDROOT
BRANCH   3  12
HETATM   12  C10 UNK     1      -0.261   0.247   0.682  1.00  0.00     0.262 C 
HETATM   13  O2  UNK     1      -0.174   0.479   1.882  1.00  0.00    -0.267 OA
HETATM   14  N1  UNK     1      -1.237  -0.495   0.013  1.00  0.00    -0.323 N 
HETATM   15  H10 UNK     1      -1.143  -0.605  -0.994  1.00  0.00     0.169 HD
BRANCH  14  16
HETATM   16  C8  UNK     1      -2.343  -1.146   0.561  1.00  0.00     0.035 A 
HETATM   17  C6  UNK     1      -2.570  -1.086   1.938  1.00  0.00     0.037 A 
HETATM   18  C4  UNK     1      -3.674  -1.746   2.451  1.00  0.00    -0.050 A 
HETATM   19  C2  UNK     1      -4.142  -1.794   3.871  1.00  0.00     0.039 C 
HETATM   20  C5  UNK     1      -4.550  -2.446   1.613  1.00  0.00    -0.052 A 
HETATM   21  C1  UNK     1      -5.118  -2.979   3.822  1.00  0.00     0.009 C 
HETATM   22  C3  UNK     1      -5.685  -3.027   2.395  1.00  0.00     0.039 C 
HETATM   23  C7  UNK     1      -4.340  -2.501   0.245  1.00  0.00     0.010 A 
HETATM   24  C9  UNK     1      -3.222  -1.849  -0.279  1.00  0.00     0.030 A 
ENDBRANCH  14  16
ENDBRANCH   3  12
BRANCH   8  25
HETATM   25  O3  UNK     1       3.503   2.642  -4.010  1.00  0.00    -0.353 OA
HETATM   26  C20 UNK     1       3.672   1.616  -4.988  1.00  0.00     0.210 C 
ENDBRANCH   8  25
TORSDOF 3
