REMARK  3 active torsions:
REMARK  status: ('A' for Active; 'I' for Inactive)
REMARK    1  A    between atoms: C12_17  and  O2_2 
REMARK    2  A    between atoms: C2_7  and  O2_2 
REMARK    3  A    between atoms: C12_17  and  C14_19 
ROOT
HETATM    1  O1  UNK     1       0.840  -0.705   1.691  1.00  0.00    -0.338 OA
HETATM    2  O3  UNK     1       3.553   0.778  -1.900  1.00  0.00    -0.275 OA
HETATM    3  O5  UNK     1       4.887   1.483  -3.624  1.00  0.00    -0.260 OA
HETATM    4  C1  UNK     1      -0.228  -0.459   2.627  1.00  0.00     0.087 C 
HETATM    5  C2  UNK     1      -1.524  -0.014   1.919  1.00  0.00     0.170 C 
HETATM    6  C3  UNK     1      -1.298   1.218   1.049  1.00  0.00     0.077 C 
HETATM    7  C4  UNK     1      -0.015   1.096   0.275  1.00  0.00    -0.021 A 
HETATM    8  C5  UNK     1      -0.450  -1.794   3.358  1.00  0.00     0.049 C 
HETATM    9  C6  UNK     1       0.251   0.577   3.658  1.00  0.00     0.049 C 
HETATM   10  C7  UNK     1       0.964   0.162   0.639  1.00  0.00     0.079 A 
HETATM   11  C8  UNK     1       0.218   1.951  -0.816  1.00  0.00     0.024 A 
HETATM   12  C9  UNK     1       2.145   0.057  -0.099  1.00  0.00     0.075 A 
HETATM   13  C10 UNK     1       1.402   1.858  -1.551  1.00  0.00    -0.001 A 
HETATM   14  C11 UNK     1       2.347   0.908  -1.182  1.00  0.00     0.092 A 
HETATM   15  C13 UNK     1       1.679   2.717  -2.689  1.00  0.00     0.020 A 
HETATM   16  C15 UNK     1       2.824   2.590  -3.364  1.00  0.00     0.083 A 
HETATM   17  C16 UNK     1       3.841   1.589  -2.993  1.00  0.00     0.288 A 
ENDROOT
BRANCH   5  18
HETATM   18  O2  UNK     1      -2.010  -1.076   1.092  1.00  0.00    -0.309 OA
BRANCH  18  19
HETATM   19  C12 UNK     1      -3.161  -0.815   0.412  1.00  0.00     0.289 C 
HETATM   20  O4  UNK     1      -4.056  -0.067   0.778  1.00  0.00    -0.260 OA
BRANCH  19  21
HETATM   21  C14 UNK     1      -3.171  -1.592  -0.864  1.00  0.00     0.009 C 
HETATM   22  C17 UNK     1      -2.620  -0.942  -2.098  1.00  0.00     0.054 C 
HETATM   23  C18 UNK     1      -3.715  -2.822  -0.799  1.00  0.00    -0.018 C 
HETATM   24  C19 UNK     1      -4.304  -3.488   0.404  1.00  0.00     0.036 C 
ENDBRANCH  19  21
ENDBRANCH  18  19
ENDBRANCH   5  18
TORSDOF 3
