REMARK  5 active torsions:
REMARK  status: ('A' for Active; 'I' for Inactive)
REMARK    1  A    between atoms: C11_16  and  O2_3 
REMARK    2  A    between atoms: C7_12  and  N1_5 
REMARK    3  A    between atoms: C1_6  and  C6_11 
REMARK    4  A    between atoms: C7_12  and  C8_13 
REMARK    5  A    between atoms: C16_21  and  C18_23 
ROOT
HETATM    1  O1  UNK     1       0.746  -0.362   0.919  1.00  0.00    -0.320 OA
HETATM    2  O3  UNK     1      -0.092  -3.539  -1.500  1.00  0.00    -0.286 OA
HETATM    3  C8  UNK     1      -0.016   1.163  -0.716  1.00  0.00     0.038 A 
HETATM    4  C10 UNK     1       0.221  -0.157  -0.331  1.00  0.00     0.100 A 
HETATM    5  C11 UNK     1      -0.549   1.433  -1.976  1.00  0.00     0.076 A 
HETATM    6  C12 UNK     1      -0.074  -1.203  -1.205  1.00  0.00     0.050 A 
HETATM    7  C13 UNK     1      -0.844   0.386  -2.850  1.00  0.00     0.038 A 
HETATM    8  C14 UNK     1      -0.608  -0.935  -2.468  1.00  0.00     0.021 A 
HETATM    9  C15 UNK     1       0.181  -2.591  -0.775  1.00  0.00     0.197 A 
HETATM   10  C16 UNK     1       0.769  -2.767   0.581  1.00  0.00     0.048 A 
HETATM   11  C17 UNK     1       0.999  -1.657   1.300  1.00  0.00     0.159 A 
ENDROOT
BRANCH   3  12
HETATM   12  C7  UNK     1       0.298   2.292   0.216  1.00  0.00     0.317 C 
BRANCH  12  13
HETATM   13  N1  UNK     1      -0.167   2.024   1.580  1.00  0.00     0.097 N 
HETATM   14  C1  UNK     1       0.218   3.091   2.532  1.00  0.00     0.223 C 
HETATM   15  C2  UNK     1      -0.286   2.752   3.949  1.00  0.00     0.036 C 
HETATM   16  C4  UNK     1      -1.789   2.507   3.975  1.00  0.00     0.004 C 
HETATM   17  C5  UNK     1      -2.166   1.456   2.942  1.00  0.00     0.030 C 
HETATM   18  C3  UNK     1      -1.627   1.827   1.563  1.00  0.00     0.273 C 
BRANCH  14  19
HETATM   19  C6  UNK     1       1.737   3.302   2.602  1.00  0.00     0.031 C 
HETATM   20  C9  UNK     1       2.440   2.045   3.067  1.00  0.00     0.007 C 
ENDBRANCH  14  19
ENDBRANCH  12  13
ENDBRANCH   3  12
BRANCH   5  21
HETATM   21  O2  UNK     1      -0.789   2.715  -2.374  1.00  0.00    -0.360 OA
HETATM   22  H20 UNK     1      -1.158   2.705  -3.274  1.00  0.00     0.217 HD
ENDBRANCH   5  21
BRANCH  10  23
HETATM   23  C18 UNK     1       1.109  -4.095   1.117  1.00  0.00    -0.020 A 
HETATM   24  C19 UNK     1       0.168  -4.814   1.857  1.00  0.00     0.014 A 
HETATM   25  C21 UNK     1       0.490  -6.073   2.365  1.00  0.00     0.024 A 
HETATM   26  C23 UNK     1       1.754  -6.615   2.133  1.00  0.00     0.034 A 
HETATM   27  C22 UNK     1       2.696  -5.899   1.394  1.00  0.00     0.024 A 
HETATM   28 Cl1  UNK     1       2.152  -8.168   2.761  1.00  0.00    -0.084 Cl
HETATM   29  C20 UNK     1       2.374  -4.641   0.887  1.00  0.00     0.014 A 
ENDBRANCH  10  23
TORSDOF 5
