REMARK  0 active torsions:
REMARK  status: ('A' for Active; 'I' for Inactive)
ROOT
HETATM    1 Cl1  UNK     1       3.691   1.570   2.524  1.00  0.00    -0.084 Cl
HETATM    2 Cl2  UNK     1      -5.396  -1.689   3.339  1.00  0.00    -0.084 Cl
HETATM    3  O1  UNK     1      -0.734  -1.426  -0.132  1.00  0.00    -0.309 OA
HETATM    4  O2  UNK     1       2.106   1.551  -3.154  1.00  0.00    -0.275 OA
HETATM    5  O3  UNK     1       0.592   1.054  -4.793  1.00  0.00    -0.260 OA
HETATM    6  C1  UNK     1       0.272   0.462  -1.275  1.00  0.00     0.017 A 
HETATM    7  C2  UNK     1      -0.711  -0.100  -0.433  1.00  0.00     0.088 A 
HETATM    8  C3  UNK     1       1.568   1.009  -0.837  1.00  0.00     0.013 A 
HETATM    9  C4  UNK     1      -2.465  -0.429   0.923  1.00  0.00     0.002 A 
HETATM   10  C5  UNK     1      -1.800  -1.629   0.692  1.00  0.00     0.086 A 
HETATM   11  C6  UNK     1      -1.751   0.555   0.189  1.00  0.00     0.052 A 
HETATM   12  C7  UNK     1       2.442   1.535  -1.787  1.00  0.00     0.090 A 
HETATM   13  C8  UNK     1      -0.016   0.494  -2.587  1.00  0.00     0.097 A 
HETATM   14  C9  UNK     1       1.972   1.027   0.506  1.00  0.00     0.039 A 
HETATM   15  C10 UNK     1      -3.598  -0.438   1.755  1.00  0.00     0.038 A 
HETATM   16  C11 UNK     1      -2.185  -2.853   1.235  1.00  0.00     0.040 A 
HETATM   17  C12 UNK     1       3.685   2.067  -1.440  1.00  0.00     0.040 A 
HETATM   18  C13 UNK     1       0.897   1.046  -3.605  1.00  0.00     0.289 A 
HETATM   19  C14 UNK     1       3.214   1.558   0.869  1.00  0.00     0.035 A 
HETATM   20  C15 UNK     1      -4.009  -1.655   2.317  1.00  0.00     0.035 A 
HETATM   21  C16 UNK     1      -3.314  -2.839   2.060  1.00  0.00     0.026 A 
HETATM   22  C17 UNK     1       4.069   2.077  -0.102  1.00  0.00     0.026 A 
ENDROOT
TORSDOF 0
