REMARK  5 active torsions:
REMARK  status: ('A' for Active; 'I' for Inactive)
REMARK       I    between atoms: C5_14  and  N1_7 
REMARK    1  A    between atoms: N1_7  and  N2_8 
REMARK    2  A    between atoms: C6_15  and  N2_8 
REMARK    3  A    between atoms: C6_15  and  N3_9 
REMARK    4  A    between atoms: C7_16  and  N3_9 
REMARK    5  A    between atoms: C1_10  and  C5_14 
ROOT
HETATM    1  N3  UNK     1      -0.491   0.752  -0.629  1.00  0.00    -0.332 N 
HETATM    2  H8  UNK     1       0.277   1.314  -0.269  1.00  0.00     0.168 HD
ENDROOT
BRANCH   1   3
HETATM    3  C6  UNK     1      -0.550   0.735  -2.034  1.00  0.00     0.191 C 
HETATM    4  S1  UNK     1      -1.874   0.457  -3.025  1.00  0.00    -0.039 SA
BRANCH   3   5
HETATM    5  N2  UNK     1       0.659   1.013  -2.661  1.00  0.00    -0.274 N 
HETATM    6  H7  UNK     1       0.740   1.028  -3.673  1.00  0.00     0.189 HD
BRANCH   5   7
HETATM    7  N1  UNK     1       1.809   1.257  -1.947  1.00  0.00    -0.267 N 
HETATM    8  C5  UNK     1       2.772   2.077  -2.494  1.00  0.00     0.247 C 
HETATM    9  O1  UNK     1       2.720   2.635  -3.584  1.00  0.00    -0.271 OA
HETATM   10  H6  UNK     1       1.932   0.760  -1.071  1.00  0.00     0.190 HD
BRANCH   8  11
HETATM   11  C1  UNK     1       3.968   2.265  -1.622  1.00  0.00     0.077 A 
HETATM   12  C2  UNK     1       5.326   2.038  -2.207  1.00  0.00     0.130 A 
HETATM   13 Cl1  UNK     1       6.697   2.990  -1.633  1.00  0.00    -0.100 Cl
HETATM   14 Cl2  UNK     1       5.504   1.558  -3.897  1.00  0.00    -0.100 Cl
HETATM   15  C3  UNK     1       4.735   1.032  -1.263  1.00  0.00     0.065 A 
HETATM   16  C4  UNK     1       3.807   3.286  -0.543  1.00  0.00     0.029 C 
ENDBRANCH   8  11
ENDBRANCH   5   7
ENDBRANCH   3   5
ENDBRANCH   1   3
BRANCH   1  17
HETATM   17  C7  UNK     1      -1.211   0.109   0.378  1.00  0.00     0.037 A 
HETATM   18  C10 UNK     1      -2.206  -0.806   0.050  1.00  0.00     0.067 A 
HETATM   19  C9  UNK     1      -2.914  -1.439   1.073  1.00  0.00     0.092 A 
HETATM   20  C8  UNK     1      -2.659  -1.186   2.422  1.00  0.00     0.004 A 
HETATM   21  O2  UNK     1      -3.909  -2.355   0.679  1.00  0.00    -0.275 OA
HETATM   22  C11 UNK     1      -3.453  -1.897   3.433  1.00  0.00    -0.043 A 
HETATM   23  C13 UNK     1      -1.653  -0.261   2.732  1.00  0.00     0.017 A 
HETATM   24  C14 UNK     1      -4.393  -2.764   3.029  1.00  0.00     0.090 A 
HETATM   25  C15 UNK     1      -3.204  -1.648   4.892  1.00  0.00     0.049 C 
HETATM   26  C16 UNK     1      -4.673  -3.041   1.610  1.00  0.00     0.288 A 
HETATM   27  O3  UNK     1      -5.541  -3.841   1.278  1.00  0.00    -0.260 OA
HETATM   28  C12 UNK     1      -0.935   0.381   1.717  1.00  0.00     0.030 A 
ENDBRANCH   1  17
TORSDOF 5
