REMARK  7 active torsions:
REMARK  status: ('A' for Active; 'I' for Inactive)
REMARK    1  A    between atoms: C16_23  and  O3_3 
REMARK    2  A    between atoms: C25_32  and  O3_3 
REMARK    3  A    between atoms: C5_12  and  N1_5 
REMARK    4  A    between atoms: C6_13  and  N2_6 
REMARK    5  A    between atoms: C14_21  and  N3_7 
REMARK       I    between atoms: C8_15  and  N3_7 
REMARK    6  A    between atoms: C5_12  and  C7_14 
REMARK    7  A    between atoms: C6_13  and  C8_15 
ROOT
HETATM    1  N1  UNK     1       0.919   0.015  -1.569  1.00  0.00     0.096 N 
HETATM    2  N2  UNK     1      -1.778  -0.670  -0.781  1.00  0.00     0.100 N 
HETATM    3  C1  UNK     1       0.660  -0.902  -0.451  1.00  0.00     0.303 C 
HETATM    4  C2  UNK     1      -0.168  -0.057  -2.553  1.00  0.00     0.303 C 
HETATM    5  C3  UNK     1      -0.692  -0.596   0.203  1.00  0.00     0.303 C 
HETATM    6  C4  UNK     1      -1.520   0.248  -1.898  1.00  0.00     0.303 C 
ENDROOT
BRANCH   1   7
HETATM    7  C5  UNK     1       2.206  -0.280  -2.194  1.00  0.00     0.312 C 
BRANCH   7   8
HETATM    8  C7  UNK     1       2.758   0.895  -2.925  1.00  0.00    -0.011 A 
HETATM    9  C10 UNK     1       2.475   1.101  -4.219  1.00  0.00     0.092 A 
HETATM   10  C13 UNK     1       2.997   2.247  -4.983  1.00  0.00     0.288 A 
HETATM   11  O1  UNK     1       3.816   3.131  -4.298  1.00  0.00    -0.275 OA
HETATM   12  O4  UNK     1       2.717   2.403  -6.166  1.00  0.00    -0.260 OA
HETATM   13  C11 UNK     1       4.132   2.941  -2.938  1.00  0.00     0.090 A 
HETATM   14  C9  UNK     1       3.630   1.850  -2.226  1.00  0.00     0.009 A 
HETATM   15  C15 UNK     1       4.966   3.894  -2.350  1.00  0.00     0.041 A 
HETATM   16  C12 UNK     1       3.992   1.731  -0.878  1.00  0.00     0.051 A 
HETATM   17  C16 UNK     1       4.827   2.678  -0.275  1.00  0.00     0.069 A 
HETATM   18  C17 UNK     1       5.313   3.758  -1.011  1.00  0.00     0.039 A 
BRANCH  17  19
HETATM   19  O3  UNK     1       5.167   2.544   1.037  1.00  0.00    -0.351 OA
BRANCH  19  20
HETATM   20  C25 UNK     1       4.221   1.902   1.889  1.00  0.00     0.171 C 
HETATM   21  C26 UNK     1       4.371   2.451   3.292  1.00  0.00     0.034 C 
ENDBRANCH  19  20
ENDBRANCH  17  19
ENDBRANCH   7   8
ENDBRANCH   1   7
BRANCH   2  22
HETATM   22  C6  UNK     1      -3.066  -0.377  -0.157  1.00  0.00     0.375 C 
BRANCH  22  23
HETATM   23  C8  UNK     1      -3.534  -1.590   0.629  1.00  0.00     0.250 C 
HETATM   24  O2  UNK     1      -3.238  -2.737   0.312  1.00  0.00    -0.271 OA
HETATM   25  N3  UNK     1      -4.309  -1.190   1.716  1.00  0.00    -0.325 N 
HETATM   26  H14 UNK     1      -4.744  -0.276   1.610  1.00  0.00     0.169 HD
BRANCH  25  27
HETATM   27  C14 UNK     1      -4.928  -2.015   2.685  1.00  0.00     0.046 A 
HETATM   28  C18 UNK     1      -6.314  -1.985   2.845  1.00  0.00    -0.035 A 
HETATM   29  C20 UNK     1      -6.923  -2.798   3.800  1.00  0.00     0.009 A 
HETATM   30  C22 UNK     1      -7.172  -1.093   2.007  1.00  0.00     0.050 C 
HETATM   31  C24 UNK     1      -6.148  -3.640   4.597  1.00  0.00     0.001 A 
HETATM   32  C21 UNK     1      -4.762  -3.670   4.437  1.00  0.00     0.009 A 
HETATM   33  C19 UNK     1      -4.152  -2.858   3.481  1.00  0.00    -0.035 A 
HETATM   34  C23 UNK     1      -2.666  -2.912   3.334  1.00  0.00     0.050 C 
ENDBRANCH  25  27
ENDBRANCH  22  23
ENDBRANCH   2  22
TORSDOF 7
