REMARK  7 active torsions:
REMARK  status: ('A' for Active; 'I' for Inactive)
REMARK    1  A    between atoms: C10_20  and  O1_4 
REMARK    2  A    between atoms: C22_32  and  O1_4 
REMARK    3  A    between atoms: C18_28  and  O4_7 
REMARK       I    between atoms: C12_22  and  N2_10 
REMARK    4  A    between atoms: C6_16  and  N2_10 
REMARK    5  A    between atoms: C1_11  and  C3_13 
REMARK    6  A    between atoms: C3_13  and  C6_16 
REMARK    7  A    between atoms: C12_22  and  C13_23 
ROOT
HETATM    1  C6  UNK     1      -3.502  -1.744  -1.417  1.00  0.00     0.127 C 
ENDROOT
BRANCH   1   2
HETATM    2  C3  UNK     1      -3.422  -2.580  -0.141  1.00  0.00     0.061 C 
BRANCH   2   3
HETATM    3  C1  UNK     1      -3.341  -1.750   1.108  1.00  0.00    -0.022 A 
HETATM    4  C2  UNK     1      -2.151  -1.300   1.714  1.00  0.00     0.002 A 
HETATM    5  C5  UNK     1      -2.538  -0.569   2.840  1.00  0.00     0.043 A 
HETATM    6  C7  UNK     1      -0.777  -1.432   1.430  1.00  0.00     0.051 A 
HETATM    7  N1  UNK     1      -3.913  -0.594   2.886  1.00  0.00    -0.359 N 
HETATM    8  C8  UNK     1      -1.615   0.038   3.700  1.00  0.00     0.033 A 
HETATM    9  C4  UNK     1      -4.409  -1.313   1.832  1.00  0.00     0.013 A 
HETATM   10  H3  UNK     1      -4.472  -0.144   3.599  1.00  0.00     0.166 HD
HETATM   11  C9  UNK     1      -5.862  -1.493   1.650  1.00  0.00     0.068 C 
HETATM   12  C11 UNK     1      -0.258  -0.108   3.398  1.00  0.00     0.039 A 
HETATM   13  C10 UNK     1       0.157  -0.831   2.282  1.00  0.00     0.079 A 
BRANCH  13  14
HETATM   14  O1  UNK     1       1.487  -0.954   2.013  1.00  0.00    -0.255 OA
BRANCH  14  15
HETATM   15  C22 UNK     1       2.240   0.232   1.788  1.00  0.00     0.530 C 
HETATM   16  F1  UNK     1       1.471   1.201   1.248  1.00  0.00    -0.144 F 
HETATM   17  F2  UNK     1       3.236  -0.045   0.916  1.00  0.00    -0.144 F 
HETATM   18  F3  UNK     1       2.801   0.676   2.933  1.00  0.00    -0.144 F 
ENDBRANCH  14  15
ENDBRANCH  13  14
ENDBRANCH   2   3
ENDBRANCH   1   2
BRANCH   1  19
HETATM   19  N2  UNK     1      -2.366  -0.866  -1.579  1.00  0.00    -0.356 N 
HETATM   20  C12 UNK     1      -1.212  -1.241  -2.244  1.00  0.00     0.257 C 
HETATM   21  O3  UNK     1      -0.999  -2.331  -2.771  1.00  0.00    -0.267 OA
HETATM   22  H11 UNK     1      -2.432   0.051  -1.149  1.00  0.00     0.162 HD
BRANCH  20  23
HETATM   23  C13 UNK     1      -0.202  -0.177  -2.279  1.00  0.00     0.108 A 
HETATM   24  C15 UNK     1       1.075  -0.575  -2.310  1.00  0.00     0.037 A 
HETATM   25  C14 UNK     1       2.149   0.407  -2.345  1.00  0.00     0.002 A 
HETATM   26  C16 UNK     1       1.824   1.759  -2.346  1.00  0.00     0.123 A 
HETATM   27  C19 UNK     1       3.495   0.037  -2.379  1.00  0.00     0.014 A 
HETATM   28  O2  UNK     1       0.478   2.172  -2.313  1.00  0.00    -0.271 OA
HETATM   29  C18 UNK     1       2.804   2.749  -2.379  1.00  0.00     0.102 A 
HETATM   30  C17 UNK     1      -0.571   1.257  -2.279  1.00  0.00     0.304 A 
HETATM   31  O5  UNK     1      -1.740   1.626  -2.251  1.00  0.00    -0.259 OA
HETATM   32  C20 UNK     1       4.145   2.372  -2.412  1.00  0.00     0.040 A 
HETATM   33  C21 UNK     1       4.490   1.018  -2.413  1.00  0.00     0.004 A 
BRANCH  29  34
HETATM   34  O4  UNK     1       2.473   4.068  -2.378  1.00  0.00    -0.353 OA
HETATM   35  C23 UNK     1       2.349   4.707  -1.108  1.00  0.00     0.210 C 
ENDBRANCH  29  34
ENDBRANCH  20  23
ENDBRANCH   1  19
TORSDOF 7
