REMARK  2 active torsions:
REMARK  status: ('A' for Active; 'I' for Inactive)
REMARK       I    between atoms: C6_10  and  N1_4 
REMARK    1  A    between atoms: C9_13  and  N1_4 
REMARK    2  A    between atoms: C3_7  and  C6_10 
ROOT
HETATM    1  O1  UNK     1       2.539   0.976   0.259  1.00  0.00    -0.274 OA
HETATM    2  O3  UNK     1       1.137  -0.198   1.629  1.00  0.00    -0.259 OA
HETATM    3  C1  UNK     1       1.890   1.397  -2.046  1.00  0.00    -0.001 A 
HETATM    4  C2  UNK     1       2.807   1.530  -1.008  1.00  0.00     0.089 A 
HETATM    5  C3  UNK     1       0.401   0.152  -0.596  1.00  0.00     0.108 A 
HETATM    6  C4  UNK     1       0.650   0.676  -1.802  1.00  0.00     0.037 A 
HETATM    7  C5  UNK     1       2.192   1.960  -3.288  1.00  0.00     0.014 A 
HETATM    8  C7  UNK     1       1.361   0.281   0.523  1.00  0.00     0.304 A 
HETATM    9  C8  UNK     1       4.013   2.207  -1.176  1.00  0.00     0.038 A 
HETATM   10  C10 UNK     1       3.398   2.643  -3.472  1.00  0.00     0.001 A 
HETATM   11  C11 UNK     1       4.306   2.766  -2.418  1.00  0.00     0.003 A 
ENDROOT
BRANCH   5  12
HETATM   12  C6  UNK     1      -0.876  -0.557  -0.448  1.00  0.00     0.262 C 
HETATM   13  O2  UNK     1      -1.376  -1.122  -1.419  1.00  0.00    -0.267 OA
HETATM   14  N1  UNK     1      -1.369  -0.482   0.847  1.00  0.00    -0.323 N 
HETATM   15  H4  UNK     1      -0.840   0.047   1.537  1.00  0.00     0.169 HD
BRANCH  14  16
HETATM   16  C9  UNK     1      -2.568  -1.045   1.349  1.00  0.00     0.035 A 
HETATM   17  C12 UNK     1      -3.387  -1.764   0.494  1.00  0.00     0.029 A 
HETATM   18  C14 UNK     1      -4.568  -2.318   0.988  1.00  0.00     0.002 A 
HETATM   19  C16 UNK     1      -4.913  -2.145   2.328  1.00  0.00     0.000 A 
HETATM   20  C15 UNK     1      -4.077  -1.417   3.175  1.00  0.00     0.002 A 
HETATM   21  C13 UNK     1      -2.896  -0.863   2.682  1.00  0.00     0.029 A 
ENDBRANCH  14  16
ENDBRANCH   5  12
TORSDOF 2
