REMARK  2 active torsions:
REMARK  status: ('A' for Active; 'I' for Inactive)
REMARK    1  A    between atoms: C17_20  and  O3_3 
REMARK    2  A    between atoms: C11_14  and  C5_8 
ROOT
HETATM    1  O1  UNK     1       0.140   0.157  -0.146  1.00  0.00    -0.308 OA
HETATM    2  O2  UNK     1      -2.415  -0.306  -3.275  1.00  0.00    -0.287 OA
HETATM    3  C1  UNK     1      -1.106  -0.384   0.078  1.00  0.00     0.101 A 
HETATM    4  C2  UNK     1      -1.431  -0.759   1.402  1.00  0.00     0.009 A 
HETATM    5  C3  UNK     1      -2.024  -0.565  -0.958  1.00  0.00     0.049 A 
HETATM    6  C4  UNK     1      -2.708  -1.318   1.656  1.00  0.00    -0.023 A 
HETATM    7  C5  UNK     1       0.490   0.538  -1.431  1.00  0.00     0.090 A 
HETATM    8  C6  UNK     1      -3.278  -1.115  -0.703  1.00  0.00     0.019 A 
HETATM    9  C7  UNK     1      -3.615  -1.489   0.598  1.00  0.00     0.013 A 
HETATM   10  C8  UNK     1      -1.655  -0.169  -2.327  1.00  0.00     0.187 A 
HETATM   11  C9  UNK     1      -0.542  -0.601   2.487  1.00  0.00     0.015 A 
HETATM   12  C10 UNK     1      -0.308   0.405  -2.501  1.00  0.00     0.093 A 
HETATM   13  C12 UNK     1      -3.054  -1.698   2.963  1.00  0.00     0.012 A 
HETATM   14  C13 UNK     1      -0.903  -0.984   3.780  1.00  0.00     0.001 A 
HETATM   15  C14 UNK     1      -2.157  -1.532   4.018  1.00  0.00     0.001 A 
ENDROOT
BRANCH   7  16
HETATM   16  C11 UNK     1       1.852   1.097  -1.539  1.00  0.00     0.001 A 
HETATM   17  C15 UNK     1       2.413   1.795  -0.466  1.00  0.00     0.050 A 
HETATM   18  C17 UNK     1       3.700   2.323  -0.570  1.00  0.00     0.066 A 
HETATM   19  C19 UNK     1       4.430   2.156  -1.747  1.00  0.00     0.036 A 
HETATM   20  C18 UNK     1       3.873   1.461  -2.820  1.00  0.00     0.004 A 
HETATM   21  C16 UNK     1       2.586   0.932  -2.716  1.00  0.00     0.014 A 
BRANCH  18  22
HETATM   22  O3  UNK     1       4.244   3.001   0.478  1.00  0.00    -0.361 OA
HETATM   23  H12 UNK     1       5.138   3.296   0.232  1.00  0.00     0.217 HD
ENDBRANCH  18  22
ENDBRANCH   7  16
TORSDOF 2
