REMARK  4 active torsions:
REMARK  status: ('A' for Active; 'I' for Inactive)
REMARK    1  A    between atoms: C11_16  and  O3_3 
REMARK    2  A    between atoms: C13_18  and  O4_4 
REMARK    3  A    between atoms: C15_20  and  O5_5 
REMARK    4  A    between atoms: C2_7  and  C4_9 
ROOT
HETATM    1  O1  UNK     1       0.465  -1.447   0.285  1.00  0.00    -0.309 OA
HETATM    2  O2  UNK     1       0.933  -2.946   4.045  1.00  0.00    -0.287 OA
HETATM    3  C1  UNK     1       0.905  -3.358   1.718  1.00  0.00     0.048 A 
HETATM    4  C2  UNK     1       0.349  -0.642   1.409  1.00  0.00     0.090 A 
HETATM    5  C3  UNK     1       0.735  -2.780   0.461  1.00  0.00     0.093 A 
HETATM    6  C5  UNK     1       0.792  -2.506   2.912  1.00  0.00     0.187 A 
HETATM    7  C6  UNK     1       0.498  -1.079   2.670  1.00  0.00     0.093 A 
HETATM    8  C7  UNK     1       1.179  -4.722   1.837  1.00  0.00     0.021 A 
HETATM    9  C8  UNK     1       0.839  -3.566  -0.687  1.00  0.00     0.074 A 
HETATM   10  C11 UNK     1       1.113  -4.929  -0.572  1.00  0.00     0.068 A 
HETATM   11  C12 UNK     1       1.282  -5.506   0.687  1.00  0.00     0.037 A 
ENDROOT
BRANCH   4  12
HETATM   12  C4  UNK     1       0.064   0.774   1.106  1.00  0.00     0.001 A 
HETATM   13  C10 UNK     1       0.532   1.781   1.953  1.00  0.00     0.017 A 
HETATM   14  C14 UNK     1       0.264   3.120   1.667  1.00  0.00     0.040 A 
HETATM   15  C15 UNK     1      -0.474   3.455   0.532  1.00  0.00     0.098 A 
HETATM   16  C13 UNK     1      -0.943   2.453  -0.317  1.00  0.00     0.099 A 
HETATM   17  C9  UNK     1      -0.675   1.114  -0.030  1.00  0.00     0.053 A 
BRANCH  15  18
HETATM   18  O5  UNK     1      -0.731   4.766   0.264  1.00  0.00    -0.358 OA
HETATM   19  H10 UNK     1      -0.330   5.316   0.958  1.00  0.00     0.217 HD
ENDBRANCH  15  18
BRANCH  16  20
HETATM   20  O4  UNK     1      -1.666   2.769  -1.428  1.00  0.00    -0.358 OA
HETATM   21  H9  UNK     1      -1.756   3.736  -1.470  1.00  0.00     0.217 HD
ENDBRANCH  16  20
ENDBRANCH   4  12
BRANCH  10  22
HETATM   22  O3  UNK     1       1.216  -5.698  -1.691  1.00  0.00    -0.361 OA
HETATM   23  H8  UNK     1       1.408  -6.614  -1.427  1.00  0.00     0.217 HD
ENDBRANCH  10  22
TORSDOF 4
