REMARK  7 active torsions:
REMARK  status: ('A' for Active; 'I' for Inactive)
REMARK    1  A    between atoms: C23_32  and  O2_3 
REMARK    2  A    between atoms: C9_18  and  O2_3 
REMARK    3  A    between atoms: C17_26  and  O3_4 
REMARK    4  A    between atoms: C19_28  and  O5_6 
REMARK       I    between atoms: C12_21  and  N1_9 
REMARK    5  A    between atoms: C4_13  and  N1_9 
REMARK    6  A    between atoms: C2_11  and  C9_18 
REMARK    7  A    between atoms: C10_19  and  C12_21 
ROOT
HETATM    1  S1  UNK     1       0.300   0.218   2.702  1.00  0.00    -0.075 SA
HETATM    2  C1  UNK     1      -1.890  -0.977   2.089  1.00  0.00     0.006 A 
HETATM    3  C2  UNK     1      -1.298  -0.581   0.855  1.00  0.00     0.085 A 
HETATM    4  C3  UNK     1      -1.126  -0.605   3.173  1.00  0.00    -0.007 A 
HETATM    5  C4  UNK     1      -0.122   0.067   1.063  1.00  0.00     0.094 A 
HETATM    6  C5  UNK     1      -3.134  -1.683   2.268  1.00  0.00    -0.024 A 
HETATM    7  C6  UNK     1      -1.375  -0.820   4.619  1.00  0.00     0.057 C 
HETATM    8  C7  UNK     1      -3.141  -3.075   2.299  1.00  0.00     0.015 A 
HETATM    9  C8  UNK     1      -4.321  -0.969   2.409  1.00  0.00     0.015 A 
HETATM   10  C15 UNK     1      -4.345  -3.758   2.472  1.00  0.00     0.037 A 
HETATM   11  C16 UNK     1      -5.525  -1.652   2.582  1.00  0.00     0.037 A 
HETATM   12  C17 UNK     1      -5.537  -3.047   2.613  1.00  0.00     0.068 A 
ENDROOT
BRANCH   5  13
HETATM   13  N1  UNK     1       0.782   0.621   0.151  1.00  0.00    -0.316 N 
HETATM   14  C12 UNK     1       1.968   1.269   0.465  1.00  0.00     0.262 C 
HETATM   15  O6  UNK     1       2.454   1.484   1.574  1.00  0.00    -0.267 OA
HETATM   16  H1  UNK     1       0.519   0.500  -0.823  1.00  0.00     0.169 HD
BRANCH  14  17
HETATM   17  C10 UNK     1       2.676   1.728  -0.736  1.00  0.00     0.108 A 
HETATM   18  C14 UNK     1       4.010   1.782  -0.651  1.00  0.00     0.037 A 
HETATM   19  C11 UNK     1       4.800   2.224  -1.790  1.00  0.00     0.002 A 
HETATM   20  C13 UNK     1       4.145   2.589  -2.962  1.00  0.00     0.123 A 
HETATM   21  C20 UNK     1       6.194   2.296  -1.747  1.00  0.00     0.014 A 
HETATM   22  O1  UNK     1       2.740   2.530  -3.045  1.00  0.00    -0.271 OA
HETATM   23  C19 UNK     1       4.842   3.022  -4.089  1.00  0.00     0.102 A 
HETATM   24  C18 UNK     1       1.958   2.110  -1.973  1.00  0.00     0.304 A 
HETATM   25  O7  UNK     1       0.735   2.061  -2.054  1.00  0.00    -0.259 OA
HETATM   26  C21 UNK     1       6.232   3.090  -4.037  1.00  0.00     0.040 A 
HETATM   27  C22 UNK     1       6.907   2.728  -2.869  1.00  0.00     0.004 A 
BRANCH  23  28
HETATM   28  O5  UNK     1       4.189   3.375  -5.228  1.00  0.00    -0.353 OA
HETATM   29  C26 UNK     1       3.951   2.346  -6.187  1.00  0.00     0.210 C 
ENDBRANCH  23  28
ENDBRANCH  14  17
ENDBRANCH   5  13
BRANCH   3  30
HETATM   30  C9  UNK     1      -1.847  -0.821  -0.456  1.00  0.00     0.297 C 
HETATM   31  O4  UNK     1      -1.303  -0.461  -1.510  1.00  0.00    -0.259 OA
BRANCH  30  32
HETATM   32  O2  UNK     1      -3.049  -1.494  -0.443  1.00  0.00    -0.318 OA
BRANCH  32  33
HETATM   33  C23 UNK     1      -3.652  -1.766  -1.714  1.00  0.00     0.174 C 
HETATM   34  C24 UNK     1      -4.953  -2.506  -1.494  1.00  0.00     0.034 C 
ENDBRANCH  32  33
ENDBRANCH  30  32
ENDBRANCH   3  30
BRANCH  12  35
HETATM   35  O3  UNK     1      -6.711  -3.714   2.783  1.00  0.00    -0.356 OA
HETATM   36  C25 UNK     1      -7.892  -2.924   2.922  1.00  0.00     0.210 C 
ENDBRANCH  12  35
TORSDOF 7
