REMARK  3 active torsions:
REMARK  status: ('A' for Active; 'I' for Inactive)
REMARK    1  A    between atoms: C7_13  and  N1_5 
REMARK    2  A    between atoms: C7_13  and  N2_6 
REMARK    3  A    between atoms: C8_14  and  N2_6 
ROOT
HETATM    1  O2  UNK     1      -2.938   0.182   0.066  1.00  0.00    -0.275 OA
HETATM    2  O3  UNK     1      -5.101  -0.212  -0.562  1.00  0.00    -0.260 OA
HETATM    3  C8  UNK     1       0.448   0.239   1.429  1.00  0.00     0.036 A 
HETATM    4  C9  UNK     1      -1.832  -1.377   1.586  1.00  0.00     0.004 A 
HETATM    5  C10 UNK     1      -0.680   0.597   0.718  1.00  0.00     0.067 A 
HETATM    6  C11 UNK     1      -1.809  -0.219   0.807  1.00  0.00     0.092 A 
HETATM    7  C12 UNK     1       0.472  -0.899   2.214  1.00  0.00     0.030 A 
HETATM    8  C13 UNK     1      -0.668  -1.708   2.294  1.00  0.00     0.017 A 
HETATM    9  C14 UNK     1      -3.063  -2.177   1.621  1.00  0.00    -0.043 A 
HETATM   10  C15 UNK     1      -4.122  -1.771   0.906  1.00  0.00     0.090 A 
HETATM   11  C16 UNK     1      -3.120  -3.428   2.450  1.00  0.00     0.049 C 
HETATM   12  C17 UNK     1      -4.113  -0.553   0.079  1.00  0.00     0.288 A 
ENDROOT
BRANCH   3  13
HETATM   13  N2  UNK     1       1.605   1.053   1.353  1.00  0.00    -0.333 N 
HETATM   14  H13 UNK     1       2.178   1.036   2.194  1.00  0.00     0.168 HD
BRANCH  13  15
HETATM   15  C7  UNK     1       2.071   1.868   0.354  1.00  0.00     0.174 C 
HETATM   16  S1  UNK     1       3.013   3.204   0.731  1.00  0.00    -0.041 SA
BRANCH  15  17
HETATM   17  N1  UNK     1       1.821   1.560  -0.941  1.00  0.00    -0.353 N 
HETATM   18  C3  UNK     1       1.688   2.583  -1.967  1.00  0.00     0.157 C 
HETATM   19  C1  UNK     1       2.502   2.216  -3.208  1.00  0.00     0.136 C 
HETATM   20  O1  UNK     1       2.216   0.873  -3.626  1.00  0.00    -0.378 OA
HETATM   21  C5  UNK     1       4.002   2.443  -3.025  1.00  0.00     0.041 C 
HETATM   22  C2  UNK     1       2.431  -0.116  -2.609  1.00  0.00     0.136 C 
HETATM   23  C4  UNK     1       1.579   0.194  -1.379  1.00  0.00     0.157 C 
HETATM   24  C6  UNK     1       2.062  -1.471  -3.199  1.00  0.00     0.041 C 
ENDBRANCH  15  17
ENDBRANCH  13  15
ENDBRANCH   3  13
TORSDOF 3
