REMARK  5 active torsions:
REMARK  status: ('A' for Active; 'I' for Inactive)
REMARK    1  A    between atoms: C7_12  and  N1_4 
REMARK    2  A    between atoms: C1_6  and  C3_8 
REMARK    3  A    between atoms: C2_7  and  C6_11 
REMARK    4  A    between atoms: C5_10  and  C8_13 
REMARK    5  A    between atoms: C11_16  and  C6_11 
ROOT
HETATM    1  O1  UNK     1      -0.993  -1.108  -1.370  1.00  0.00    -0.292 OA
HETATM    2  N2  UNK     1      -1.706  -5.442   0.610  1.00  0.00    -0.191 NA
HETATM    3  C1  UNK     1       0.097  -2.375   0.966  1.00  0.00     0.108 C 
HETATM    4  C2  UNK     1       0.288  -0.909   0.642  1.00  0.00     0.041 C 
HETATM    5  C4  UNK     1      -0.904  -3.046   0.031  1.00  0.00     0.086 C 
HETATM    6  C5  UNK     1      -0.231  -0.370  -0.476  1.00  0.00     0.099 C 
HETATM    7  C7  UNK     1      -1.384  -2.411  -1.062  1.00  0.00     0.159 C 
HETATM    8  C16 UNK     1      -1.347  -4.369   0.351  1.00  0.00     0.100 C 
ENDROOT
BRANCH   3   9
HETATM    9  C3  UNK     1       1.425  -3.128   0.994  1.00  0.00    -0.022 A 
HETATM   10  C10 UNK     1       2.160  -3.205  -0.186  1.00  0.00     0.010 A 
HETATM   11  C13 UNK     1       3.378  -3.884  -0.199  1.00  0.00     0.001 A 
HETATM   12  C17 UNK     1       3.856  -4.482   0.966  1.00  0.00     0.002 A 
HETATM   13  C12 UNK     1       3.116  -4.402   2.146  1.00  0.00     0.024 A 
HETATM   14  C9  UNK     1       1.897  -3.723   2.159  1.00  0.00     0.041 A 
HETATM   15 Cl1  UNK     1       1.009  -3.645   3.637  1.00  0.00    -0.084 Cl
ENDBRANCH   3   9
BRANCH   7  16
HETATM   16  N1  UNK     1      -2.271  -2.944  -1.957  1.00  0.00    -0.379 N 
HETATM   17  H8  UNK     1      -2.626  -3.884  -1.841  1.00  0.00     0.158 HD
HETATM   18  H9  UNK     1      -2.567  -2.381  -2.744  1.00  0.00     0.158 HD
ENDBRANCH   7  16
BRANCH   4  19
HETATM   19  C6  UNK     1       1.030  -0.095   1.621  1.00  0.00     0.192 C 
HETATM   20  O2  UNK     1       2.254  -0.007   1.476  1.00  0.00    -0.287 OA
BRANCH  19  21
HETATM   21  C11 UNK     1       0.317   0.555   2.732  1.00  0.00     0.015 A 
HETATM   22  C18 UNK     1      -1.055   0.395   2.848  1.00  0.00     0.015 A 
HETATM   23  C23 UNK     1      -1.730   1.010   3.902  1.00  0.00     0.001 A 
HETATM   24  C25 UNK     1      -1.024   1.778   4.828  1.00  0.00     0.000 A 
HETATM   25  C24 UNK     1       0.356   1.931   4.700  1.00  0.00     0.001 A 
HETATM   26  C19 UNK     1       1.031   1.316   3.645  1.00  0.00     0.015 A 
ENDBRANCH  19  21
ENDBRANCH   4  19
BRANCH   6  27
HETATM   27  C8  UNK     1      -0.074   1.027  -0.896  1.00  0.00    -0.002 A 
HETATM   28  C14 UNK     1       1.003   1.399  -1.703  1.00  0.00     0.014 A 
HETATM   29  C20 UNK     1       1.150   2.727  -2.102  1.00  0.00     0.001 A 
HETATM   30  C22 UNK     1       0.221   3.685  -1.695  1.00  0.00     0.000 A 
HETATM   31  C21 UNK     1      -0.855   3.315  -0.889  1.00  0.00     0.001 A 
HETATM   32  C15 UNK     1      -1.002   1.986  -0.489  1.00  0.00     0.014 A 
ENDBRANCH   6  27
TORSDOF 5
