REMARK  3 active torsions:
REMARK  status: ('A' for Active; 'I' for Inactive)
REMARK    1  A    between atoms: C10_17  and  O2_5 
REMARK    2  A    between atoms: C11_18  and  O2_5 
REMARK    3  A    between atoms: C10_17  and  C4_11 
ROOT
HETATM    1 Br1  UNK     1       2.740   1.629  -4.866  1.00  0.00    -0.048 Br
HETATM    2 Br2  UNK     1       6.124   3.010  -0.526  1.00  0.00    -0.051 Br
HETATM    3  O1  UNK     1       0.856   0.811  -2.580  1.00  0.00    -0.273 OA
HETATM    4  O3  UNK     1      -1.217  -0.066  -2.186  1.00  0.00    -0.259 OA
HETATM    5  C1  UNK     1       2.288   1.396  -0.705  1.00  0.00     0.002 A 
HETATM    6  C2  UNK     1       2.070   1.317  -2.077  1.00  0.00     0.107 A 
HETATM    7  C3  UNK     1       1.243   0.946   0.201  1.00  0.00     0.038 A 
HETATM    8  C4  UNK     1       0.091   0.466  -0.283  1.00  0.00     0.116 A 
HETATM    9  C5  UNK     1       3.505   1.904  -0.244  1.00  0.00     0.033 A 
HETATM   10  C6  UNK     1       3.030   1.732  -2.998  1.00  0.00     0.047 A 
HETATM   11  C7  UNK     1      -0.163   0.374  -1.739  1.00  0.00     0.304 A 
HETATM   12  C8  UNK     1       4.479   2.323  -1.156  1.00  0.00     0.013 A 
HETATM   13  C9  UNK     1       4.241   2.237  -2.530  1.00  0.00     0.041 A 
ENDROOT
BRANCH   8  14
HETATM   14  C10 UNK     1      -0.902   0.038   0.710  1.00  0.00     0.304 C 
HETATM   15  O4  UNK     1      -1.004   0.536   1.820  1.00  0.00    -0.259 OA
BRANCH  14  16
HETATM   16  O2  UNK     1      -1.648  -0.983   0.154  1.00  0.00    -0.275 OA
BRANCH  16  17
HETATM   17  C11 UNK     1      -2.627  -1.463   1.026  1.00  0.00     0.079 A 
HETATM   18  C12 UNK     1      -3.875  -0.881   1.004  1.00  0.00     0.039 A 
HETATM   19  C14 UNK     1      -4.853  -1.360   1.876  1.00  0.00     0.026 A 
HETATM   20  C16 UNK     1      -4.558  -2.408   2.748  1.00  0.00     0.034 A 
HETATM   21  C15 UNK     1      -3.285  -2.978   2.747  1.00  0.00     0.026 A 
HETATM   22 Cl1  UNK     1      -5.764  -2.998   3.824  1.00  0.00    -0.084 Cl
HETATM   23  C13 UNK     1      -2.307  -2.499   1.875  1.00  0.00     0.039 A 
ENDBRANCH  16  17
ENDBRANCH  14  16
ENDBRANCH   8  14
TORSDOF 3
