REMARK  2 active torsions:
REMARK  status: ('A' for Active; 'I' for Inactive)
REMARK    1  A    between atoms: C1_7  and  C8_14 
REMARK    2  A    between atoms: C6_12  and  C9_15 
ROOT
HETATM    1  O1  UNK     1      -1.055   3.176  -1.116  1.00  0.00    -0.293 OA
HETATM    2  N1  UNK     1       1.261  -0.408   1.128  1.00  0.00    -0.357 N 
HETATM    3  N2  UNK     1      -1.145   1.024   2.232  1.00  0.00    -0.375 N 
HETATM    4  C1  UNK     1       2.042   1.613  -1.929  1.00  0.00     0.031 C 
HETATM    5  C2  UNK     1       2.328   0.866  -0.623  1.00  0.00     0.067 C 
HETATM    6  C3  UNK     1      -0.031   1.373   0.072  1.00  0.00     0.037 C 
HETATM    7  C4  UNK     1       1.091   0.637   0.238  1.00  0.00     0.022 C 
HETATM    8  C5  UNK     1       1.246   2.874  -1.622  1.00  0.00     0.093 C 
HETATM    9  C6  UNK     1      -1.329   1.116   0.794  1.00  0.00     0.160 C 
HETATM   10  C7  UNK     1      -0.038   2.512  -0.916  1.00  0.00     0.160 C 
HETATM   11  C10 UNK     1       0.613  -0.712   2.343  1.00  0.00     0.059 A 
HETATM   12  C11 UNK     1      -0.467   0.005   2.885  1.00  0.00     0.055 A 
HETATM   13  C16 UNK     1       1.147  -1.793   3.084  1.00  0.00     0.032 A 
HETATM   14  C17 UNK     1      -0.939  -0.356   4.168  1.00  0.00     0.031 A 
HETATM   15  C21 UNK     1       0.653  -2.144   4.339  1.00  0.00     0.002 A 
HETATM   16  C22 UNK     1      -0.389  -1.416   4.888  1.00  0.00     0.002 A 
HETATM   17  H7  UNK     1       2.076  -0.986   0.942  1.00  0.00     0.166 HD
HETATM   18  H8  UNK     1      -1.790   1.568   2.798  1.00  0.00     0.160 HD
ENDROOT
BRANCH   9  19
HETATM   19  C9  UNK     1      -2.066  -0.081   0.269  1.00  0.00     0.042 A 
HETATM   20  C14 UNK     1      -3.365  -0.443   0.892  1.00  0.00     0.195 A 
HETATM   21  O3  UNK     1      -3.847   0.202   1.814  1.00  0.00    -0.287 OA
HETATM   22  C18 UNK     1      -4.047  -1.628   0.340  1.00  0.00     0.048 A 
HETATM   23  C23 UNK     1      -3.450  -2.325  -0.711  1.00  0.00     0.089 A 
HETATM   24  C25 UNK     1      -5.274  -2.050   0.858  1.00  0.00     0.018 A 
HETATM   25  O2  UNK     1      -2.247  -1.956  -1.258  1.00  0.00    -0.321 OA
HETATM   26  C26 UNK     1      -4.078  -3.449  -1.249  1.00  0.00     0.038 A 
HETATM   27  C15 UNK     1      -1.624  -0.850  -0.733  1.00  0.00     0.156 A 
HETATM   28  C28 UNK     1      -5.303  -3.873  -0.733  1.00  0.00     0.003 A 
HETATM   29  C27 UNK     1      -5.899  -3.174   0.318  1.00  0.00     0.001 A 
ENDBRANCH   9  19
BRANCH   4  30
HETATM   30  C8  UNK     1       3.312   1.905  -2.707  1.00  0.00    -0.053 A 
HETATM   31  C12 UNK     1       4.004   3.093  -2.485  1.00  0.00     0.009 A 
HETATM   32  C19 UNK     1       5.171   3.362  -3.201  1.00  0.00     0.024 A 
HETATM   33  C24 UNK     1       5.643   2.442  -4.137  1.00  0.00     0.034 A 
HETATM   34  C20 UNK     1       4.947   1.252  -4.358  1.00  0.00     0.024 A 
HETATM   35 Cl1  UNK     1       7.082   2.773  -5.021  1.00  0.00    -0.084 Cl
HETATM   36  C13 UNK     1       3.781   0.984  -3.642  1.00  0.00     0.009 A 
ENDBRANCH   4  30
TORSDOF 2
