REMARK  2 active torsions:
REMARK  status: ('A' for Active; 'I' for Inactive)
REMARK    1  A    between atoms: C25_30  and  O5_5 
REMARK    2  A    between atoms: C18_23  and  C20_25 
ROOT
HETATM    1  O1  UNK     1       0.655   0.040   2.271  1.00  0.00    -0.339 OA
HETATM    2  O2  UNK     1      -3.599  -1.856   1.123  1.00  0.00    -0.335 OA
HETATM    3  O3  UNK     1      -0.822   0.057  -2.301  1.00  0.00    -0.320 OA
HETATM    4  O4  UNK     1       2.037   1.102   0.397  1.00  0.00    -0.286 OA
HETATM    5  C1  UNK     1       0.321  -0.040   3.666  1.00  0.00     0.061 C 
HETATM    6  C2  UNK     1      -0.498  -1.299   3.963  1.00  0.00     0.042 C 
HETATM    7  C3  UNK     1      -1.771  -1.330   3.134  1.00  0.00     0.047 C 
HETATM    8  C4  UNK     1      -1.497  -0.948   1.702  1.00  0.00     0.011 A 
HETATM    9  C5  UNK     1      -0.310  -0.283   1.352  1.00  0.00     0.096 A 
HETATM   10  C6  UNK     1      -2.455  -1.224   0.707  1.00  0.00     0.092 A 
HETATM   11  C7  UNK     1      -0.063   0.056   0.008  1.00  0.00     0.084 A 
HETATM   12  C8  UNK     1      -2.219  -0.887  -0.630  1.00  0.00     0.033 A 
HETATM   13  C9  UNK     1      -0.390   1.254   4.090  1.00  0.00     0.046 C 
HETATM   14  C10 UNK     1       1.659  -0.128   4.414  1.00  0.00     0.046 C 
HETATM   15  C11 UNK     1      -4.709  -1.994   0.215  1.00  0.00     0.078 C 
HETATM   16  C12 UNK     1      -1.014  -0.250  -0.973  1.00  0.00     0.105 A 
HETATM   17  C13 UNK     1      -3.226  -1.219  -1.634  1.00  0.00     0.016 C 
HETATM   18  C14 UNK     1      -4.390  -1.731  -1.233  1.00  0.00     0.012 C 
HETATM   19  C15 UNK     1       1.186   0.749  -0.409  1.00  0.00     0.200 A 
HETATM   20  C16 UNK     1      -5.800  -1.027   0.688  1.00  0.00     0.051 C 
HETATM   21  C17 UNK     1      -5.198  -3.439   0.370  1.00  0.00     0.051 C 
HETATM   22  C18 UNK     1       1.355   1.015  -1.862  1.00  0.00     0.048 A 
HETATM   23  C19 UNK     1       0.353   0.652  -2.672  1.00  0.00     0.159 A 
ENDROOT
BRANCH  22  24
HETATM   24  C20 UNK     1       2.573   1.637  -2.407  1.00  0.00    -0.020 A 
HETATM   25  C21 UNK     1       2.654   3.025  -2.538  1.00  0.00     0.015 A 
HETATM   26  C23 UNK     1       3.809   3.613  -3.054  1.00  0.00     0.037 A 
HETATM   27  C25 UNK     1       4.886   2.814  -3.439  1.00  0.00     0.065 A 
HETATM   28  C24 UNK     1       4.807   1.428  -3.309  1.00  0.00     0.037 A 
HETATM   29  C22 UNK     1       3.652   0.840  -2.794  1.00  0.00     0.015 A 
BRANCH  27  30
HETATM   30  O5  UNK     1       6.012   3.388  -3.942  1.00  0.00    -0.361 OA
HETATM   31  H24 UNK     1       5.893   4.354  -3.961  1.00  0.00     0.217 HD
ENDBRANCH  27  30
ENDBRANCH  22  24
TORSDOF 2
