REMARK  3 active torsions:
REMARK  status: ('A' for Active; 'I' for Inactive)
REMARK    1  A    between atoms: C5_10  and  N1_4 
REMARK       I    between atoms: C6_11  and  N2_5 
REMARK    2  A    between atoms: C5_10  and  C8_13 
REMARK    3  A    between atoms: C6_11  and  C7_12 
ROOT
HETATM    1  O2  UNK     1       1.412   2.281  -2.402  1.00  0.00    -0.274 OA
HETATM    2  O3  UNK     1      -0.667   1.568  -3.025  1.00  0.00    -0.259 OA
HETATM    3  C7  UNK     1       0.532   0.171  -1.533  1.00  0.00     0.108 A 
HETATM    4  C9  UNK     1       1.650  -0.036  -0.828  1.00  0.00     0.037 A 
HETATM    5  C10 UNK     1       2.736   0.931  -0.874  1.00  0.00    -0.001 A 
HETATM    6  C11 UNK     1       0.356   1.374  -2.378  1.00  0.00     0.304 A 
HETATM    7  C12 UNK     1       2.591   2.069  -1.662  1.00  0.00     0.089 A 
HETATM    8  C14 UNK     1       3.921   0.756  -0.155  1.00  0.00     0.014 A 
HETATM    9  C15 UNK     1       3.593   3.033  -1.750  1.00  0.00     0.038 A 
HETATM   10  C16 UNK     1       4.935   1.715  -0.233  1.00  0.00     0.001 A 
HETATM   11  C17 UNK     1       4.771   2.851  -1.029  1.00  0.00     0.003 A 
ENDROOT
BRANCH   3  12
HETATM   12  C6  UNK     1      -0.512  -0.867  -1.420  1.00  0.00     0.260 C 
HETATM   13  N2  UNK     1      -1.464  -0.721  -0.413  1.00  0.00    -0.344 N 
HETATM   14  C3  UNK     1      -2.517  -1.729  -0.279  1.00  0.00     0.156 C 
HETATM   15  C4  UNK     1      -1.611   0.438   0.477  1.00  0.00     0.156 C 
HETATM   16  C1  UNK     1      -2.752  -2.115   1.179  1.00  0.00     0.292 C 
HETATM   17  N1  UNK     1      -3.026  -0.921   1.989  1.00  0.00     0.095 N 
HETATM   18  C2  UNK     1      -1.892   0.010   1.920  1.00  0.00     0.292 C 
HETATM   19  O1  UNK     1      -0.483  -1.796  -2.228  1.00  0.00    -0.267 OA
BRANCH  17  20
HETATM   20  C5  UNK     1      -3.301  -1.293   3.377  1.00  0.00     0.299 C 
BRANCH  20  21
HETATM   21  C8  UNK     1      -4.709  -1.774   3.550  1.00  0.00    -0.007 C 
HETATM   22  C13 UNK     1      -5.033  -3.000   3.978  1.00  0.00     0.008 C 
ENDBRANCH  20  21
ENDBRANCH  17  20
ENDBRANCH   3  12
TORSDOF 3
