REMARK  7 active torsions:
REMARK  status: ('A' for Active; 'I' for Inactive)
REMARK    1  A    between atoms: C19_25  and  O2_2 
REMARK    2  A    between atoms: C22_28  and  O2_2 
REMARK    3  A    between atoms: C20_26  and  O4_4 
REMARK    4  A    between atoms: C5_11  and  N1_5 
REMARK    5  A    between atoms: C6_12  and  N2_6 
REMARK    6  A    between atoms: C5_11  and  C7_13 
REMARK    7  A    between atoms: C6_12  and  C8_14 
ROOT
HETATM    1  N1  UNK     1       0.027  -0.393   0.651  1.00  0.00     0.096 N 
HETATM    2  N2  UNK     1       1.962   1.599  -0.153  1.00  0.00     0.096 N 
HETATM    3  C1  UNK     1       0.747  -0.501  -0.623  1.00  0.00     0.303 C 
HETATM    4  C2  UNK     1       0.842   0.320   1.642  1.00  0.00     0.303 C 
HETATM    5  C3  UNK     1       1.146   0.885  -1.143  1.00  0.00     0.303 C 
HETATM    6  C4  UNK     1       1.243   1.706   1.123  1.00  0.00     0.303 C 
ENDROOT
BRANCH   1   7
HETATM    7  C5  UNK     1      -0.353  -1.715   1.146  1.00  0.00     0.312 C 
BRANCH   7   8
HETATM    8  C7  UNK     1      -1.506  -1.653   2.087  1.00  0.00    -0.011 A 
HETATM    9  C10 UNK     1      -1.317  -1.503   3.406  1.00  0.00     0.092 A 
HETATM   10  C15 UNK     1      -2.425  -1.438   4.374  1.00  0.00     0.288 A 
HETATM   11  O1  UNK     1      -3.708  -1.538   3.859  1.00  0.00    -0.275 OA
HETATM   12  O3  UNK     1      -2.213  -1.300   5.574  1.00  0.00    -0.260 OA
HETATM   13  C11 UNK     1      -3.938  -1.696   2.478  1.00  0.00     0.090 A 
HETATM   14  C9  UNK     1      -2.878  -1.757   1.573  1.00  0.00     0.009 A 
HETATM   15  C16 UNK     1      -5.271  -1.787   2.074  1.00  0.00     0.041 A 
HETATM   16  C14 UNK     1      -3.191  -1.917   0.216  1.00  0.00     0.051 A 
HETATM   17  C19 UNK     1      -4.523  -2.010  -0.205  1.00  0.00     0.069 A 
HETATM   18  C21 UNK     1      -5.561  -1.945   0.722  1.00  0.00     0.039 A 
BRANCH  17  19
HETATM   19  O2  UNK     1      -4.805  -2.165  -1.528  1.00  0.00    -0.351 OA
BRANCH  19  20
HETATM   20  C22 UNK     1      -3.886  -1.596  -2.459  1.00  0.00     0.171 C 
HETATM   21  C24 UNK     1      -4.634  -1.212  -3.718  1.00  0.00     0.034 C 
ENDBRANCH  19  20
ENDBRANCH  17  19
ENDBRANCH   7   8
ENDBRANCH   1   7
BRANCH   2  22
HETATM   22  C6  UNK     1       2.339   2.921  -0.648  1.00  0.00     0.311 C 
BRANCH  22  23
HETATM   23  C8  UNK     1       3.457   2.845  -1.653  1.00  0.00    -0.030 A 
HETATM   24  C12 UNK     1       4.564   2.033  -1.406  1.00  0.00     0.011 A 
HETATM   25  C17 UNK     1       5.600   1.963  -2.338  1.00  0.00     0.037 A 
HETATM   26  C20 UNK     1       5.529   2.706  -3.516  1.00  0.00     0.068 A 
HETATM   27  C18 UNK     1       4.422   3.517  -3.764  1.00  0.00     0.037 A 
HETATM   28  C13 UNK     1       3.386   3.587  -2.832  1.00  0.00     0.011 A 
BRANCH  26  29
HETATM   29  O4  UNK     1       6.539   2.637  -4.426  1.00  0.00    -0.356 OA
HETATM   30  C23 UNK     1       6.402   3.421  -5.610  1.00  0.00     0.210 C 
ENDBRANCH  26  29
ENDBRANCH  22  23
ENDBRANCH   2  22
TORSDOF 7
