REMARK  4 active torsions:
REMARK  status: ('A' for Active; 'I' for Inactive)
REMARK    1  A    between atoms: C6_8  and  S1_1 
REMARK    2  A    between atoms: C1_3  and  C5_7 
REMARK    3  A    between atoms: C2_4  and  C9_11 
REMARK    4  A    between atoms: C10_12  and  C9_11 
ROOT
HETATM    1  C5  UNK     1       0.734   0.434   0.665  1.00  0.00     0.015 C 
HETATM    2  C10 UNK     1      -0.464  -0.134   0.491  1.00  0.00     0.056 C 
ENDROOT
BRANCH   1   3
HETATM    3  C1  UNK     1       1.650   0.869  -0.377  1.00  0.00    -0.036 A 
HETATM    4  C3  UNK     1       1.178   1.102  -1.669  1.00  0.00     0.012 A 
HETATM    5  C7  UNK     1       2.058   1.518  -2.668  1.00  0.00     0.019 A 
HETATM    6  C6  UNK     1       3.409   1.703  -2.376  1.00  0.00    -0.000 A 
HETATM    7  C8  UNK     1       3.881   1.470  -1.084  1.00  0.00     0.019 A 
HETATM    8  C4  UNK     1       3.002   1.053  -0.085  1.00  0.00     0.012 A 
BRANCH   6   9
HETATM    9  S1  UNK     1       4.533   2.233  -3.653  1.00  0.00    -0.134 SA
HETATM   10  C16 UNK     1       3.773   3.813  -4.088  1.00  0.00     0.095 C 
ENDBRANCH   6   9
ENDBRANCH   1   3
BRANCH   2  11
HETATM   11  C9  UNK     1      -1.286  -0.539   1.679  1.00  0.00     0.182 C 
HETATM   12  O1  UNK     1      -0.844  -0.353   2.813  1.00  0.00    -0.288 OA
BRANCH  11  13
HETATM   13  C2  UNK     1      -2.583  -1.185   1.441  1.00  0.00     0.014 A 
HETATM   14  C11 UNK     1      -2.764  -1.953   0.299  1.00  0.00     0.015 A 
HETATM   15  C13 UNK     1      -3.996  -2.566   0.072  1.00  0.00     0.001 A 
HETATM   16  C15 UNK     1      -5.034  -2.405   0.990  1.00  0.00     0.000 A 
HETATM   17  C14 UNK     1      -4.841  -1.631   2.134  1.00  0.00     0.001 A 
HETATM   18  C12 UNK     1      -3.608  -1.018   2.360  1.00  0.00     0.015 A 
ENDBRANCH  11  13
ENDBRANCH   2  11
TORSDOF 4
