REMARK  3 active torsions:
REMARK  status: ('A' for Active; 'I' for Inactive)
REMARK    1  A    between atoms: C6_9  and  N1_2 
REMARK    2  A    between atoms: C11_14  and  C12_15 
REMARK    3  A    between atoms: C13_16  and  C14_17 
ROOT
HETATM    1  N2  UNK     1      -2.990  -1.881   4.431  1.00  0.00    -0.191 NA
HETATM    2  C12 UNK     1      -0.467  -0.515   2.569  1.00  0.00     0.034 C 
HETATM    3  C13 UNK     1      -1.697  -0.993   2.368  1.00  0.00     0.055 C 
HETATM    4  C19 UNK     1      -2.410  -1.483   3.508  1.00  0.00     0.100 C 
ENDROOT
BRANCH   3   5
HETATM    5  C14 UNK     1      -2.370  -1.066   1.055  1.00  0.00    -0.015 A 
HETATM    6  C15 UNK     1      -3.146  -0.001   0.633  1.00  0.00     0.014 A 
HETATM    7  C17 UNK     1      -3.780  -0.070  -0.607  1.00  0.00     0.024 A 
HETATM    8  C20 UNK     1      -3.627  -1.203  -1.406  1.00  0.00     0.034 A 
HETATM    9  C18 UNK     1      -2.840  -2.267  -0.965  1.00  0.00     0.024 A 
HETATM   10 Cl1  UNK     1      -4.409  -1.288  -2.937  1.00  0.00    -0.084 Cl
HETATM   11  C16 UNK     1      -2.207  -2.198   0.276  1.00  0.00     0.014 A 
ENDBRANCH   3   5
BRANCH   2  12
HETATM   12  C11 UNK     1       0.369   0.026   1.509  1.00  0.00    -0.035 A 
HETATM   13  C10 UNK     1       0.334   1.391   1.222  1.00  0.00     0.013 A 
HETATM   14  C8  UNK     1       1.135   1.911   0.205  1.00  0.00     0.030 A 
HETATM   15  C6  UNK     1       1.986   1.075  -0.544  1.00  0.00     0.030 A 
HETATM   16  C7  UNK     1       2.006  -0.299  -0.238  1.00  0.00     0.030 A 
HETATM   17  C9  UNK     1       1.205  -0.818   0.779  1.00  0.00     0.013 A 
BRANCH  15  18
HETATM   18  N1  UNK     1       2.791   1.596  -1.564  1.00  0.00    -0.381 N 
HETATM   19  C4  UNK     1       3.276   2.978  -1.466  1.00  0.00     0.123 C 
HETATM   20  C2  UNK     1       4.537   3.165  -2.308  1.00  0.00     0.020 C 
HETATM   21  C1  UNK     1       4.329   2.698  -3.743  1.00  0.00     0.003 C 
HETATM   22  C3  UNK     1       3.851   1.252  -3.761  1.00  0.00     0.020 C 
HETATM   23  C5  UNK     1       2.588   1.071  -2.922  1.00  0.00     0.123 C 
ENDBRANCH  15  18
ENDBRANCH   2  12
TORSDOF 3
