REMARK  5 active torsions:
REMARK  status: ('A' for Active; 'I' for Inactive)
REMARK    1  A    between atoms: C21_27  and  O4_4 
REMARK    2  A    between atoms: C5_11  and  N1_5 
REMARK       I    between atoms: C7_13  and  N2_6 
REMARK    3  A    between atoms: C5_11  and  C6_12 
REMARK    4  A    between atoms: C6_12  and  C8_14 
REMARK    5  A    between atoms: C7_13  and  C9_15 
ROOT
HETATM    1  O1  UNK     1      -2.443  -1.411  -2.742  1.00  0.00    -0.267 OA
HETATM    2  N1  UNK     1       1.448   1.691  -2.385  1.00  0.00     0.091 N 
HETATM    3  N2  UNK     1      -0.925   0.143  -1.907  1.00  0.00    -0.344 N 
HETATM    4  C1  UNK     1       0.849   0.895  -3.465  1.00  0.00     0.292 C 
HETATM    5  C2  UNK     1       1.249   1.021  -1.093  1.00  0.00     0.292 C 
HETATM    6  C3  UNK     1      -0.648   0.710  -3.228  1.00  0.00     0.156 C 
HETATM    7  C4  UNK     1      -0.239   0.815  -0.797  1.00  0.00     0.156 C 
HETATM    8  C7  UNK     1      -1.882  -0.863  -1.791  1.00  0.00     0.260 C 
ENDROOT
BRANCH   8   9
HETATM    9  C9  UNK     1      -2.257  -1.300  -0.431  1.00  0.00     0.108 A 
HETATM   10  C10 UNK     1      -3.276  -0.645   0.139  1.00  0.00     0.037 A 
HETATM   11  C14 UNK     1      -3.719  -1.003   1.478  1.00  0.00    -0.001 A 
HETATM   12  C15 UNK     1      -3.068  -2.032   2.150  1.00  0.00     0.092 A 
HETATM   13  C18 UNK     1      -4.777  -0.347   2.112  1.00  0.00     0.017 A 
HETATM   14  O2  UNK     1      -1.997  -2.717   1.544  1.00  0.00    -0.274 OA
HETATM   15  C20 UNK     1      -3.444  -2.424   3.433  1.00  0.00     0.075 A 
HETATM   16  C13 UNK     1      -1.550  -2.398   0.264  1.00  0.00     0.304 A 
HETATM   17  O3  UNK     1      -0.616  -2.999  -0.255  1.00  0.00    -0.259 OA
HETATM   18  C21 UNK     1      -4.500  -1.764   4.058  1.00  0.00     0.070 A 
HETATM   19  C22 UNK     1      -5.165  -0.728   3.400  1.00  0.00     0.038 A 
BRANCH  18  20
HETATM   20  O4  UNK     1      -4.884  -2.130   5.312  1.00  0.00    -0.356 OA
HETATM   21  C23 UNK     1      -4.162  -3.196   5.927  1.00  0.00     0.210 C 
ENDBRANCH  18  20
ENDBRANCH   8   9
BRANCH   2  22
HETATM   22  C5  UNK     1       2.871   1.909  -2.637  1.00  0.00     0.277 C 
BRANCH  22  23
HETATM   23  C6  UNK     1       3.482   2.823  -1.574  1.00  0.00     0.068 C 
BRANCH  23  24
HETATM   24  C8  UNK     1       4.946   3.075  -1.834  1.00  0.00    -0.057 A 
HETATM   25  C11 UNK     1       5.892   2.222  -1.286  1.00  0.00     0.007 A 
HETATM   26  C16 UNK     1       7.246   2.455  -1.526  1.00  0.00     0.001 A 
HETATM   27  C19 UNK     1       7.638   3.538  -2.313  1.00  0.00     0.000 A 
HETATM   28  C17 UNK     1       6.676   4.388  -2.860  1.00  0.00     0.001 A 
HETATM   29  C12 UNK     1       5.322   4.155  -2.619  1.00  0.00     0.007 A 
ENDBRANCH  23  24
ENDBRANCH  22  23
ENDBRANCH   2  22
TORSDOF 5
