REMARK  4 active torsions:
REMARK  status: ('A' for Active; 'I' for Inactive)
REMARK    1  A    between atoms: C5_10  and  O2_2 
REMARK    2  A    between atoms: C8_13  and  O3_3 
REMARK    3  A    between atoms: C2_7  and  N1_5 
REMARK    4  A    between atoms: C1_6  and  C2_7 
ROOT
HETATM    1  O1  UNK     1      -1.373  -0.663  -1.233  1.00  0.00    -0.274 OA
HETATM    2  O4  UNK     1      -3.438  -1.474  -1.785  1.00  0.00    -0.260 OA
HETATM    3  C1  UNK     1       0.784   0.185  -0.661  1.00  0.00     0.041 A 
HETATM    4  C3  UNK     1      -0.465  -0.267  -0.230  1.00  0.00     0.101 A 
HETATM    5  C4  UNK     1      -0.810  -0.329   1.121  1.00  0.00     0.007 A 
HETATM    6  C5  UNK     1       1.722   0.589   0.283  1.00  0.00     0.109 A 
HETATM    7  C6  UNK     1      -2.148  -0.817   1.483  1.00  0.00    -0.043 A 
HETATM    8  C7  UNK     1       0.148   0.083   2.056  1.00  0.00     0.054 A 
HETATM    9  C8  UNK     1       1.405   0.538   1.640  1.00  0.00     0.100 A 
HETATM   10  C9  UNK     1      -2.990  -1.187   0.509  1.00  0.00     0.090 A 
HETATM   11  C12 UNK     1      -2.550  -0.896   2.927  1.00  0.00     0.049 C 
HETATM   12  C13 UNK     1      -2.641  -1.128  -0.921  1.00  0.00     0.288 A 
ENDROOT
BRANCH   3  13
HETATM   13  C2  UNK     1       1.113   0.237  -2.117  1.00  0.00     0.315 C 
BRANCH  13  14
HETATM   14  N1  UNK     1       1.757   1.471  -2.487  1.00  0.00     0.084 N 
HETATM   15  C10 UNK     1       0.897   2.628  -2.197  1.00  0.00     0.309 C 
HETATM   16  C11 UNK     1       2.125   1.475  -3.911  1.00  0.00     0.309 C 
ENDBRANCH  13  14
ENDBRANCH   3  13
BRANCH   6  17
HETATM   17  O2  UNK     1       2.948   1.035  -0.110  1.00  0.00    -0.357 OA
HETATM   18  H14 UNK     1       3.586   0.917   0.612  1.00  0.00     0.217 HD
ENDBRANCH   6  17
BRANCH   9  19
HETATM   19  O3  UNK     1       2.314   0.931   2.576  1.00  0.00    -0.358 OA
HETATM   20  H15 UNK     1       2.955   1.539   2.173  1.00  0.00     0.217 HD
ENDBRANCH   9  19
TORSDOF 4
