REMARK  6 active torsions:
REMARK  status: ('A' for Active; 'I' for Inactive)
REMARK    1  A    between atoms: C11_20  and  O2_3 
REMARK    2  A    between atoms: C13_22  and  O3_4 
REMARK    3  A    between atoms: C3_12  and  N1_9 
REMARK       I    between atoms: C8_17  and  N1_9 
REMARK    4  A    between atoms: C11_20  and  C2_11 
REMARK    5  A    between atoms: C13_22  and  C4_13 
REMARK    6  A    between atoms: C5_14  and  C8_17 
ROOT
HETATM    1  O4  UNK     1      -0.892   0.388  -2.094  1.00  0.00    -0.267 OA
HETATM    2  N1  UNK     1      -0.193   0.156   0.148  1.00  0.00    -0.316 N 
HETATM    3  C8  UNK     1      -0.078   0.531  -1.183  1.00  0.00     0.262 C 
HETATM    4  H1  UNK     1       0.580   0.325   0.786  1.00  0.00     0.169 HD
ENDROOT
BRANCH   2   5
HETATM    5  C3  UNK     1      -1.292  -0.480   0.733  1.00  0.00     0.094 A 
HETATM    6  C2  UNK     1      -1.498  -0.884   2.014  1.00  0.00     0.080 A 
HETATM    7  C1  UNK     1      -2.777  -1.494   2.161  1.00  0.00    -0.020 A 
HETATM    8  C4  UNK     1      -3.477  -1.520   0.975  1.00  0.00     0.089 A 
HETATM    9  C6  UNK     1      -3.295  -2.037   3.442  1.00  0.00     0.051 C 
HETATM   10  S1  UNK     1      -2.593  -0.811  -0.309  1.00  0.00    -0.065 SA
BRANCH   6  11
HETATM   11  C11 UNK     1      -0.530  -0.705   3.067  1.00  0.00     0.296 C 
HETATM   12  O5  UNK     1      -0.828  -0.551   4.261  1.00  0.00    -0.259 OA
BRANCH  11  13
HETATM   13  O2  UNK     1       0.778  -0.719   2.633  1.00  0.00    -0.322 OA
HETATM   14  C18 UNK     1       1.792  -0.547   3.629  1.00  0.00     0.213 C 
ENDBRANCH  11  13
ENDBRANCH   6  11
BRANCH   8  15
HETATM   15  C13 UNK     1      -4.780  -2.039   0.705  1.00  0.00     0.300 C 
HETATM   16  O7  UNK     1      -5.709  -2.080   1.537  1.00  0.00    -0.259 OA
BRANCH  15  17
HETATM   17  O3  UNK     1      -4.953  -2.510  -0.584  1.00  0.00    -0.322 OA
HETATM   18  C19 UNK     1      -6.237  -3.046  -0.923  1.00  0.00     0.213 C 
ENDBRANCH  15  17
ENDBRANCH   8  15
ENDBRANCH   2   5
BRANCH   3  19
HETATM   19  C5  UNK     1       1.211   1.176  -1.460  1.00  0.00     0.108 A 
HETATM   20  C12 UNK     1       1.937   1.954  -0.431  1.00  0.00     0.304 A 
HETATM   21  O1  UNK     1       3.151   2.518  -0.814  1.00  0.00    -0.274 OA
HETATM   22  O6  UNK     1       1.496   2.098   0.704  1.00  0.00    -0.259 OA
HETATM   23  C10 UNK     1       3.667   2.358  -2.115  1.00  0.00     0.089 A 
HETATM   24  C7  UNK     1       2.968   1.623  -3.067  1.00  0.00    -0.001 A 
HETATM   25  C15 UNK     1       4.890   2.959  -2.405  1.00  0.00     0.038 A 
HETATM   26  C14 UNK     1       3.512   1.487  -4.347  1.00  0.00     0.014 A 
HETATM   27  C9  UNK     1       1.696   1.021  -2.697  1.00  0.00     0.037 A 
HETATM   28  C16 UNK     1       4.738   2.084  -4.653  1.00  0.00     0.001 A 
HETATM   29  C17 UNK     1       5.425   2.819  -3.684  1.00  0.00     0.003 A 
ENDBRANCH   3  19
TORSDOF 6
