REMARK  7 active torsions:
REMARK  status: ('A' for Active; 'I' for Inactive)
REMARK    1  A    between atoms: C6_16  and  N1_7 
REMARK       I    between atoms: C7_17  and  N2_8 
REMARK    2  A    between atoms: N2_8  and  N3_9 
REMARK    3  A    between atoms: C14_24  and  N3_9 
REMARK    4  A    between atoms: C14_24  and  N4_10 
REMARK    5  A    between atoms: C15_25  and  N4_10 
REMARK    6  A    between atoms: C1_11  and  C7_17 
REMARK    7  A    between atoms: C6_16  and  C8_18 
ROOT
HETATM    1  O1  UNK     1       2.492  -0.497  -0.040  1.00  0.00    -0.271 OA
HETATM    2  N2  UNK     1       0.221  -0.146   0.307  1.00  0.00    -0.268 N 
HETATM    3  C7  UNK     1       1.387  -0.130  -0.433  1.00  0.00     0.240 C 
HETATM    4  H12 UNK     1      -0.655   0.244  -0.020  1.00  0.00     0.190 HD
ENDROOT
BRANCH   2   5
HETATM    5  N3  UNK     1       0.259  -0.607   1.602  1.00  0.00    -0.274 N 
HETATM    6  H14 UNK     1       1.123  -0.457   2.113  1.00  0.00     0.189 HD
BRANCH   5   7
HETATM    7  C14 UNK     1      -0.830  -1.242   2.188  1.00  0.00     0.191 C 
HETATM    8  S1  UNK     1      -0.650  -1.749   3.776  1.00  0.00    -0.039 SA
BRANCH   7   9
HETATM    9  N4  UNK     1      -1.938  -1.336   1.352  1.00  0.00    -0.332 N 
HETATM   10  H17 UNK     1      -1.713  -1.195   0.371  1.00  0.00     0.168 HD
BRANCH   9  11
HETATM   11  C15 UNK     1      -3.248  -1.846   1.529  1.00  0.00     0.037 A 
HETATM   12  C18 UNK     1      -3.808  -1.851   2.790  1.00  0.00     0.067 A 
HETATM   13  C17 UNK     1      -5.100  -2.357   2.941  1.00  0.00     0.092 A 
HETATM   14  C16 UNK     1      -5.836  -2.854   1.865  1.00  0.00     0.004 A 
HETATM   15  O2  UNK     1      -5.634  -2.344   4.245  1.00  0.00    -0.275 OA
HETATM   16  C20 UNK     1      -7.190  -3.368   2.116  1.00  0.00    -0.043 A 
HETATM   17  C21 UNK     1      -5.234  -2.832   0.600  1.00  0.00     0.017 A 
HETATM   18  C22 UNK     1      -7.672  -3.342   3.366  1.00  0.00     0.090 A 
HETATM   19  C23 UNK     1      -8.008  -3.909   0.980  1.00  0.00     0.049 C 
HETATM   20  C24 UNK     1      -6.907  -2.821   4.512  1.00  0.00     0.288 A 
HETATM   21  O3  UNK     1      -7.382  -2.814   5.643  1.00  0.00    -0.260 OA
HETATM   22  C19 UNK     1      -3.940  -2.327   0.432  1.00  0.00     0.030 A 
ENDBRANCH   9  11
ENDBRANCH   7   9
ENDBRANCH   5   7
ENDBRANCH   2   5
BRANCH   3  23
HETATM   23  C1  UNK     1       1.172   0.372  -1.831  1.00  0.00     0.083 C 
HETATM   24  C2  UNK     1       0.608   1.792  -1.828  1.00  0.00     0.044 C 
HETATM   25  C4  UNK     1       1.668   2.855  -1.526  1.00  0.00     0.273 C 
HETATM   26  N1  UNK     1       2.824   2.727  -2.422  1.00  0.00     0.092 N 
HETATM   27  C5  UNK     1       3.454   1.408  -2.279  1.00  0.00     0.273 C 
HETATM   28  C3  UNK     1       2.472   0.287  -2.630  1.00  0.00     0.044 C 
BRANCH  26  29
HETATM   29  C6  UNK     1       3.795   3.789  -2.157  1.00  0.00     0.312 C 
BRANCH  29  30
HETATM   30  C8  UNK     1       4.961   3.732  -3.108  1.00  0.00    -0.008 A 
HETATM   31  C10 UNK     1       4.692   3.539  -4.458  1.00  0.00     0.013 A 
HETATM   32  C12 UNK     1       5.746   3.478  -5.370  1.00  0.00     0.043 A 
HETATM   33  C13 UNK     1       7.061   3.612  -4.925  1.00  0.00     0.118 A 
HETATM   34  C11 UNK     1       7.322   3.805  -3.568  1.00  0.00     0.066 A 
HETATM   35  F1  UNK     1       8.073   3.558  -5.800  1.00  0.00    -0.206 F 
HETATM   36  C9  UNK     1       6.268   3.866  -2.657  1.00  0.00     0.045 A 
HETATM   37 Cl1  UNK     1       6.630   4.108  -0.986  1.00  0.00    -0.084 Cl
ENDBRANCH  29  30
ENDBRANCH  26  29
ENDBRANCH   3  23
TORSDOF 7
