REMARK  3 active torsions:
REMARK  status: ('A' for Active; 'I' for Inactive)
REMARK    1  A    between atoms: C3_9  and  N1_6 
REMARK       I    between atoms: C7_13  and  N1_6 
REMARK    2  A    between atoms: C1_7  and  C3_9 
REMARK    3  A    between atoms: C7_13  and  C8_14 
ROOT
HETATM    1 Br1  UNK     1       4.185   4.243  -3.513  1.00  0.00    -0.051 Br
HETATM    2  O3  UNK     1       2.265  -0.182   0.167  1.00  0.00    -0.274 OA
HETATM    3  O4  UNK     1       0.619  -1.600   0.875  1.00  0.00    -0.259 OA
HETATM    4  C8  UNK     1       0.064  -0.128  -0.897  1.00  0.00     0.108 A 
HETATM    5  C9  UNK     1       0.457   0.849  -1.722  1.00  0.00     0.037 A 
HETATM    6  C10 UNK     1       1.812   1.375  -1.644  1.00  0.00     0.000 A 
HETATM    7  C11 UNK     1       0.976  -0.705   0.116  1.00  0.00     0.304 A 
HETATM    8  C12 UNK     1       2.685   0.846  -0.699  1.00  0.00     0.089 A 
HETATM    9  C13 UNK     1       2.265   2.393  -2.486  1.00  0.00     0.033 A 
HETATM   10  C14 UNK     1       3.995   1.304  -0.574  1.00  0.00     0.039 A 
HETATM   11  C15 UNK     1       3.576   2.864  -2.371  1.00  0.00     0.011 A 
HETATM   12  C16 UNK     1       4.439   2.320  -1.417  1.00  0.00     0.022 A 
ENDROOT
BRANCH   4  13
HETATM   13  C7  UNK     1      -1.320  -0.591  -1.052  1.00  0.00     0.258 C 
HETATM   14  O2  UNK     1      -1.881  -0.548  -2.145  1.00  0.00    -0.267 OA
HETATM   15  N1  UNK     1      -1.869  -1.052   0.131  1.00  0.00    -0.350 N 
HETATM   16  H12 UNK     1      -1.310  -1.069   0.978  1.00  0.00     0.163 HD
BRANCH  15  17
HETATM   17  C3  UNK     1      -3.220  -1.557   0.228  1.00  0.00     0.109 C 
HETATM   18  C6  UNK     1      -3.245  -3.049  -0.073  1.00  0.00     0.035 C 
BRANCH  17  19
HETATM   19  C1  UNK     1      -3.803  -1.261   1.596  1.00  0.00     0.143 C 
HETATM   20  O1  UNK     1      -3.028  -1.923   2.610  1.00  0.00    -0.384 OA
HETATM   21  C5  UNK     1      -2.871  -1.026   3.719  1.00  0.00     0.168 C 
HETATM   22  C4  UNK     1      -3.777   0.159   3.461  1.00  0.00     0.029 C 
HETATM   23  C2  UNK     1      -3.794   0.215   1.954  1.00  0.00     0.036 C 
ENDBRANCH  17  19
ENDBRANCH  15  17
ENDBRANCH   4  13
TORSDOF 3
