REMARK  5 active torsions:
REMARK  status: ('A' for Active; 'I' for Inactive)
REMARK    1  A    between atoms: C1_8  and  N1_4 
REMARK    2  A    between atoms: C2_9  and  N1_4 
REMARK    3  A    between atoms: C3_10  and  N1_4 
REMARK    4  A    between atoms: C12_19  and  C14_21 
REMARK    5  A    between atoms: C15_22  and  C16_23 
ROOT
HETATM    1  O1  UNK     1       1.799   0.216   0.350  1.00  0.00    -0.274 OA
HETATM    2  O3  UNK     1       0.438  -1.030   1.693  1.00  0.00    -0.259 OA
HETATM    3  C1  UNK     1       3.485   2.203  -2.238  1.00  0.00     0.032 A 
HETATM    4  C4  UNK     1       0.988   1.012  -1.796  1.00  0.00    -0.001 A 
HETATM    5  C5  UNK     1       2.005   0.917  -0.853  1.00  0.00     0.091 A 
HETATM    6  C6  UNK     1       3.252   1.503  -1.056  1.00  0.00     0.067 A 
HETATM    7  C7  UNK     1       2.476   2.308  -3.198  1.00  0.00     0.030 A 
HETATM    8  C8  UNK     1       1.230   1.716  -2.979  1.00  0.00     0.016 A 
HETATM    9  C9  UNK     1      -0.291   0.379  -1.517  1.00  0.00     0.036 A 
HETATM   10  C12 UNK     1      -0.489  -0.291  -0.372  1.00  0.00     0.095 A 
HETATM   11  C13 UNK     1       0.591  -0.410   0.645  1.00  0.00     0.303 A 
ENDROOT
BRANCH  10  12
HETATM   12  C14 UNK     1      -1.762  -0.895  -0.126  1.00  0.00     0.209 A 
HETATM   13  O2  UNK     1      -2.252  -1.047   1.139  1.00  0.00    -0.268 OA
HETATM   14  C15 UNK     1      -3.449  -1.647   0.894  1.00  0.00     0.204 A 
HETATM   15  N3  UNK     1      -3.683  -1.849  -0.382  1.00  0.00    -0.121 NA
HETATM   16  N2  UNK     1      -2.579  -1.357  -1.052  1.00  0.00    -0.121 NA
BRANCH  14  17
HETATM   17  C16 UNK     1      -4.245  -1.957   2.046  1.00  0.00     0.036 A 
HETATM   18  C17 UNK     1      -5.489  -2.572   1.921  1.00  0.00     0.019 A 
HETATM   19  C19 UNK     1      -6.238  -2.859   3.057  1.00  0.00     0.020 A 
HETATM   20  C20 UNK     1      -5.706  -2.515   4.289  1.00  0.00     0.116 A 
HETATM   21  N4  UNK     1      -4.504  -1.918   4.454  1.00  0.00    -0.272 NA
HETATM   22  C18 UNK     1      -3.805  -1.654   3.328  1.00  0.00     0.132 A 
ENDBRANCH  14  17
ENDBRANCH  10  12
BRANCH   3  23
HETATM   23  N1  UNK     1       4.741   2.804  -2.467  1.00  0.00    -0.382 N 
BRANCH  23  24
HETATM   24  C2  UNK     1       5.790   2.712  -1.472  1.00  0.00     0.118 C 
HETATM   25  C10 UNK     1       5.572   3.747  -0.386  1.00  0.00     0.026 C 
ENDBRANCH  23  24
BRANCH  23  26
HETATM   26  C3  UNK     1       4.992   3.533  -3.694  1.00  0.00     0.118 C 
HETATM   27  C11 UNK     1       5.329   2.568  -4.815  1.00  0.00     0.026 C 
ENDBRANCH  23  26
ENDBRANCH   3  23
TORSDOF 5
