REMARK  7 active torsions:
REMARK  status: ('A' for Active; 'I' for Inactive)
REMARK    1  A    between atoms: C15_22  and  O3_3 
REMARK    2  A    between atoms: C21_28  and  O3_3 
REMARK    3  A    between atoms: C5_12  and  N1_5 
REMARK    4  A    between atoms: C6_13  and  N2_6 
REMARK    5  A    between atoms: C17_24  and  N3_7 
REMARK       I    between atoms: C9_16  and  N3_7 
REMARK    6  A    between atoms: C5_12  and  C7_14 
REMARK    7  A    between atoms: C6_13  and  C9_16 
ROOT
HETATM    1  N1  UNK     1       1.078  -0.597  -1.250  1.00  0.00     0.096 N 
HETATM    2  N2  UNK     1      -1.601  -1.655  -0.996  1.00  0.00     0.100 N 
HETATM    3  C1  UNK     1       0.482  -1.423  -2.307  1.00  0.00     0.303 C 
HETATM    4  C2  UNK     1       0.522  -0.959   0.060  1.00  0.00     0.303 C 
HETATM    5  C3  UNK     1      -1.045  -1.292  -2.306  1.00  0.00     0.303 C 
HETATM    6  C4  UNK     1      -1.005  -0.827   0.060  1.00  0.00     0.303 C 
ENDROOT
BRANCH   1   7
HETATM    7  C5  UNK     1       2.534  -0.726  -1.249  1.00  0.00     0.312 C 
BRANCH   7   8
HETATM    8  C7  UNK     1       3.199   0.410  -0.552  1.00  0.00    -0.011 A 
HETATM    9  C10 UNK     1       3.455   0.361   0.763  1.00  0.00     0.092 A 
HETATM   10  C13 UNK     1       4.109   1.459   1.495  1.00  0.00     0.288 A 
HETATM   11  O1  UNK     1       4.462   2.577   0.756  1.00  0.00    -0.275 OA
HETATM   12  O4  UNK     1       4.328   1.378   2.699  1.00  0.00    -0.260 OA
HETATM   13  C11 UNK     1       4.205   2.658  -0.627  1.00  0.00     0.090 A 
HETATM   14  C8  UNK     1       3.583   1.610  -1.308  1.00  0.00     0.009 A 
HETATM   15  C14 UNK     1       4.602   3.833  -1.269  1.00  0.00     0.041 A 
HETATM   16  C12 UNK     1       3.362   1.769  -2.682  1.00  0.00     0.051 A 
HETATM   17  C15 UNK     1       3.754   2.941  -3.340  1.00  0.00     0.069 A 
HETATM   18  C16 UNK     1       4.374   3.971  -2.634  1.00  0.00     0.039 A 
BRANCH  17  19
HETATM   19  O3  UNK     1       3.530   3.075  -4.676  1.00  0.00    -0.351 OA
BRANCH  19  20
HETATM   20  C21 UNK     1       3.315   4.396  -5.168  1.00  0.00     0.171 C 
HETATM   21  C25 UNK     1       2.416   4.329  -6.384  1.00  0.00     0.034 C 
ENDBRANCH  19  20
ENDBRANCH  17  19
ENDBRANCH   7   8
ENDBRANCH   1   7
BRANCH   2  22
HETATM   22  C6  UNK     1      -3.057  -1.528  -0.996  1.00  0.00     0.375 C 
BRANCH  22  23
HETATM   23  C9  UNK     1      -3.636  -2.350   0.142  1.00  0.00     0.250 C 
HETATM   24  O2  UNK     1      -3.469  -3.562   0.234  1.00  0.00    -0.271 OA
HETATM   25  N3  UNK     1      -4.344  -1.529   1.017  1.00  0.00    -0.326 N 
HETATM   26  H15 UNK     1      -4.387  -0.535   0.808  1.00  0.00     0.169 HD
BRANCH  25  27
HETATM   27  C17 UNK     1      -5.028  -1.911   2.196  1.00  0.00     0.035 A 
HETATM   28  C18 UNK     1      -5.691  -0.951   2.961  1.00  0.00     0.036 A 
HETATM   29  C20 UNK     1      -6.365  -1.328   4.122  1.00  0.00    -0.060 A 
HETATM   30  C23 UNK     1      -6.377  -2.666   4.518  1.00  0.00     0.007 A 
HETATM   31  C24 UNK     1      -7.073  -0.302   4.940  1.00  0.00     0.048 C 
HETATM   32  C22 UNK     1      -5.714  -3.626   3.754  1.00  0.00     0.003 A 
HETATM   33  C19 UNK     1      -5.040  -3.248   2.592  1.00  0.00     0.029 A 
ENDBRANCH  25  27
ENDBRANCH  22  23
ENDBRANCH   2  22
TORSDOF 7
