REMARK  6 active torsions:
REMARK  status: ('A' for Active; 'I' for Inactive)
REMARK    1  A    between atoms: C8_13  and  N1_4 
REMARK    2  A    between atoms: C9_14  and  N1_4 
REMARK    3  A    between atoms: C11_16  and  N2_5 
REMARK    4  A    between atoms: C9_14  and  N2_5 
REMARK    5  A    between atoms: C4_9  and  C6_11 
REMARK    6  A    between atoms: C6_11  and  C8_13 
ROOT
HETATM    1  N2  UNK     1      -0.106   1.047  -0.140  1.00  0.00    -0.333 N 
HETATM    2  H15 UNK     1      -0.214   1.528  -1.028  1.00  0.00     0.168 HD
ENDROOT
BRANCH   1   3
HETATM    3  C11 UNK     1      -1.179   0.194   0.120  1.00  0.00     0.036 A 
HETATM    4  C13 UNK     1      -1.412  -0.261   1.414  1.00  0.00     0.067 A 
HETATM    5  C12 UNK     1      -2.492  -1.113   1.652  1.00  0.00     0.092 A 
HETATM    6  C10 UNK     1      -3.352  -1.529   0.635  1.00  0.00     0.004 A 
HETATM    7  O1  UNK     1      -2.676  -1.540   2.982  1.00  0.00    -0.275 OA
HETATM    8  C14 UNK     1      -4.464  -2.427   0.976  1.00  0.00    -0.043 A 
HETATM    9  C15 UNK     1      -3.101  -1.059  -0.661  1.00  0.00     0.017 A 
HETATM   10  C17 UNK     1      -4.615  -2.817   2.250  1.00  0.00     0.090 A 
HETATM   11  C18 UNK     1      -5.407  -2.891  -0.095  1.00  0.00     0.049 C 
HETATM   12  C19 UNK     1      -3.716  -2.387   3.334  1.00  0.00     0.288 A 
HETATM   13  O2  UNK     1      -3.886  -2.765   4.488  1.00  0.00    -0.260 OA
HETATM   14  C16 UNK     1      -2.022  -0.204  -0.916  1.00  0.00     0.030 A 
ENDBRANCH   1   3
BRANCH   1  15
HETATM   15  C9  UNK     1       1.187   1.142   0.402  1.00  0.00     0.172 C 
HETATM   16  S1  UNK     1       1.885   0.163   1.575  1.00  0.00    -0.041 SA
BRANCH  15  17
HETATM   17  N1  UNK     1       1.984   2.147  -0.132  1.00  0.00    -0.367 N 
HETATM   18  H14 UNK     1       2.927   2.220   0.238  1.00  0.00     0.161 HD
BRANCH  17  19
HETATM   19  C8  UNK     1       1.622   3.090  -1.172  1.00  0.00     0.126 C 
BRANCH  19  20
HETATM   20  C6  UNK     1       1.871   2.541  -2.573  1.00  0.00     0.053 C 
BRANCH  20  21
HETATM   21  C4  UNK     1       3.313   2.218  -2.828  1.00  0.00    -0.082 C 
HETATM   22  C2  UNK     1       4.291   3.353  -2.651  1.00  0.00     0.034 C 
HETATM   23  C1  UNK     1       5.678   3.064  -3.232  1.00  0.00     0.005 C 
HETATM   24  C3  UNK     1       6.135   1.651  -2.892  1.00  0.00     0.004 C 
HETATM   25  C5  UNK     1       5.147   0.611  -3.422  1.00  0.00     0.027 C 
HETATM   26  C7  UNK     1       3.712   0.987  -3.192  1.00  0.00    -0.024 C 
ENDBRANCH  20  21
ENDBRANCH  19  20
ENDBRANCH  17  19
ENDBRANCH  15  17
ENDBRANCH   1  15
TORSDOF 6
