REMARK  3 active torsions:
REMARK  status: ('A' for Active; 'I' for Inactive)
REMARK    1  A    between atoms: C3_8  and  N1_4 
REMARK    2  A    between atoms: N1_4  and  N2_5 
REMARK    3  A    between atoms: C12_17  and  N2_5 
ROOT
HETATM    1  O1  UNK     1       2.323   1.674   0.359  1.00  0.00    -0.274 OA
HETATM    2  O2  UNK     1       0.488   0.384  -3.079  1.00  0.00    -0.286 OA
HETATM    3  O3  UNK     1       0.477   1.214   1.619  1.00  0.00    -0.259 OA
HETATM    4  C1  UNK     1       0.367   0.757  -0.723  1.00  0.00     0.114 A 
HETATM    5  C2  UNK     1       2.406   1.275  -2.060  1.00  0.00     0.049 A 
HETATM    6  C3  UNK     1      -0.892   0.303  -0.646  1.00  0.00     0.042 C 
HETATM    7  C4  UNK     1       1.029   0.766  -2.050  1.00  0.00     0.203 A 
HETATM    8  C5  UNK     1       2.996   1.704  -0.878  1.00  0.00     0.093 A 
HETATM    9  C6  UNK     1       1.019   1.219   0.520  1.00  0.00     0.304 A 
HETATM   10  C7  UNK     1       3.132   1.333  -3.253  1.00  0.00     0.018 A 
HETATM   11  C8  UNK     1       4.303   2.192  -0.863  1.00  0.00     0.038 A 
HETATM   12  C9  UNK     1      -1.608  -0.181  -1.877  1.00  0.00     0.071 C 
HETATM   13  C10 UNK     1       4.441   1.820  -3.246  1.00  0.00     0.001 A 
HETATM   14  C11 UNK     1       5.026   2.249  -2.054  1.00  0.00     0.003 A 
ENDROOT
BRANCH   6  15
HETATM   15  N1  UNK     1      -1.605   0.245   0.520  1.00  0.00    -0.304 N 
HETATM   16  H2  UNK     1      -1.184   0.602   1.369  1.00  0.00     0.186 HD
BRANCH  15  17
HETATM   17  N2  UNK     1      -2.877  -0.175   0.623  1.00  0.00    -0.301 N 
HETATM   18  H8  UNK     1      -3.592   0.394   0.182  1.00  0.00     0.187 HD
BRANCH  17  19
HETATM   19  C12 UNK     1      -3.314  -1.242   1.425  1.00  0.00     0.048 A 
HETATM   20  C14 UNK     1      -2.390  -2.003   2.148  1.00  0.00     0.031 A 
HETATM   21  C16 UNK     1      -2.824  -3.063   2.945  1.00  0.00     0.002 A 
HETATM   22  C17 UNK     1      -4.183  -3.366   3.022  1.00  0.00     0.000 A 
HETATM   23  C15 UNK     1      -5.108  -2.610   2.303  1.00  0.00     0.002 A 
HETATM   24  C13 UNK     1      -4.675  -1.551   1.506  1.00  0.00     0.031 A 
ENDBRANCH  17  19
ENDBRANCH  15  17
ENDBRANCH   6  15
TORSDOF 3
