REMARK  2 active torsions:
REMARK  status: ('A' for Active; 'I' for Inactive)
REMARK    1  A    between atoms: C5_9  and  N1_4 
REMARK       I    between atoms: C6_10  and  N1_4 
REMARK    2  A    between atoms: C2_6  and  C6_10 
ROOT
HETATM    1  O1  UNK     1       0.986   1.366  -2.658  1.00  0.00    -0.274 OA
HETATM    2  O3  UNK     1      -1.096   0.755  -1.944  1.00  0.00    -0.259 OA
HETATM    3  C1  UNK     1       2.837   1.387  -1.082  1.00  0.00    -0.001 A 
HETATM    4  C2  UNK     1       0.630   0.737  -0.322  1.00  0.00     0.108 A 
HETATM    5  C3  UNK     1       2.347   1.587  -2.369  1.00  0.00     0.089 A 
HETATM    6  C4  UNK     1       1.922   0.946  -0.041  1.00  0.00     0.037 A 
HETATM    7  C8  UNK     1       4.192   1.617  -0.834  1.00  0.00     0.014 A 
HETATM    8  C10 UNK     1       0.087   0.944  -1.683  1.00  0.00     0.304 A 
HETATM    9  C11 UNK     1       3.170   2.010  -3.410  1.00  0.00     0.038 A 
HETATM   10  C14 UNK     1       5.031   2.041  -1.869  1.00  0.00     0.001 A 
HETATM   11  C15 UNK     1       4.520   2.237  -3.154  1.00  0.00     0.003 A 
ENDROOT
BRANCH   4  12
HETATM   12  C6  UNK     1      -0.213   0.294   0.795  1.00  0.00     0.262 C 
HETATM   13  O2  UNK     1       0.065   0.644   1.940  1.00  0.00    -0.267 OA
HETATM   14  N1  UNK     1      -1.264  -0.504   0.364  1.00  0.00    -0.323 N 
HETATM   15  H2  UNK     1      -1.344  -0.721  -0.626  1.00  0.00     0.169 HD
BRANCH  14  16
HETATM   16  C5  UNK     1      -2.244  -1.084   1.175  1.00  0.00     0.035 A 
HETATM   17  C12 UNK     1      -2.216  -0.878   2.553  1.00  0.00     0.029 A 
HETATM   18  C16 UNK     1      -3.193  -1.456   3.362  1.00  0.00     0.003 A 
HETATM   19  C13 UNK     1      -4.197  -2.239   2.793  1.00  0.00     0.007 A 
HETATM   20  C7  UNK     1      -4.223  -2.444   1.413  1.00  0.00    -0.060 A 
HETATM   21  C17 UNK     1      -5.297  -3.282   0.804  1.00  0.00     0.048 C 
HETATM   22  C9  UNK     1      -3.246  -1.866   0.603  1.00  0.00     0.036 A 
ENDBRANCH  14  16
ENDBRANCH   4  12
TORSDOF 2
