REMARK  0 active torsions:
REMARK  status: ('A' for Active; 'I' for Inactive)
ROOT
HETATM    1 Br1  UNK     1       3.625   2.045  -1.785  1.00  0.00    -0.045 Br
HETATM    2 Cl1  UNK     1      -1.988  -1.134   3.065  1.00  0.00    -0.084 Cl
HETATM    3  O1  UNK     1      -0.116   0.357  -2.313  1.00  0.00    -0.320 OA
HETATM    4  O2  UNK     1       2.314   1.125   0.878  1.00  0.00    -0.286 OA
HETATM    5  C1  UNK     1       0.271   0.262   0.084  1.00  0.00     0.051 A 
HETATM    6  C2  UNK     1      -0.517   0.024  -1.044  1.00  0.00     0.089 A 
HETATM    7  C3  UNK     1      -2.231  -0.938   0.358  1.00  0.00    -0.038 A 
HETATM    8  C4  UNK     1      -1.769  -0.576  -0.908  1.00  0.00     0.046 A 
HETATM    9  C5  UNK     1      -0.190  -0.099   1.352  1.00  0.00     0.042 A 
HETATM   10  C6  UNK     1      -1.443  -0.699   1.485  1.00  0.00     0.041 A 
HETATM   11  C7  UNK     1       1.592   0.898  -0.083  1.00  0.00     0.204 A 
HETATM   12  C8  UNK     1      -3.578  -1.577   0.464  1.00  0.00     0.050 C 
HETATM   13  C9  UNK     1       1.978   1.239  -1.475  1.00  0.00     0.084 A 
HETATM   14  C10 UNK     1       1.116   0.949  -2.456  1.00  0.00     0.165 A 
ENDROOT
TORSDOF 0
