REMARK  1 active torsions:
REMARK  status: ('A' for Active; 'I' for Inactive)
REMARK       I    between atoms: C7_11  and  N1_4 
REMARK    1  A    between atoms: C7_11  and  C8_12 
ROOT
HETATM    1  O2  UNK     1       0.790   1.823  -2.299  1.00  0.00    -0.274 OA
HETATM    2  O3  UNK     1      -1.309   1.039  -2.749  1.00  0.00    -0.259 OA
HETATM    3  C8  UNK     1      -0.051  -0.156  -1.136  1.00  0.00     0.108 A 
HETATM    4  C9  UNK     1       1.092  -0.273  -0.451  1.00  0.00     0.037 A 
HETATM    5  C10 UNK     1      -0.262   0.929  -2.120  1.00  0.00     0.304 A 
HETATM    6  C11 UNK     1       2.173   0.678  -0.661  1.00  0.00    -0.001 A 
HETATM    7  C12 UNK     1       1.996   1.706  -1.582  1.00  0.00     0.089 A 
HETATM    8  C13 UNK     1       3.384   0.594   0.032  1.00  0.00     0.014 A 
HETATM    9  C14 UNK     1       2.991   2.649  -1.829  1.00  0.00     0.038 A 
HETATM   10  C15 UNK     1       4.391   1.534  -0.206  1.00  0.00     0.001 A 
HETATM   11  C16 UNK     1       4.195   2.559  -1.134  1.00  0.00     0.003 A 
ENDROOT
BRANCH   3  12
HETATM   12  C7  UNK     1      -1.088  -1.169  -0.852  1.00  0.00     0.259 C 
HETATM   13  O1  UNK     1      -1.082  -2.195  -1.535  1.00  0.00    -0.267 OA
HETATM   14  N1  UNK     1      -2.003  -0.896   0.162  1.00  0.00    -0.348 N 
HETATM   15  C4  UNK     1      -3.047  -1.880   0.463  1.00  0.00     0.126 C 
HETATM   16  C5  UNK     1      -2.065   0.330   0.970  1.00  0.00     0.126 C 
HETATM   17  C2  UNK     1      -3.055  -2.247   1.943  1.00  0.00     0.024 C 
HETATM   18  C1  UNK     1      -3.182  -0.994   2.820  1.00  0.00    -0.015 C 
HETATM   19  C3  UNK     1      -2.075   0.007   2.465  1.00  0.00     0.024 C 
HETATM   20  C6  UNK     1      -3.130  -1.359   4.302  1.00  0.00     0.010 C 
ENDBRANCH   3  12
TORSDOF 1
