REMARK  3 active torsions:
REMARK  status: ('A' for Active; 'I' for Inactive)
REMARK    1  A    between atoms: C1_3  and  N1_1 
REMARK    2  A    between atoms: C2_4  and  C7_9 
REMARK    3  A    between atoms: C10_12  and  C11_13 
ROOT
HETATM    1  N2  UNK     1      -6.215  -3.042   2.926  1.00  0.00    -0.191 NA
HETATM    2  C10 UNK     1      -1.674  -0.806   1.102  1.00  0.00    -0.036 A 
HETATM    3  C12 UNK     1      -2.852  -0.694   0.363  1.00  0.00     0.013 A 
HETATM    4  C13 UNK     1      -1.673  -1.498   2.313  1.00  0.00     0.013 A 
HETATM    5  C14 UNK     1      -4.029  -1.273   0.836  1.00  0.00     0.023 A 
HETATM    6  C15 UNK     1      -2.850  -2.078   2.786  1.00  0.00     0.023 A 
HETATM    7  C16 UNK     1      -4.028  -1.965   2.047  1.00  0.00     0.044 A 
HETATM    8  C17 UNK     1      -5.234  -2.559   2.532  1.00  0.00     0.099 C 
ENDROOT
BRANCH   2   9
HETATM    9  C11 UNK     1      -0.446  -0.202   0.608  1.00  0.00     0.012 C 
HETATM   10  C7  UNK     1      -0.210   0.148  -0.678  1.00  0.00     0.012 C 
BRANCH  10  11
HETATM   11  C2  UNK     1       1.026   0.778  -1.174  1.00  0.00    -0.036 A 
HETATM   12  C5  UNK     1       1.864   1.424  -0.280  1.00  0.00     0.013 A 
HETATM   13  C3  UNK     1       3.034   2.021  -0.749  1.00  0.00     0.030 A 
HETATM   14  C1  UNK     1       3.351   1.962  -2.106  1.00  0.00     0.029 A 
HETATM   15  C4  UNK     1       2.497   1.307  -2.994  1.00  0.00     0.030 A 
HETATM   16  C6  UNK     1       1.327   0.711  -2.525  1.00  0.00     0.013 A 
BRANCH  14  17
HETATM   17  N1  UNK     1       4.535   2.565  -2.581  1.00  0.00    -0.390 N 
HETATM   18  C8  UNK     1       5.428   3.248  -1.666  1.00  0.00     0.149 C 
HETATM   19  C9  UNK     1       4.880   2.498  -3.987  1.00  0.00     0.149 C 
ENDBRANCH  14  17
ENDBRANCH  10  11
ENDBRANCH   2   9
TORSDOF 3
