REMARK  5 active torsions:
REMARK  status: ('A' for Active; 'I' for Inactive)
REMARK    1  A    between atoms: C11_21  and  O2_5 
REMARK    2  A    between atoms: C12_22  and  O2_5 
REMARK       I    between atoms: C8_18  and  N1_9 
REMARK    3  A    between atoms: N1_9  and  N2_10 
REMARK       I    between atoms: C13_23  and  N2_10 
REMARK    4  A    between atoms: C3_13  and  C8_18 
REMARK    5  A    between atoms: C11_21  and  C13_23 
ROOT
HETATM    1  O4  UNK     1      -0.481   0.415   2.189  1.00  0.00    -0.266 OA
HETATM    2  N1  UNK     1      -0.130  -0.599   0.123  1.00  0.00    -0.263 N 
HETATM    3  C8  UNK     1      -0.853  -0.295   1.257  1.00  0.00     0.276 C 
HETATM    4  H5  UNK     1      -0.452  -1.219  -0.613  1.00  0.00     0.190 HD
ENDROOT
BRANCH   2   5
HETATM    5  N2  UNK     1       1.133  -0.081  -0.023  1.00  0.00    -0.265 N 
HETATM    6  C13 UNK     1       1.617   0.160  -1.295  1.00  0.00     0.260 C 
HETATM    7  O5  UNK     1       1.010  -0.050  -2.343  1.00  0.00    -0.269 OA
HETATM    8  H8  UNK     1       1.667   0.089   0.823  1.00  0.00     0.190 HD
BRANCH   6   9
HETATM    9  C11 UNK     1       3.017   0.731  -1.259  1.00  0.00     0.280 C 
BRANCH   9  10
HETATM   10  O2  UNK     1       3.497   0.957  -2.567  1.00  0.00    -0.340 OA
BRANCH  10  11
HETATM   11  C12 UNK     1       4.394   1.986  -2.738  1.00  0.00     0.091 A 
HETATM   12  C14 UNK     1       4.105   3.049  -3.583  1.00  0.00     0.069 A 
HETATM   13 Cl1  UNK     1       2.616   3.127  -4.451  1.00  0.00    -0.081 Cl
HETATM   14  C16 UNK     1       5.033   4.079  -3.737  1.00  0.00     0.050 A 
HETATM   15  C18 UNK     1       6.243   4.036  -3.044  1.00  0.00     0.035 A 
HETATM   16  C17 UNK     1       6.525   2.964  -2.197  1.00  0.00     0.026 A 
HETATM   17 Cl2  UNK     1       7.390   5.306  -3.234  1.00  0.00    -0.084 Cl
HETATM   18  C15 UNK     1       5.597   1.934  -2.043  1.00  0.00     0.040 A 
ENDBRANCH  10  11
ENDBRANCH   9  10
ENDBRANCH   6   9
ENDBRANCH   2   5
BRANCH   3  19
HETATM   19  C3  UNK     1      -2.180  -0.921   1.266  1.00  0.00     0.110 A 
HETATM   20  C4  UNK     1      -2.684  -1.221   2.469  1.00  0.00     0.037 A 
HETATM   21  C1  UNK     1      -3.994  -1.844   2.580  1.00  0.00     0.000 A 
HETATM   22  C2  UNK     1      -4.709  -2.120   1.419  1.00  0.00     0.089 A 
HETATM   23  C5  UNK     1      -4.559  -2.175   3.814  1.00  0.00     0.033 A 
HETATM   24  O1  UNK     1      -4.173  -1.801   0.156  1.00  0.00    -0.274 OA
HETATM   25  C6  UNK     1      -5.968  -2.715   1.456  1.00  0.00     0.039 A 
HETATM   26  C7  UNK     1      -2.923  -1.205   0.018  1.00  0.00     0.304 A 
HETATM   27  O3  UNK     1      -2.464  -0.931  -1.086  1.00  0.00    -0.259 OA
HETATM   28  C10 UNK     1      -6.524  -3.042   2.691  1.00  0.00     0.022 A 
HETATM   29  C9  UNK     1      -5.822  -2.773   3.867  1.00  0.00     0.011 A 
HETATM   30 Br1  UNK     1      -6.582  -3.220   5.541  1.00  0.00    -0.051 Br
ENDBRANCH   3  19
TORSDOF 5
