REMARK  5 active torsions:
REMARK  status: ('A' for Active; 'I' for Inactive)
REMARK    1  A    between atoms: C10_17  and  N1_6 
REMARK       I    between atoms: C13_20  and  N1_6 
REMARK       I    between atoms: C12_19  and  N2_7 
REMARK    2  A    between atoms: C1_8  and  C5_12 
REMARK    3  A    between atoms: C5_12  and  C8_15 
REMARK    4  A    between atoms: C12_19  and  C9_16 
REMARK    5  A    between atoms: C13_20  and  C14_21 
ROOT
HETATM    1  S1  UNK     1      -1.943  -0.661  -0.438  1.00  0.00    -0.075 SA
HETATM    2  C1  UNK     1      -4.778  -2.199   2.112  1.00  0.00    -0.010 C 
HETATM    3  C2  UNK     1      -3.767  -2.777   3.126  1.00  0.00     0.009 C 
HETATM    4  C3  UNK     1      -4.118  -1.987   0.730  1.00  0.00     0.051 C 
HETATM    5  C4  UNK     1      -2.578  -1.828   3.347  1.00  0.00     0.041 C 
HETATM    6  C6  UNK     1      -2.045  -1.294   2.055  1.00  0.00    -0.026 A 
HETATM    7  C7  UNK     1      -2.769  -1.355   0.879  1.00  0.00    -0.008 A 
HETATM    8  C9  UNK     1      -0.786  -0.651   1.857  1.00  0.00     0.073 A 
HETATM    9  C10 UNK     1      -0.603  -0.258   0.549  1.00  0.00     0.093 A 
ENDROOT
BRANCH   9  10
HETATM   10  N1  UNK     1       0.440   0.380  -0.066  1.00  0.00    -0.316 N 
HETATM   11  C13 UNK     1       0.524   0.737  -1.419  1.00  0.00     0.262 C 
HETATM   12  O2  UNK     1      -0.299   0.554  -2.306  1.00  0.00    -0.267 OA
HETATM   13  H15 UNK     1       1.227   0.589   0.543  1.00  0.00     0.169 HD
BRANCH  11  14
HETATM   14  C14 UNK     1       1.796   1.415  -1.746  1.00  0.00     0.108 A 
HETATM   15  C15 UNK     1       2.253   1.245  -2.992  1.00  0.00     0.037 A 
HETATM   16  C16 UNK     1       3.497   1.873  -3.409  1.00  0.00    -0.001 A 
HETATM   17  C18 UNK     1       4.199   2.650  -2.492  1.00  0.00     0.089 A 
HETATM   18  C19 UNK     1       4.012   1.723  -4.699  1.00  0.00     0.014 A 
HETATM   19  O3  UNK     1       3.712   2.826  -1.182  1.00  0.00    -0.274 OA
HETATM   20  C20 UNK     1       5.397   3.278  -2.828  1.00  0.00     0.038 A 
HETATM   21  C17 UNK     1       2.525   2.237  -0.755  1.00  0.00     0.304 A 
HETATM   22  O4  UNK     1       2.110   2.395   0.388  1.00  0.00    -0.259 OA
HETATM   23  C22 UNK     1       5.903   3.123  -4.116  1.00  0.00     0.003 A 
HETATM   24  C21 UNK     1       5.212   2.347  -5.050  1.00  0.00     0.001 A 
ENDBRANCH  11  14
ENDBRANCH   9  10
BRANCH   8  25
HETATM   25  C12 UNK     1       0.203  -0.417   2.879  1.00  0.00     0.252 C 
HETATM   26  O1  UNK     1       1.120  -1.219   3.136  1.00  0.00    -0.268 OA
HETATM   27  N2  UNK     1       0.124   0.781   3.585  1.00  0.00    -0.366 N 
HETATM   28  H16 UNK     1      -0.602   1.468   3.403  1.00  0.00     0.159 HD
HETATM   29  H17 UNK     1       0.797   1.005   4.311  1.00  0.00     0.159 HD
ENDBRANCH   8  25
BRANCH   2  30
HETATM   30  C5  UNK     1      -6.000  -3.106   1.987  1.00  0.00     0.004 C 
BRANCH  30  31
HETATM   31  C8  UNK     1      -7.026  -2.521   1.023  1.00  0.00    -0.004 C 
HETATM   32  C11 UNK     1      -8.254  -3.411   0.918  1.00  0.00     0.005 C 
ENDBRANCH  30  31
ENDBRANCH   2  30
TORSDOF 5
