REMARK  6 active torsions:
REMARK  status: ('A' for Active; 'I' for Inactive)
REMARK    1  A    between atoms: C5_12  and  N1_5 
REMARK    2  A    between atoms: C6_13  and  N2_6 
REMARK    3  A    between atoms: C18_25  and  N3_7 
REMARK       I    between atoms: C9_16  and  N3_7 
REMARK    4  A    between atoms: C5_12  and  C7_14 
REMARK    5  A    between atoms: C6_13  and  C9_16 
REMARK    6  A    between atoms: C13_20  and  C17_24 
ROOT
HETATM    1  N1  UNK     1       0.949   0.117  -1.493  1.00  0.00     0.096 N 
HETATM    2  N2  UNK     1      -1.790  -0.418  -0.737  1.00  0.00     0.100 N 
HETATM    3  C1  UNK     1      -0.148   0.243  -2.461  1.00  0.00     0.303 C 
HETATM    4  C2  UNK     1       0.621  -0.889  -0.475  1.00  0.00     0.303 C 
HETATM    5  C3  UNK     1      -1.463   0.589  -1.755  1.00  0.00     0.303 C 
HETATM    6  C4  UNK     1      -0.694  -0.542   0.231  1.00  0.00     0.303 C 
ENDROOT
BRANCH   1   7
HETATM    7  C5  UNK     1       2.201  -0.217  -2.168  1.00  0.00     0.312 C 
BRANCH   7   8
HETATM    8  C7  UNK     1       2.846   0.978  -2.779  1.00  0.00    -0.011 A 
HETATM    9  C10 UNK     1       2.570   1.346  -4.038  1.00  0.00     0.092 A 
HETATM   10  C14 UNK     1       3.182   2.519  -4.685  1.00  0.00     0.288 A 
HETATM   11  O1  UNK     1       4.080   3.252  -3.924  1.00  0.00    -0.275 OA
HETATM   12  O3  UNK     1       2.903   2.826  -5.839  1.00  0.00    -0.260 OA
HETATM   13  C11 UNK     1       4.390   2.890  -2.598  1.00  0.00     0.090 A 
HETATM   14  C8  UNK     1       3.802   1.775  -1.998  1.00  0.00     0.007 A 
HETATM   15  C15 UNK     1       5.307   3.701  -1.928  1.00  0.00     0.039 A 
HETATM   16  C12 UNK     1       4.164   1.482  -0.677  1.00  0.00     0.022 A 
HETATM   17  C13 UNK     1       5.082   2.285   0.009  1.00  0.00    -0.058 A 
HETATM   18  C16 UNK     1       5.653   3.393  -0.616  1.00  0.00     0.010 A 
BRANCH  17  19
HETATM   19  C17 UNK     1       5.453   1.954   1.416  1.00  0.00     0.034 C 
HETATM   20  C19 UNK     1       4.539   2.635   2.431  1.00  0.00     0.010 C 
ENDBRANCH  17  19
ENDBRANCH   7   8
ENDBRANCH   1   7
BRANCH   2  21
HETATM   21  C6  UNK     1      -3.044  -0.086  -0.063  1.00  0.00     0.375 C 
BRANCH  21  22
HETATM   22  C9  UNK     1      -3.608  -1.332   0.597  1.00  0.00     0.250 C 
HETATM   23  N3  UNK     1      -4.338  -0.987   1.733  1.00  0.00    -0.326 N 
HETATM   24  H16 UNK     1      -4.409   0.000   1.968  1.00  0.00     0.169 HD
HETATM   25  O2  UNK     1      -3.414  -2.460   0.155  1.00  0.00    -0.271 OA
BRANCH  23  26
HETATM   26  C18 UNK     1      -5.017  -1.857   2.619  1.00  0.00     0.034 A 
HETATM   27  C20 UNK     1      -5.704  -1.336   3.716  1.00  0.00     0.031 A 
HETATM   28  C22 UNK     1      -6.374  -2.193   4.590  1.00  0.00     0.026 A 
HETATM   29  C24 UNK     1      -6.358  -3.569   4.366  1.00  0.00     0.034 A 
HETATM   30  C23 UNK     1      -5.672  -4.090   3.269  1.00  0.00     0.026 A 
HETATM   31 Cl1  UNK     1      -7.186  -4.626   5.442  1.00  0.00    -0.084 Cl
HETATM   32  C21 UNK     1      -5.001  -3.233   2.395  1.00  0.00     0.031 A 
ENDBRANCH  23  26
ENDBRANCH  21  22
ENDBRANCH   2  21
TORSDOF 6
