REMARK  6 active torsions:
REMARK  status: ('A' for Active; 'I' for Inactive)
REMARK    1  A    between atoms: C15_20  and  O3_3 
REMARK    2  A    between atoms: C19_24  and  O3_3 
REMARK    3  A    between atoms: C8_13  and  N1_5 
REMARK       I    between atoms: C9_14  and  N1_5 
REMARK    4  A    between atoms: C4_9  and  C6_11 
REMARK    5  A    between atoms: C6_11  and  C8_13 
REMARK    6  A    between atoms: C10_15  and  C9_14 
ROOT
HETATM    1  O1  UNK     1       1.315   1.110  -0.233  1.00  0.00    -0.271 OA
HETATM    2  O4  UNK     1      -0.463   0.210   0.885  1.00  0.00    -0.259 OA
HETATM    3  C10 UNK     1      -0.512   0.068  -1.480  1.00  0.00     0.108 A 
HETATM    4  C11 UNK     1       1.374   1.024  -2.661  1.00  0.00     0.002 A 
HETATM    5  C12 UNK     1       0.093   0.336  -2.643  1.00  0.00     0.037 A 
HETATM    6  C13 UNK     1       1.957   1.395  -1.454  1.00  0.00     0.123 A 
HETATM    7  C14 UNK     1       0.088   0.454  -0.183  1.00  0.00     0.304 A 
HETATM    8  C15 UNK     1       3.182   2.057  -1.402  1.00  0.00     0.103 A 
HETATM    9  C16 UNK     1       2.041   1.326  -3.852  1.00  0.00     0.014 A 
HETATM   10  C17 UNK     1       3.840   2.353  -2.594  1.00  0.00     0.040 A 
HETATM   11  C18 UNK     1       3.271   1.989  -3.816  1.00  0.00     0.004 A 
ENDROOT
BRANCH   3  12
HETATM   12  C9  UNK     1      -1.801  -0.630  -1.564  1.00  0.00     0.257 C 
HETATM   13  O2  UNK     1      -2.041  -1.402  -2.490  1.00  0.00    -0.267 OA
HETATM   14  N1  UNK     1      -2.653  -0.313  -0.522  1.00  0.00    -0.356 N 
HETATM   15  H14 UNK     1      -2.369   0.358   0.185  1.00  0.00     0.162 HD
BRANCH  14  16
HETATM   16  C8  UNK     1      -3.979  -0.872  -0.391  1.00  0.00     0.127 C 
BRANCH  16  17
HETATM   17  C6  UNK     1      -3.993  -2.166   0.415  1.00  0.00     0.053 C 
BRANCH  17  18
HETATM   18  C4  UNK     1      -3.452  -1.998   1.804  1.00  0.00    -0.082 C 
HETATM   19  C1  UNK     1      -4.213  -1.055   2.704  1.00  0.00     0.034 C 
HETATM   20  C2  UNK     1      -3.822  -1.167   4.180  1.00  0.00     0.005 C 
HETATM   21  C3  UNK     1      -2.310  -1.269   4.344  1.00  0.00     0.004 C 
HETATM   22  C5  UNK     1      -1.756  -2.478   3.590  1.00  0.00     0.027 C 
HETATM   23  C7  UNK     1      -2.352  -2.647   2.223  1.00  0.00    -0.024 C 
ENDBRANCH  17  18
ENDBRANCH  16  17
ENDBRANCH  14  16
ENDBRANCH   3  12
BRANCH   8  24
HETATM   24  O3  UNK     1       3.740   2.413  -0.215  1.00  0.00    -0.349 OA
BRANCH  24  25
HETATM   25  C19 UNK     1       5.166   2.460  -0.154  1.00  0.00     0.171 C 
HETATM   26  C20 UNK     1       5.609   2.148   1.260  1.00  0.00     0.034 C 
ENDBRANCH  24  25
ENDBRANCH   8  24
TORSDOF 6
