REMARK  1 active torsions:
REMARK  status: ('A' for Active; 'I' for Inactive)
REMARK    1  A    between atoms: C5_8  and  C9_12 
ROOT
HETATM    1  O1  UNK     1       1.282   0.477   2.333  1.00  0.00    -0.320 OA
HETATM    2  O2  UNK     1      -3.092  -1.520   1.928  1.00  0.00    -0.274 OA
HETATM    3  O3  UNK     1      -5.161  -2.457   1.666  1.00  0.00    -0.260 OA
HETATM    4  C1  UNK     1       0.326   0.264   0.298  1.00  0.00     0.012 A 
HETATM    5  C2  UNK     1       0.180   0.039   1.662  1.00  0.00     0.094 A 
HETATM    6  C3  UNK     1      -1.875  -0.725  -0.038  1.00  0.00     0.005 A 
HETATM    7  C4  UNK     1      -0.939  -0.550   2.238  1.00  0.00     0.008 A 
HETATM    8  C5  UNK     1       1.599   0.876   0.142  1.00  0.00     0.009 A 
HETATM    9  C6  UNK     1      -1.952  -0.921   1.345  1.00  0.00     0.099 A 
HETATM   10  C7  UNK     1      -0.717  -0.124  -0.568  1.00  0.00     0.030 A 
HETATM   11  C8  UNK     1      -3.007  -1.158  -0.873  1.00  0.00    -0.043 A 
HETATM   12  C10 UNK     1       2.135   0.982   1.404  1.00  0.00     0.155 A 
HETATM   13  C11 UNK     1      -1.063  -0.776   3.705  1.00  0.00     0.054 C 
HETATM   14  C12 UNK     1      -4.072  -1.723  -0.288  1.00  0.00     0.090 A 
HETATM   15  C13 UNK     1      -2.958  -0.963  -2.361  1.00  0.00     0.049 C 
HETATM   16  C16 UNK     1      -4.171  -1.937   1.165  1.00  0.00     0.288 A 
ENDROOT
BRANCH   8  17
HETATM   17  C9  UNK     1       2.278   1.328  -1.035  1.00  0.00    -0.023 A 
HETATM   18  C14 UNK     1       3.119   0.461  -1.736  1.00  0.00     0.013 A 
HETATM   19  C18 UNK     1       3.780   0.901  -2.883  1.00  0.00     0.007 A 
HETATM   20  C17 UNK     1       3.601   2.210  -3.332  1.00  0.00    -0.062 A 
HETATM   21  C19 UNK     1       2.762   3.078  -2.634  1.00  0.00     0.007 A 
HETATM   22  C20 UNK     1       4.307   2.680  -4.559  1.00  0.00     0.048 C 
HETATM   23  C15 UNK     1       2.101   2.638  -1.487  1.00  0.00     0.013 A 
ENDBRANCH   8  17
TORSDOF 1
