REMARK  4 active torsions:
REMARK  status: ('A' for Active; 'I' for Inactive)
REMARK    1  A    between atoms: C12_20  and  O2_5 
REMARK    2  A    between atoms: C5_13  and  O2_5 
REMARK       I    between atoms: C10_18  and  N1_8 
REMARK    3  A    between atoms: C11_19  and  N1_8 
REMARK    4  A    between atoms: C10_18  and  C3_11 
ROOT
HETATM    1  O1  UNK     1       2.238   1.080  -0.393  1.00  0.00    -0.271 OA
HETATM    2  O3  UNK     1       1.032  -0.125   1.129  1.00  0.00    -0.259 OA
HETATM    3  C1  UNK     1       1.387   1.352  -2.654  1.00  0.00     0.002 A 
HETATM    4  C2  UNK     1       2.369   1.593  -1.698  1.00  0.00     0.123 A 
HETATM    5  C3  UNK     1       0.106   0.074  -1.043  1.00  0.00     0.108 A 
HETATM    6  C4  UNK     1       0.224   0.560  -2.285  1.00  0.00     0.037 A 
HETATM    7  C5  UNK     1       3.507   2.343  -1.988  1.00  0.00     0.103 A 
HETATM    8  C6  UNK     1       1.553   1.878  -3.937  1.00  0.00     0.014 A 
HETATM    9  C7  UNK     1       3.664   2.865  -3.270  1.00  0.00     0.040 A 
HETATM   10  C8  UNK     1       1.137   0.319  -0.010  1.00  0.00     0.304 A 
HETATM   11  C9  UNK     1       2.689   2.633  -4.243  1.00  0.00     0.004 A 
ENDROOT
BRANCH   5  12
HETATM   12  C10 UNK     1      -1.103  -0.712  -0.767  1.00  0.00     0.262 C 
HETATM   13  O4  UNK     1      -1.629  -1.352  -1.675  1.00  0.00    -0.267 OA
HETATM   14  N1  UNK     1      -1.494  -0.610   0.560  1.00  0.00    -0.320 N 
HETATM   15  H5  UNK     1      -0.959  -0.017   1.190  1.00  0.00     0.169 HD
BRANCH  14  16
HETATM   16  C11 UNK     1      -2.600  -1.235   1.144  1.00  0.00     0.077 A 
HETATM   17  C13 UNK     1      -2.877  -1.042   2.496  1.00  0.00     0.184 A 
HETATM   18  F1  UNK     1      -2.091  -0.261   3.250  1.00  0.00    -0.200 F 
HETATM   19  C15 UNK     1      -3.982  -1.667   3.075  1.00  0.00     0.195 A 
HETATM   20  F2  UNK     1      -4.249  -1.485   4.375  1.00  0.00    -0.199 F 
HETATM   21  C18 UNK     1      -4.807  -2.483   2.301  1.00  0.00     0.158 A 
HETATM   22  C16 UNK     1      -4.527  -2.674   0.948  1.00  0.00     0.048 A 
HETATM   23  F3  UNK     1      -5.867  -3.083   2.857  1.00  0.00    -0.203 F 
HETATM   24  C14 UNK     1      -3.423  -2.049   0.369  1.00  0.00     0.036 A 
ENDBRANCH  14  16
ENDBRANCH   5  12
BRANCH   7  25
HETATM   25  O2  UNK     1       4.458   2.571  -1.043  1.00  0.00    -0.349 OA
BRANCH  25  26
HETATM   26  C12 UNK     1       5.801   2.732  -1.499  1.00  0.00     0.171 C 
HETATM   27  C17 UNK     1       6.749   2.259  -0.417  1.00  0.00     0.034 C 
ENDBRANCH  25  26
ENDBRANCH   7  25
TORSDOF 4
