REMARK  7 active torsions:
REMARK  status: ('A' for Active; 'I' for Inactive)
REMARK    1  A    between atoms: C1_5  and  N1_4 
REMARK    2  A    between atoms: C2_6  and  N1_4 
REMARK       I    between atoms: C7_11  and  N1_4 
REMARK    3  A    between atoms: C1_5  and  C3_7 
REMARK    4  A    between atoms: C2_6  and  C4_8 
REMARK    5  A    between atoms: C3_7  and  C5_9 
REMARK    6  A    between atoms: C4_8  and  C6_10 
REMARK    7  A    between atoms: C7_11  and  C8_12 
ROOT
HETATM    1  O1  UNK     1       1.726   2.204   0.590  1.00  0.00    -0.274 OA
HETATM    2  O3  UNK     1       0.187   1.586   2.161  1.00  0.00    -0.259 OA
HETATM    3  C8  UNK     1       0.657   0.008   0.457  1.00  0.00     0.108 A 
HETATM    4  C11 UNK     1       1.349  -0.292  -0.649  1.00  0.00     0.037 A 
HETATM    5  C12 UNK     1       2.290   0.667  -1.208  1.00  0.00    -0.001 A 
HETATM    6  C13 UNK     1       0.819   1.308   1.148  1.00  0.00     0.304 A 
HETATM    7  C14 UNK     1       2.457   1.894  -0.574  1.00  0.00     0.089 A 
HETATM    8  C15 UNK     1       3.032   0.396  -2.360  1.00  0.00     0.014 A 
HETATM    9  C16 UNK     1       3.342   2.855  -1.058  1.00  0.00     0.038 A 
HETATM   10  C17 UNK     1       3.924   1.351  -2.857  1.00  0.00     0.001 A 
HETATM   11  C18 UNK     1       4.079   2.577  -2.207  1.00  0.00     0.003 A 
ENDROOT
BRANCH   3  12
HETATM   12  C7  UNK     1      -0.267  -1.023   0.944  1.00  0.00     0.259 C 
HETATM   13  O2  UNK     1       0.156  -1.850   1.759  1.00  0.00    -0.267 OA
HETATM   14  N1  UNK     1      -1.579  -0.996   0.462  1.00  0.00    -0.348 N 
BRANCH  14  15
HETATM   15  C1  UNK     1      -2.583  -1.963   0.890  1.00  0.00     0.126 C 
BRANCH  15  16
HETATM   16  C3  UNK     1      -3.354  -1.495   2.119  1.00  0.00     0.020 C 
BRANCH  16  17
HETATM   17  C5  UNK     1      -4.391  -2.519   2.588  1.00  0.00    -0.003 C 
HETATM   18  C9  UNK     1      -5.101  -2.052   3.849  1.00  0.00     0.005 C 
ENDBRANCH  16  17
ENDBRANCH  15  16
ENDBRANCH  14  15
BRANCH  14  19
HETATM   19  C2  UNK     1      -2.034   0.002  -0.502  1.00  0.00     0.126 C 
BRANCH  19  20
HETATM   20  C4  UNK     1      -1.845  -0.454  -1.945  1.00  0.00     0.020 C 
BRANCH  20  21
HETATM   21  C6  UNK     1      -2.295   0.600  -2.959  1.00  0.00    -0.003 C 
HETATM   22  C10 UNK     1      -2.038   0.143  -4.386  1.00  0.00     0.005 C 
ENDBRANCH  20  21
ENDBRANCH  19  20
ENDBRANCH  14  19
ENDBRANCH   3  12
TORSDOF 7
