REMARK  3 active torsions:
REMARK  status: ('A' for Active; 'I' for Inactive)
REMARK    1  A    between atoms: C1_8  and  N1_6 
REMARK       I    between atoms: C7_14  and  N1_6 
REMARK    2  A    between atoms: C15_22  and  N2_7 
REMARK    3  A    between atoms: C7_14  and  C8_15 
ROOT
HETATM    1  O2  UNK     1       1.541   0.532   1.253  1.00  0.00    -0.274 OA
HETATM    2  O3  UNK     1      -0.021  -0.780   2.283  1.00  0.00    -0.259 OA
HETATM    3  C8  UNK     1      -0.156  -0.622  -0.077  1.00  0.00     0.108 A 
HETATM    4  C9  UNK     1       0.344  -0.111  -1.208  1.00  0.00     0.037 A 
HETATM    5  C10 UNK     1       1.500   0.772  -1.166  1.00  0.00     0.001 A 
HETATM    6  C11 UNK     1       0.436  -0.315   1.245  1.00  0.00     0.304 A 
HETATM    7  C12 UNK     1       2.072   1.073   0.066  1.00  0.00     0.089 A 
HETATM    8  C13 UNK     1       2.055   1.327  -2.321  1.00  0.00     0.050 A 
HETATM    9  C14 UNK     1       3.180   1.911   0.176  1.00  0.00     0.041 A 
HETATM   10  C15 UNK     1       3.167   2.170  -2.227  1.00  0.00     0.103 A 
HETATM   11  C16 UNK     1       3.728   2.461  -0.981  1.00  0.00     0.039 A 
ENDROOT
BRANCH   3  12
HETATM   12  C7  UNK     1      -1.329  -1.504  -0.223  1.00  0.00     0.258 C 
HETATM   13  O1  UNK     1      -1.484  -2.174  -1.238  1.00  0.00    -0.267 OA
HETATM   14  N1  UNK     1      -2.166  -1.463   0.875  1.00  0.00    -0.352 N 
HETATM   15  H12 UNK     1      -1.973  -0.810   1.627  1.00  0.00     0.163 HD
BRANCH  14  16
HETATM   16  C1  UNK     1      -3.382  -2.241   0.963  1.00  0.00     0.084 C 
HETATM   17  C2  UNK     1      -4.565  -1.484   0.350  1.00  0.00     0.025 C 
HETATM   18  C4  UNK     1      -5.016  -0.305   1.212  1.00  0.00     0.002 C 
HETATM   19  C6  UNK     1      -5.310  -0.737   2.646  1.00  0.00     0.000 C 
HETATM   20  C5  UNK     1      -4.124  -1.466   3.270  1.00  0.00     0.002 C 
HETATM   21  C3  UNK     1      -3.672  -2.647   2.411  1.00  0.00     0.025 C 
ENDBRANCH  14  16
ENDBRANCH   3  12
BRANCH  10  22
HETATM   22  N2  UNK     1       3.728   2.734  -3.403  1.00  0.00    -0.116 N 
HETATM   23  O4  UNK     1       4.726   3.488  -3.299  1.00  0.00    -0.532 OA
HETATM   24  O5  UNK     1       3.212   2.461  -4.514  1.00  0.00    -0.532 OA
ENDBRANCH  10  22
TORSDOF 3
