REMARK  6 active torsions:
REMARK  status: ('A' for Active; 'I' for Inactive)
REMARK    1  A    between atoms: C14_22  and  O1_3 
REMARK    2  A    between atoms: C13_21  and  N1_8 
REMARK       I    between atoms: C15_23  and  N1_8 
REMARK    3  A    between atoms: C1_9  and  C2_10 
REMARK    4  A    between atoms: C2_10  and  C6_14 
REMARK    5  A    between atoms: C11_19  and  C14_22 
REMARK    6  A    between atoms: C15_23  and  C16_24 
ROOT
HETATM    1  S1  UNK     1      -1.917  -0.262  -0.525  1.00  0.00    -0.075 SA
HETATM    2  C1  UNK     1      -4.821  -1.792   1.950  1.00  0.00    -0.002 C 
HETATM    3  C3  UNK     1      -3.840  -2.501   2.909  1.00  0.00     0.010 C 
HETATM    4  C4  UNK     1      -4.161  -1.528   0.577  1.00  0.00     0.052 C 
HETATM    5  C5  UNK     1      -2.592  -1.646   3.179  1.00  0.00     0.041 C 
HETATM    6  C7  UNK     1      -2.774  -0.993   0.752  1.00  0.00    -0.008 A 
HETATM    7  C8  UNK     1      -2.037  -1.058   1.919  1.00  0.00    -0.026 A 
HETATM    8  C11 UNK     1      -0.742  -0.483   1.750  1.00  0.00     0.080 A 
HETATM    9  C13 UNK     1      -0.545  -0.013   0.469  1.00  0.00     0.094 A 
ENDROOT
BRANCH   9  10
HETATM   10  N1  UNK     1       0.530   0.600  -0.114  1.00  0.00    -0.316 N 
HETATM   11  C15 UNK     1       0.624   1.044  -1.440  1.00  0.00     0.262 C 
HETATM   12  O3  UNK     1      -0.217   0.975  -2.327  1.00  0.00    -0.267 OA
HETATM   13  H19 UNK     1       1.334   0.719   0.497  1.00  0.00     0.169 HD
BRANCH  11  14
HETATM   14  C16 UNK     1       1.934   1.663  -1.736  1.00  0.00     0.108 A 
HETATM   15  C18 UNK     1       2.369   1.551  -2.997  1.00  0.00     0.037 A 
HETATM   16  C20 UNK     1       3.646   2.128  -3.386  1.00  0.00     0.001 A 
HETATM   17  C21 UNK     1       4.403   2.795  -2.428  1.00  0.00     0.089 A 
HETATM   18  C22 UNK     1       4.140   2.035  -4.689  1.00  0.00     0.038 A 
HETATM   19  C23 UNK     1       5.635   3.370  -2.735  1.00  0.00     0.040 A 
HETATM   20  O4  UNK     1       3.939   2.910  -1.102  1.00  0.00    -0.274 OA
HETATM   21  C25 UNK     1       6.119   3.273  -4.037  1.00  0.00     0.026 A 
HETATM   22  C24 UNK     1       5.374   2.607  -5.013  1.00  0.00     0.035 A 
HETATM   23 Cl1  UNK     1       5.978   2.491  -6.621  1.00  0.00    -0.084 Cl
HETATM   24  C19 UNK     1       2.722   2.368  -0.701  1.00  0.00     0.304 A 
HETATM   25  O5  UNK     1       2.326   2.473   0.455  1.00  0.00    -0.259 OA
ENDBRANCH  11  14
ENDBRANCH   9  10
BRANCH   8  26
HETATM   26  C14 UNK     1       0.269  -0.382   2.773  1.00  0.00     0.296 C 
HETATM   27  O2  UNK     1       0.020  -0.271   3.982  1.00  0.00    -0.259 OA
BRANCH  26  28
HETATM   28  O1  UNK     1       1.559  -0.420   2.290  1.00  0.00    -0.322 OA
HETATM   29  C17 UNK     1       2.614  -0.324   3.254  1.00  0.00     0.213 C 
ENDBRANCH  26  28
ENDBRANCH   8  26
BRANCH   2  30
HETATM   30  C2  UNK     1      -6.099  -2.611   1.779  1.00  0.00    -0.044 C 
HETATM   31  C10 UNK     1      -6.727  -2.853   3.169  1.00  0.00     0.015 C 
HETATM   32  C9  UNK     1      -7.110  -1.818   0.927  1.00  0.00     0.015 C 
BRANCH  30  33
HETATM   33  C6  UNK     1      -5.808  -3.997   1.140  1.00  0.00     0.004 C 
HETATM   34  C12 UNK     1      -7.015  -4.911   0.968  1.00  0.00     0.006 C 
ENDBRANCH  30  33
ENDBRANCH   2  30
TORSDOF 6
