REMARK  7 active torsions:
REMARK  status: ('A' for Active; 'I' for Inactive)
REMARK       I    between atoms: C13_15  and  N1_2 
REMARK    1  A    between atoms: C14_16  and  N1_2 
REMARK    2  A    between atoms: C1_3  and  C2_4 
REMARK    3  A    between atoms: C2_4  and  C3_5 
REMARK    4  A    between atoms: C13_15  and  C4_6 
REMARK    5  A    between atoms: C4_6  and  C5_7 
REMARK    6  A    between atoms: C17_19  and  C20_22 
REMARK    7  A    between atoms: C21_23  and  C22_24 
ROOT
HETATM    1  O1  UNK     1       0.904  -0.952  -2.884  1.00  0.00    -0.272 OA
HETATM    2  N1  UNK     1      -0.243   0.967  -2.170  1.00  0.00    -0.327 N 
HETATM    3  C13 UNK     1       0.705   0.259  -2.904  1.00  0.00     0.230 C 
HETATM    4  H18 UNK     1      -0.290   1.974  -2.307  1.00  0.00     0.169 HD
ENDROOT
BRANCH   2   5
HETATM    5  C14 UNK     1      -1.163   0.453  -1.225  1.00  0.00     0.034 A 
HETATM    6  C16 UNK     1      -2.041   1.319  -0.594  1.00  0.00     0.030 A 
HETATM    7  C19 UNK     1      -2.949   0.812   0.336  1.00  0.00     0.013 A 
HETATM    8  C17 UNK     1      -2.966  -0.554   0.622  1.00  0.00    -0.036 A 
HETATM    9  C18 UNK     1      -2.075  -1.412  -0.023  1.00  0.00     0.013 A 
HETATM   10  C15 UNK     1      -1.167  -0.905  -0.952  1.00  0.00     0.030 A 
BRANCH   8  11
HETATM   11  C20 UNK     1      -3.913  -1.082   1.591  1.00  0.00     0.012 C 
HETATM   12  C21 UNK     1      -3.792  -2.268   2.234  1.00  0.00     0.012 C 
BRANCH  12  13
HETATM   13  C22 UNK     1      -4.740  -2.794   3.231  1.00  0.00    -0.036 A 
HETATM   14  C23 UNK     1      -6.031  -2.292   3.271  1.00  0.00     0.011 A 
HETATM   15  C25 UNK     1      -6.929  -2.790   4.215  1.00  0.00     0.001 A 
HETATM   16  C27 UNK     1      -6.524  -3.784   5.106  1.00  0.00     0.000 A 
HETATM   17  C26 UNK     1      -5.221  -4.281   5.052  1.00  0.00     0.001 A 
HETATM   18  C24 UNK     1      -4.323  -3.782   4.109  1.00  0.00     0.011 A 
ENDBRANCH  12  13
ENDBRANCH   8  11
ENDBRANCH   2   5
BRANCH   3  19
HETATM   19  C4  UNK     1       1.509   1.201  -3.825  1.00  0.00     0.107 C 
HETATM   20  C12 UNK     1       1.798   0.497  -5.164  1.00  0.00     0.025 C 
BRANCH  19  21
HETATM   21  C5  UNK     1       2.754   1.701  -3.173  1.00  0.00    -0.045 A 
HETATM   22  C10 UNK     1       2.924   3.068  -2.952  1.00  0.00     0.008 A 
HETATM   23  C6  UNK     1       4.088   3.537  -2.343  1.00  0.00     0.007 A 
HETATM   24  C3  UNK     1       5.067   2.632  -1.963  1.00  0.00    -0.058 A 
HETATM   25  C7  UNK     1       4.912   1.272  -2.176  1.00  0.00     0.007 A 
HETATM   26  C11 UNK     1       3.748   0.803  -2.785  1.00  0.00     0.008 A 
BRANCH  24  27
HETATM   27  C2  UNK     1       6.327   3.139  -1.304  1.00  0.00     0.042 C 
BRANCH  27  28
HETATM   28  C1  UNK     1       6.238   3.220   0.232  1.00  0.00    -0.019 C 
HETATM   29  C8  UNK     1       5.063   4.086   0.694  1.00  0.00     0.010 C 
HETATM   30  C9  UNK     1       6.102   1.813   0.818  1.00  0.00     0.010 C 
ENDBRANCH  27  28
ENDBRANCH  24  27
ENDBRANCH  19  21
ENDBRANCH   3  19
TORSDOF 7
