REMARK  4 active torsions:
REMARK  status: ('A' for Active; 'I' for Inactive)
REMARK       I    between atoms: C10_20  and  N1_9 
REMARK    1  A    between atoms: C3_13  and  N1_9 
REMARK       I    between atoms: C13_23  and  N2_10 
REMARK    2  A    between atoms: C1_11  and  C4_14 
REMARK    3  A    between atoms: C13_23  and  C2_12 
REMARK    4  A    between atoms: C10_20  and  C6_16 
ROOT
HETATM    1  S1  UNK     1      -2.291  -0.108  -1.643  1.00  0.00    -0.082 SA
HETATM    2  C1  UNK     1      -3.002  -1.280   0.530  1.00  0.00     0.001 A 
HETATM    3  C2  UNK     1      -1.670  -0.823   0.746  1.00  0.00     0.077 A 
HETATM    4  C3  UNK     1      -1.189  -0.182  -0.351  1.00  0.00     0.093 A 
HETATM    5  C5  UNK     1      -3.462  -0.958  -0.728  1.00  0.00     0.065 A 
ENDROOT
BRANCH   4   6
HETATM    6  N1  UNK     1       0.053   0.419  -0.578  1.00  0.00    -0.316 N 
HETATM    7  C10 UNK     1       0.452   1.056  -1.745  1.00  0.00     0.262 C 
HETATM    8  O2  UNK     1      -0.181   1.218  -2.786  1.00  0.00    -0.267 OA
HETATM    9  H2  UNK     1       0.701   0.345   0.201  1.00  0.00     0.169 HD
BRANCH   7  10
HETATM   10  C6  UNK     1       1.822   1.575  -1.643  1.00  0.00     0.108 A 
HETATM   11  C14 UNK     1       2.401   2.014  -0.353  1.00  0.00     0.304 A 
HETATM   12  O1  UNK     1       3.709   2.489  -0.385  1.00  0.00    -0.274 OA
HETATM   13  O4  UNK     1       1.764   1.966   0.694  1.00  0.00    -0.259 OA
HETATM   14  C9  UNK     1       4.449   2.549  -1.582  1.00  0.00     0.089 A 
HETATM   15  C16 UNK     1       5.752   3.038  -1.514  1.00  0.00     0.039 A 
HETATM   16  C7  UNK     1       3.885   2.131  -2.784  1.00  0.00     0.000 A 
HETATM   17  C21 UNK     1       6.509   3.109  -2.682  1.00  0.00     0.022 A 
HETATM   18  C19 UNK     1       5.960   2.694  -3.897  1.00  0.00     0.011 A 
HETATM   19 Br1  UNK     1       6.992   2.795  -5.478  1.00  0.00    -0.051 Br
HETATM   20  C15 UNK     1       4.651   2.206  -3.950  1.00  0.00     0.033 A 
HETATM   21  C8  UNK     1       2.520   1.630  -2.783  1.00  0.00     0.037 A 
ENDBRANCH   7  10
ENDBRANCH   4   6
BRANCH   3  22
HETATM   22  C13 UNK     1      -0.907  -1.002   1.956  1.00  0.00     0.253 C 
HETATM   23  O3  UNK     1      -0.162  -1.980   2.152  1.00  0.00    -0.268 OA
HETATM   24  N2  UNK     1      -1.007  -0.011   2.929  1.00  0.00    -0.366 N 
HETATM   25  H10 UNK     1      -1.597   0.807   2.807  1.00  0.00     0.159 HD
HETATM   26  H11 UNK     1      -0.488  -0.078   3.798  1.00  0.00     0.159 HD
ENDBRANCH   3  22
BRANCH   2  27
HETATM   27  C4  UNK     1      -3.846  -1.999   1.449  1.00  0.00    -0.003 A 
HETATM   28  C11 UNK     1      -4.698  -1.340   2.336  1.00  0.00     0.046 A 
HETATM   29 Cl1  UNK     1      -4.803   0.386   2.394  1.00  0.00    -0.083 Cl
HETATM   30  C17 UNK     1      -5.498  -2.075   3.210  1.00  0.00     0.048 A 
HETATM   31  C20 UNK     1      -5.447  -3.469   3.198  1.00  0.00     0.035 A 
HETATM   32  C18 UNK     1      -4.595  -4.128   2.311  1.00  0.00     0.025 A 
HETATM   33 Cl2  UNK     1      -6.435  -4.377   4.275  1.00  0.00    -0.084 Cl
HETATM   34  C12 UNK     1      -3.795  -3.393   1.437  1.00  0.00     0.016 A 
ENDBRANCH   2  27
TORSDOF 4
