REMARK  5 active torsions:
REMARK  status: ('A' for Active; 'I' for Inactive)
REMARK    1  A    between atoms: C8_14  and  O2_2 
REMARK    2  A    between atoms: C9_15  and  O3_3 
REMARK    3  A    between atoms: C11_17  and  O4_4 
REMARK    4  A    between atoms: C5_11  and  O5_5 
REMARK    5  A    between atoms: C1_7  and  C2_8 
ROOT
HETATM    1  O1  UNK     1      -1.666   0.530   0.965  1.00  0.00    -0.306 OA
HETATM    2  O6  UNK     1      -2.041  -3.518   0.691  1.00  0.00    -0.284 OA
HETATM    3  C2  UNK     1      -0.808  -0.224   0.180  1.00  0.00     0.123 A 
HETATM    4  C3  UNK     1      -2.848  -1.495   1.594  1.00  0.00     0.051 A 
HETATM    5  C4  UNK     1      -2.665  -0.115   1.647  1.00  0.00     0.090 A 
HETATM    6  C5  UNK     1      -0.871  -1.562   0.050  1.00  0.00     0.152 A 
HETATM    7  C10 UNK     1      -1.933  -2.302   0.773  1.00  0.00     0.220 A 
HETATM    8  C12 UNK     1      -3.884  -2.097   2.312  1.00  0.00     0.018 A 
HETATM    9  C13 UNK     1      -3.518   0.673   2.421  1.00  0.00     0.038 A 
HETATM   10  C14 UNK     1      -4.736  -1.307   3.085  1.00  0.00     0.001 A 
HETATM   11  C15 UNK     1      -4.553   0.075   3.140  1.00  0.00     0.003 A 
ENDROOT
BRANCH   3  12
HETATM   12  C1  UNK     1       0.218   0.590  -0.496  1.00  0.00     0.006 A 
HETATM   13  C6  UNK     1      -0.027   1.103  -1.770  1.00  0.00     0.054 A 
HETATM   14  C9  UNK     1       0.944   1.874  -2.410  1.00  0.00     0.105 A 
HETATM   15  C11 UNK     1       2.159   2.132  -1.776  1.00  0.00     0.135 A 
HETATM   16  C8  UNK     1       2.404   1.620  -0.502  1.00  0.00     0.105 A 
HETATM   17  C7  UNK     1       1.433   0.849   0.138  1.00  0.00     0.054 A 
BRANCH  14  18
HETATM   18  O3  UNK     1       0.692   2.369  -3.654  1.00  0.00    -0.353 OA
HETATM   19  C17 UNK     1       1.066   1.555  -4.764  1.00  0.00     0.210 C 
ENDBRANCH  14  18
BRANCH  15  20
HETATM   20  O4  UNK     1       3.108   2.886  -2.402  1.00  0.00    -0.351 OA
HETATM   21  C18 UNK     1       4.369   2.268  -2.644  1.00  0.00     0.210 C 
ENDBRANCH  15  20
BRANCH  16  22
HETATM   22  O2  UNK     1       3.586   1.865   0.128  1.00  0.00    -0.353 OA
HETATM   23  C16 UNK     1       3.656   3.032   0.945  1.00  0.00     0.210 C 
ENDBRANCH  16  22
ENDBRANCH   3  12
BRANCH   6  24
HETATM   24  O5  UNK     1       0.019  -2.287  -0.713  1.00  0.00    -0.355 OA
HETATM   25  H7  UNK     1       0.661  -1.689  -1.127  1.00  0.00     0.218 HD
ENDBRANCH   6  24
TORSDOF 5
