REMARK  5 active torsions:
REMARK  status: ('A' for Active; 'I' for Inactive)
REMARK    1  A    between atoms: C14_21  and  N3_6 
REMARK    2  A    between atoms: C3_10  and  N3_6 
REMARK    3  A    between atoms: C14_21  and  N4_7 
REMARK    4  A    between atoms: C7_14  and  N4_7 
REMARK    5  A    between atoms: C2_9  and  C3_10 
ROOT
HETATM    1  N4  UNK     1       0.249  -0.169  -1.285  1.00  0.00    -0.333 N 
HETATM    2  H8  UNK     1       1.244  -0.215  -1.086  1.00  0.00     0.168 HD
ENDROOT
BRANCH   1   3
HETATM    3  C14 UNK     1      -0.057   0.509  -2.478  1.00  0.00     0.172 C 
HETATM    4  S1  UNK     1      -1.527   1.185  -2.929  1.00  0.00    -0.041 SA
BRANCH   3   5
HETATM    5  N3  UNK     1       1.003   0.662  -3.363  1.00  0.00    -0.361 N 
HETATM    6  H7  UNK     1       0.804   1.168  -4.222  1.00  0.00     0.162 HD
BRANCH   5   7
HETATM    7  C3  UNK     1       2.367   0.202  -3.183  1.00  0.00     0.183 C 
BRANCH   7   8
HETATM    8  C2  UNK     1       3.159   1.248  -2.476  1.00  0.00     0.074 A 
HETATM    9  N2  UNK     1       3.210   1.233  -1.150  1.00  0.00    -0.176 NA
HETATM   10  N1  UNK     1       3.991   2.292  -0.878  1.00  0.00    -0.278 N 
HETATM   11  C15 UNK     1       4.290   2.613   0.498  1.00  0.00     0.179 C 
HETATM   12  C4  UNK     1       4.423   2.957  -1.988  1.00  0.00     0.028 A 
HETATM   13  C12 UNK     1       5.289   4.149  -1.926  1.00  0.00     0.070 C 
HETATM   14  C6  UNK     1       3.886   2.287  -3.060  1.00  0.00     0.057 A 
ENDBRANCH   7   8
ENDBRANCH   5   7
ENDBRANCH   3   5
ENDBRANCH   1   3
BRANCH   1  15
HETATM   15  C7  UNK     1      -0.518  -0.515  -0.172  1.00  0.00     0.036 A 
HETATM   16  C11 UNK     1       0.054  -0.513   1.099  1.00  0.00     0.030 A 
HETATM   17  C10 UNK     1      -0.710  -0.860   2.219  1.00  0.00     0.017 A 
HETATM   18  C1  UNK     1      -2.059  -1.214   2.084  1.00  0.00     0.004 A 
HETATM   19  C5  UNK     1      -2.605  -1.207   0.800  1.00  0.00     0.092 A 
HETATM   20  C8  UNK     1      -2.921  -1.590   3.213  1.00  0.00    -0.043 A 
HETATM   21  O1  UNK     1      -3.953  -1.551   0.579  1.00  0.00    -0.275 OA
HETATM   22  C9  UNK     1      -1.856  -0.863  -0.327  1.00  0.00     0.067 A 
HETATM   23  C17 UNK     1      -4.790  -1.910   1.625  1.00  0.00     0.288 A 
HETATM   24  C13 UNK     1      -4.200  -1.912   2.974  1.00  0.00     0.090 A 
HETATM   25  O2  UNK     1      -5.965  -2.211   1.444  1.00  0.00    -0.260 OA
HETATM   26  C16 UNK     1      -2.364  -1.607   4.607  1.00  0.00     0.049 C 
ENDBRANCH   1  15
TORSDOF 5
