REMARK  2 active torsions:
REMARK  status: ('A' for Active; 'I' for Inactive)
REMARK       I    between atoms: C7_15  and  N1_5 
REMARK    1  A    between atoms: N1_5  and  N2_6 
REMARK    2  A    between atoms: C3_11  and  C7_15 
ROOT
HETATM    1 Br1  UNK     1       5.628   3.028  -1.012  1.00  0.00    -0.051 Br
HETATM    2  O1  UNK     1       0.273   0.613  -2.528  1.00  0.00    -0.274 OA
HETATM    3  O2  UNK     1      -1.635  -0.503  -1.950  1.00  0.00    -0.259 OA
HETATM    4  C1  UNK     1       1.947   1.087  -0.829  1.00  0.00     0.000 A 
HETATM    5  C2  UNK     1       1.512   1.165  -2.148  1.00  0.00     0.089 A 
HETATM    6  C3  UNK     1      -0.076  -0.096  -0.213  1.00  0.00     0.110 A 
HETATM    7  C4  UNK     1       1.101   0.426   0.153  1.00  0.00     0.037 A 
HETATM    8  C5  UNK     1       3.181   1.647  -0.492  1.00  0.00     0.033 A 
HETATM    9  C6  UNK     1      -0.558  -0.026  -1.611  1.00  0.00     0.304 A 
HETATM   10  C8  UNK     1       2.274   1.785  -3.137  1.00  0.00     0.039 A 
HETATM   11  C9  UNK     1       3.957   2.272  -1.473  1.00  0.00     0.011 A 
HETATM   12  C10 UNK     1       3.504   2.341  -2.792  1.00  0.00     0.022 A 
ENDROOT
BRANCH   6  13
HETATM   13  C7  UNK     1      -0.857  -0.743   0.848  1.00  0.00     0.276 C 
HETATM   14  O3  UNK     1      -0.301  -1.282   1.803  1.00  0.00    -0.266 OA
HETATM   15  N1  UNK     1      -2.219  -0.661   0.627  1.00  0.00    -0.257 N 
HETATM   16  H5  UNK     1      -2.646  -0.186  -0.162  1.00  0.00     0.191 HD
BRANCH  15  17
HETATM   17  N2  UNK     1      -3.091  -1.214   1.524  1.00  0.00    -0.237 N 
HETATM   18  C11 UNK     1      -3.565  -2.472   1.498  1.00  0.00     0.258 A 
HETATM   19  N3  UNK     1      -4.372  -2.640   2.521  1.00  0.00    -0.142 NA
HETATM   20  N4  UNK     1      -4.411  -1.449   3.218  1.00  0.00    -0.142 NA
HETATM   21  C12 UNK     1      -3.626  -0.600   2.594  1.00  0.00     0.258 A 
ENDBRANCH  15  17
ENDBRANCH   6  13
TORSDOF 2
