REMARK  2 active torsions:
REMARK  status: ('A' for Active; 'I' for Inactive)
REMARK    1  A    between atoms: C3_6  and  O1_1 
REMARK    2  A    between atoms: C8_11  and  O1_1 
ROOT
HETATM    1  O2  UNK     1      -0.655  -0.489   1.621  1.00  0.00    -0.275 OA
HETATM    2  O3  UNK     1      -2.161  -1.231   3.178  1.00  0.00    -0.260 OA
HETATM    3  C1  UNK     1      -1.343  -0.329  -0.708  1.00  0.00    -0.002 A 
HETATM    4  C2  UNK     1      -0.370  -0.176   0.276  1.00  0.00     0.092 A 
HETATM    5  C3  UNK     1       1.220   0.605  -1.344  1.00  0.00     0.071 A 
HETATM    6  C4  UNK     1       0.909   0.288  -0.023  1.00  0.00     0.075 A 
HETATM    7  C5  UNK     1      -1.023  -0.008  -2.029  1.00  0.00     0.017 A 
HETATM    8  C6  UNK     1       0.257   0.458  -2.344  1.00  0.00     0.038 A 
HETATM    9  C7  UNK     1      -2.657  -0.817  -0.325  1.00  0.00     0.020 A 
HETATM   10  C9  UNK     1      -2.919  -1.111   0.951  1.00  0.00     0.083 A 
HETATM   11  C10 UNK     1      -1.905  -0.957   2.011  1.00  0.00     0.288 A 
ENDROOT
BRANCH   5  12
HETATM   12  O1  UNK     1       2.464   1.060  -1.660  1.00  0.00    -0.351 OA
BRANCH  12  13
HETATM   13  C8  UNK     1       3.160   1.796  -0.656  1.00  0.00     0.171 C 
HETATM   14  C11 UNK     1       4.089   2.786  -1.326  1.00  0.00     0.034 C 
ENDBRANCH  12  13
ENDBRANCH   5  12
TORSDOF 2
