REMARK  2 active torsions:
REMARK  status: ('A' for Active; 'I' for Inactive)
REMARK       I    between atoms: C7_12  and  N1_5 
REMARK    1  A    between atoms: C1_6  and  C6_11 
REMARK    2  A    between atoms: C7_12  and  C9_14 
ROOT
HETATM    1 Br1  UNK     1       4.937   3.603  -0.626  1.00  0.00    -0.051 Br
HETATM    2  O2  UNK     1       0.848  -0.444  -2.553  1.00  0.00    -0.274 OA
HETATM    3  O3  UNK     1      -1.239  -1.367  -2.433  1.00  0.00    -0.259 OA
HETATM    4  C9  UNK     1      -0.778   0.414  -0.940  1.00  0.00     0.108 A 
HETATM    5  C10 UNK     1       0.102   1.319  -0.494  1.00  0.00     0.037 A 
HETATM    6  C11 UNK     1      -0.435  -0.537  -2.021  1.00  0.00     0.304 A 
HETATM    7  C12 UNK     1       1.436   1.390  -1.069  1.00  0.00     0.000 A 
HETATM    8  C13 UNK     1       1.778   0.506  -2.087  1.00  0.00     0.089 A 
HETATM    9  C14 UNK     1       2.386   2.317  -0.633  1.00  0.00     0.033 A 
HETATM   10  C15 UNK     1       3.039   0.523  -2.680  1.00  0.00     0.039 A 
HETATM   11  C16 UNK     1       3.655   2.346  -1.219  1.00  0.00     0.011 A 
HETATM   12  C17 UNK     1       3.980   1.450  -2.240  1.00  0.00     0.022 A 
ENDROOT
BRANCH   4  13
HETATM   13  C7  UNK     1      -2.106   0.421  -0.293  1.00  0.00     0.260 C 
HETATM   14  O1  UNK     1      -2.974   1.142  -0.789  1.00  0.00    -0.267 OA
HETATM   15  N1  UNK     1      -2.290  -0.385   0.834  1.00  0.00    -0.343 N 
HETATM   16  C1  UNK     1      -1.224  -1.147   1.527  1.00  0.00     0.087 C 
HETATM   17  C5  UNK     1      -3.608  -0.378   1.482  1.00  0.00     0.126 C 
HETATM   18  C2  UNK     1      -1.712  -2.543   1.949  1.00  0.00     0.025 C 
HETATM   19  C3  UNK     1      -3.049  -2.514   2.679  1.00  0.00     0.004 C 
HETATM   20  C4  UNK     1      -4.087  -1.779   1.841  1.00  0.00     0.020 C 
BRANCH  16  21
HETATM   21  C6  UNK     1      -0.663  -0.349   2.708  1.00  0.00     0.021 C 
HETATM   22  C8  UNK     1       0.535  -1.045   3.321  1.00  0.00     0.007 C 
ENDBRANCH  16  21
ENDBRANCH   4  13
TORSDOF 2
