REMARK  7 active torsions:
REMARK  status: ('A' for Active; 'I' for Inactive)
REMARK    1  A    between atoms: C11_18  and  O3_3 
REMARK    2  A    between atoms: C19_26  and  O3_3 
REMARK    3  A    between atoms: C22_29  and  O6_6 
REMARK    4  A    between atoms: C23_30  and  O6_6 
REMARK    5  A    between atoms: C1_8  and  C10_17 
REMARK    6  A    between atoms: C11_18  and  C6_13 
REMARK    7  A    between atoms: C19_26  and  C22_29 
ROOT
HETATM    1  O1  UNK     1       1.873  -0.614  -3.571  1.00  0.00    -0.293 OA
HETATM    2  N1  UNK     1       3.519   2.892  -0.843  1.00  0.00    -0.362 N 
HETATM    3  C1  UNK     1       1.999   0.496  -0.911  1.00  0.00     0.104 C 
HETATM    4  C2  UNK     1       2.587   1.154  -2.156  1.00  0.00     0.024 C 
HETATM    5  C3  UNK     1       3.283   2.308  -2.072  1.00  0.00     0.020 C 
HETATM    6  C4  UNK     1       3.841   3.026  -3.273  1.00  0.00     0.058 C 
HETATM    7  C5  UNK     1       3.140   2.620  -4.563  1.00  0.00     0.014 C 
HETATM    8  C6  UNK     1       2.460   1.167   0.384  1.00  0.00     0.052 C 
HETATM    9  C7  UNK     1       3.083   1.109  -4.696  1.00  0.00     0.084 C 
HETATM   10  C8  UNK     1       2.443   0.473  -3.481  1.00  0.00     0.158 C 
HETATM   11  C9  UNK     1       3.162   2.324   0.370  1.00  0.00     0.018 C 
HETATM   12  C13 UNK     1       3.617   3.086   1.585  1.00  0.00     0.069 C 
HETATM   13  H8  UNK     1       4.047   3.757  -0.822  1.00  0.00     0.165 HD
ENDROOT
BRANCH   8  14
HETATM   14  C11 UNK     1       2.144   0.461   1.637  1.00  0.00     0.292 C 
HETATM   15  O5  UNK     1       2.867  -0.386   2.128  1.00  0.00    -0.259 OA
BRANCH  14  16
HETATM   16  O3  UNK     1       0.957   0.922   2.099  1.00  0.00    -0.316 OA
BRANCH  16  17
HETATM   17  C19 UNK     1       0.510   0.327   3.322  1.00  0.00     0.205 C 
BRANCH  17  18
HETATM   18  C22 UNK     1      -0.329  -0.894   3.000  1.00  0.00     0.202 C 
BRANCH  18  19
HETATM   19  O6  UNK     1      -1.460  -0.492   2.235  1.00  0.00    -0.349 OA
BRANCH  19  20
HETATM   20  C23 UNK     1      -2.592  -1.253   2.362  1.00  0.00     0.068 A 
HETATM   21  C24 UNK     1      -3.840  -0.661   2.203  1.00  0.00     0.037 A 
HETATM   22  C26 UNK     1      -4.993  -1.435   2.332  1.00  0.00     0.003 A 
HETATM   23  C28 UNK     1      -4.891  -2.796   2.619  1.00  0.00     0.000 A 
HETATM   24  C27 UNK     1      -3.636  -3.383   2.777  1.00  0.00     0.003 A 
HETATM   25  C25 UNK     1      -2.483  -2.609   2.648  1.00  0.00     0.037 A 
ENDBRANCH  19  20
ENDBRANCH  18  19
ENDBRANCH  17  18
ENDBRANCH  16  17
ENDBRANCH  14  16
ENDBRANCH   8  14
BRANCH   3  26
HETATM   26  C10 UNK     1       0.496   0.489  -0.987  1.00  0.00     0.029 A 
HETATM   27  C12 UNK     1      -0.206  -0.819  -1.013  1.00  0.00     0.194 A 
HETATM   28  O4  UNK     1       0.397  -1.883  -0.975  1.00  0.00    -0.287 OA
HETATM   29  C15 UNK     1      -1.678  -0.769  -1.090  1.00  0.00     0.048 A 
HETATM   30  C16 UNK     1      -2.313   0.473  -1.131  1.00  0.00     0.089 A 
HETATM   31  C17 UNK     1      -2.430  -1.946  -1.120  1.00  0.00     0.018 A 
HETATM   32  O2  UNK     1      -1.624   1.659  -1.104  1.00  0.00    -0.321 OA
HETATM   33  C18 UNK     1      -3.705   0.544  -1.203  1.00  0.00     0.038 A 
HETATM   34  C14 UNK     1      -0.254   1.597  -1.033  1.00  0.00     0.154 A 
HETATM   35  C21 UNK     1      -4.458  -0.630  -1.233  1.00  0.00     0.003 A 
HETATM   36  C20 UNK     1      -3.822  -1.871  -1.192  1.00  0.00     0.001 A 
ENDBRANCH   3  26
TORSDOF 7
