REMARK  5 active torsions:
REMARK  status: ('A' for Active; 'I' for Inactive)
REMARK    1  A    between atoms: C14_19  and  O3_3 
REMARK    2  A    between atoms: C17_22  and  O3_3 
REMARK    3  A    between atoms: C18_23  and  O4_4 
REMARK    4  A    between atoms: C6_11  and  C7_12 
REMARK    5  A    between atoms: C17_22  and  C18_23 
ROOT
HETATM    1  C7  UNK     1      -0.800  -0.504  -0.561  1.00  0.00    -0.035 A 
HETATM    2  C12 UNK     1      -0.407  -1.519   0.319  1.00  0.00     0.014 A 
HETATM    3  C13 UNK     1      -1.991   0.189  -0.320  1.00  0.00     0.014 A 
HETATM    4  C14 UNK     1      -2.381  -1.141   1.659  1.00  0.00     0.069 A 
HETATM    5  C15 UNK     1      -1.195  -1.837   1.425  1.00  0.00     0.037 A 
HETATM    6  C16 UNK     1      -2.779  -0.128   0.786  1.00  0.00     0.037 A 
ENDROOT
BRANCH   1   7
HETATM    7  C6  UNK     1       0.016  -0.176  -1.708  1.00  0.00     0.031 C 
HETATM    8  C3  UNK     1       1.005   0.713  -1.785  1.00  0.00     0.067 A 
HETATM    9  C4  UNK     1       1.803   0.996  -3.005  1.00  0.00     0.197 A 
HETATM   10  C5  UNK     1       1.474   1.565  -0.662  1.00  0.00     0.197 A 
HETATM   11  C1  UNK     1       2.755   2.035  -2.586  1.00  0.00     0.029 A 
HETATM   12  O1  UNK     1       1.702   0.494  -4.103  1.00  0.00    -0.286 OA
HETATM   13  C2  UNK     1       2.566   2.362  -1.240  1.00  0.00     0.029 A 
HETATM   14  C8  UNK     1       3.727   2.650  -3.352  1.00  0.00     0.016 A 
HETATM   15  C9  UNK     1       3.343   3.315  -0.609  1.00  0.00     0.016 A 
HETATM   16  C11 UNK     1       4.331   3.946  -1.371  1.00  0.00     0.001 A 
HETATM   17  C10 UNK     1       4.521   3.617  -2.728  1.00  0.00     0.001 A 
HETATM   18  O2  UNK     1       1.060   1.605   0.476  1.00  0.00    -0.286 OA
ENDBRANCH   1   7
BRANCH   4  19
HETATM   19  O3  UNK     1      -3.149  -1.450   2.739  1.00  0.00    -0.341 OA
BRANCH  19  20
HETATM   20  C17 UNK     1      -4.556  -1.246   2.616  1.00  0.00     0.285 C 
BRANCH  20  21
HETATM   21  C18 UNK     1      -5.291  -2.224   3.489  1.00  0.00     0.164 C 
HETATM   22  O5  UNK     1      -4.778  -3.087   4.185  1.00  0.00    -0.648 OA
BRANCH  21  23
HETATM   23  O4  UNK     1      -6.629  -2.017   3.401  1.00  0.00    -0.775 OA
HETATM   24  H12 UNK     1      -7.134  -2.643   3.963  1.00  0.00     0.167 HD
ENDBRANCH  21  23
ENDBRANCH  20  21
ENDBRANCH  19  20
ENDBRANCH   4  19
TORSDOF 5
