REMARK  5 active torsions:
REMARK  status: ('A' for Active; 'I' for Inactive)
REMARK    1  A    between atoms: C15_22  and  O1_2 
REMARK    2  A    between atoms: C18_25  and  O1_2 
REMARK    3  A    between atoms: C14_21  and  N1_7 
REMARK       I    between atoms: C16_23  and  N1_7 
REMARK    4  A    between atoms: C13_20  and  C15_22 
REMARK    5  A    between atoms: C16_23  and  C17_24 
ROOT
HETATM    1  S1  UNK     1       0.284  -0.478  -2.405  1.00  0.00    -0.075 SA
HETATM    2  C1  UNK     1       5.344   4.552  -3.229  1.00  0.00     0.000 C 
HETATM    3  C2  UNK     1       5.865   3.439  -2.303  1.00  0.00     0.000 C 
HETATM    4  C3  UNK     1       3.894   4.457  -3.708  1.00  0.00     0.000 C 
HETATM    5  C4  UNK     1       5.171   3.288  -0.943  1.00  0.00     0.000 C 
HETATM    6  C5  UNK     1       3.572   3.151  -4.438  1.00  0.00     0.000 C 
HETATM    7  C6  UNK     1       3.827   2.552  -0.907  1.00  0.00     0.005 C 
HETATM    8  C7  UNK     1       2.077   2.827  -4.400  1.00  0.00     0.000 C 
HETATM    9  C8  UNK     1       3.880   1.080  -1.339  1.00  0.00     0.041 C 
HETATM   10  C9  UNK     1       1.751   1.420  -4.915  1.00  0.00     0.005 C 
HETATM   11  C10 UNK     1       2.498   0.492  -1.493  1.00  0.00    -0.026 A 
HETATM   12  C11 UNK     1       2.348   0.256  -4.108  1.00  0.00     0.046 C 
HETATM   13  C12 UNK     1       1.856   0.165  -2.685  1.00  0.00    -0.008 A 
HETATM   14  C13 UNK     1       1.662   0.192  -0.362  1.00  0.00     0.080 A 
HETATM   15  C14 UNK     1       0.442  -0.329  -0.717  1.00  0.00     0.094 A 
ENDROOT
BRANCH  15  16
HETATM   16  N1  UNK     1      -0.622  -0.741   0.039  1.00  0.00    -0.316 N 
HETATM   17  C16 UNK     1      -1.833  -1.264  -0.433  1.00  0.00     0.262 C 
HETATM   18  O3  UNK     1      -2.180  -1.455  -1.592  1.00  0.00    -0.267 OA
HETATM   19  H21 UNK     1      -0.500  -0.628   1.042  1.00  0.00     0.169 HD
BRANCH  17  20
HETATM   20  C17 UNK     1      -2.766  -1.605   0.661  1.00  0.00     0.108 A 
HETATM   21  C19 UNK     1      -4.071  -1.509   0.378  1.00  0.00     0.037 A 
HETATM   22  C21 UNK     1      -5.066  -1.824   1.391  1.00  0.00    -0.001 A 
HETATM   23  C23 UNK     1      -4.639  -2.225   2.653  1.00  0.00     0.089 A 
HETATM   24  C24 UNK     1      -6.438  -1.738   1.140  1.00  0.00     0.014 A 
HETATM   25  O4  UNK     1      -3.264  -2.325   2.945  1.00  0.00    -0.274 OA
HETATM   26  C25 UNK     1      -5.540  -2.541   3.667  1.00  0.00     0.038 A 
HETATM   27  C20 UNK     1      -2.289  -2.030   1.996  1.00  0.00     0.304 A 
HETATM   28  O5  UNK     1      -1.094  -2.119   2.260  1.00  0.00    -0.259 OA
HETATM   29  C27 UNK     1      -6.906  -2.452   3.409  1.00  0.00     0.003 A 
HETATM   30  C26 UNK     1      -7.354  -2.051   2.148  1.00  0.00     0.001 A 
ENDBRANCH  17  20
ENDBRANCH  15  16
BRANCH  14  31
HETATM   31  C15 UNK     1       2.021   0.385   1.023  1.00  0.00     0.296 C 
HETATM   32  O2  UNK     1       3.181   0.315   1.451  1.00  0.00    -0.259 OA
BRANCH  31  33
HETATM   33  O1  UNK     1       0.948   0.659   1.843  1.00  0.00    -0.318 OA
BRANCH  33  34
HETATM   34  C18 UNK     1       1.233   0.861   3.232  1.00  0.00     0.174 C 
HETATM   35  C22 UNK     1      -0.060   1.147   3.964  1.00  0.00     0.034 C 
ENDBRANCH  33  34
ENDBRANCH  31  33
ENDBRANCH  14  31
TORSDOF 5
