REMARK  9 active torsions:
REMARK  status: ('A' for Active; 'I' for Inactive)
REMARK    1  A    between atoms: C10_15  and  O1_1 
REMARK    2  A    between atoms: C4_9  and  O1_1 
REMARK    3  A    between atoms: C15_20  and  O2_2 
REMARK    4  A    between atoms: C17_22  and  O2_2 
REMARK    5  A    between atoms: C9_14  and  O3_3 
REMARK    6  A    between atoms: C14_19  and  O4_4 
REMARK    7  A    between atoms: C1_6  and  C3_8 
REMARK    8  A    between atoms: C2_7  and  C5_10 
REMARK    9  A    between atoms: C10_15  and  C15_20 
ROOT
HETATM    1  N1  UNK     1      -0.183  -0.239   2.149  1.00  0.00    -0.191 NA
HETATM    2  C3  UNK     1      -2.216  -1.073   0.778  1.00  0.00     0.055 C 
HETATM    3  C5  UNK     1      -2.229  -0.895  -0.568  1.00  0.00     0.034 C 
HETATM    4  C18 UNK     1      -1.093  -0.612   1.533  1.00  0.00     0.100 C 
ENDROOT
BRANCH   2   5
HETATM    5  C1  UNK     1      -3.325  -1.722   1.504  1.00  0.00    -0.013 A 
HETATM    6  C6  UNK     1      -3.590  -1.347   2.810  1.00  0.00     0.052 A 
HETATM    7  C9  UNK     1      -4.638  -1.960   3.496  1.00  0.00     0.102 A 
HETATM    8  C14 UNK     1      -5.405  -2.939   2.865  1.00  0.00     0.101 A 
HETATM    9  C16 UNK     1      -5.124  -3.306   1.549  1.00  0.00     0.040 A 
HETATM   10  C11 UNK     1      -4.076  -2.692   0.863  1.00  0.00     0.016 A 
BRANCH   7  11
HETATM   11  O3  UNK     1      -4.902  -1.594   4.781  1.00  0.00    -0.353 OA
HETATM   12  C24 UNK     1      -4.071  -0.586   5.352  1.00  0.00     0.210 C 
ENDBRANCH   7  11
BRANCH   8  13
HETATM   13  O4  UNK     1      -6.432  -3.546   3.524  1.00  0.00    -0.353 OA
HETATM   14  C25 UNK     1      -6.122  -4.729   4.257  1.00  0.00     0.210 C 
ENDBRANCH   8  13
ENDBRANCH   2   5
BRANCH   3  15
HETATM   15  C2  UNK     1      -1.197  -0.266  -1.376  1.00  0.00    -0.035 A 
HETATM   16  C7  UNK     1      -1.245   1.106  -1.626  1.00  0.00     0.014 A 
HETATM   17  C12 UNK     1      -0.256   1.709  -2.402  1.00  0.00     0.037 A 
HETATM   18  C4  UNK     1       0.783   0.941  -2.928  1.00  0.00     0.068 A 
HETATM   19  C13 UNK     1       0.831  -0.431  -2.679  1.00  0.00     0.037 A 
HETATM   20  C8  UNK     1      -0.158  -1.034  -1.903  1.00  0.00     0.014 A 
BRANCH  18  21
HETATM   21  O1  UNK     1       1.748   1.529  -3.686  1.00  0.00    -0.349 OA
BRANCH  21  22
HETATM   22  C10 UNK     1       2.058   2.892  -3.398  1.00  0.00     0.202 C 
BRANCH  22  23
HETATM   23  C15 UNK     1       3.521   3.143  -3.710  1.00  0.00     0.202 C 
BRANCH  23  24
HETATM   24  O2  UNK     1       4.321   2.299  -2.891  1.00  0.00    -0.349 OA
BRANCH  24  25
HETATM   25  C17 UNK     1       5.569   2.761  -2.563  1.00  0.00     0.068 A 
HETATM   26  C19 UNK     1       6.148   2.383  -1.357  1.00  0.00     0.037 A 
HETATM   27  C21 UNK     1       7.418   2.852  -1.023  1.00  0.00     0.003 A 
HETATM   28  C23 UNK     1       8.102   3.697  -1.898  1.00  0.00     0.000 A 
HETATM   29  C22 UNK     1       7.515   4.072  -3.107  1.00  0.00     0.003 A 
HETATM   30  C20 UNK     1       6.244   3.603  -3.440  1.00  0.00     0.037 A 
ENDBRANCH  24  25
ENDBRANCH  23  24
ENDBRANCH  22  23
ENDBRANCH  21  22
ENDBRANCH  18  21
ENDBRANCH   3  15
TORSDOF 9
