REMARK  2 active torsions:
REMARK  status: ('A' for Active; 'I' for Inactive)
REMARK       I    between atoms: C10_14  and  N1_4 
REMARK    1  A    between atoms: C8_12  and  N1_4 
REMARK    2  A    between atoms: C10_14  and  C11_15 
ROOT
HETATM    1  O2  UNK     1       0.199   0.780   1.452  1.00  0.00    -0.267 OA
HETATM    2  N1  UNK     1      -0.915  -0.353  -0.293  1.00  0.00    -0.323 N 
HETATM    3  C10 UNK     1       0.069   0.458   0.277  1.00  0.00     0.262 C 
HETATM    4  H10 UNK     1      -0.859  -0.537  -1.292  1.00  0.00     0.169 HD
ENDROOT
BRANCH   3   5
HETATM    5  C11 UNK     1       1.041   0.951  -0.721  1.00  0.00     0.108 A 
HETATM    6  C13 UNK     1       2.283   1.175  -0.276  1.00  0.00     0.037 A 
HETATM    7  C12 UNK     1       3.311   1.663  -1.183  1.00  0.00    -0.001 A 
HETATM    8  C14 UNK     1       2.979   1.890  -2.515  1.00  0.00     0.089 A 
HETATM    9  C16 UNK     1       4.620   1.910  -0.762  1.00  0.00     0.014 A 
HETATM   10  O1  UNK     1       1.670   1.652  -2.977  1.00  0.00    -0.274 OA
HETATM   11  C17 UNK     1       3.916   2.357  -3.435  1.00  0.00     0.038 A 
HETATM   12  C15 UNK     1       0.666   1.186  -2.133  1.00  0.00     0.304 A 
HETATM   13  O3  UNK     1      -0.471   0.983  -2.545  1.00  0.00    -0.259 OA
HETATM   14  C19 UNK     1       5.219   2.601  -3.007  1.00  0.00     0.003 A 
HETATM   15  C18 UNK     1       5.571   2.378  -1.674  1.00  0.00     0.001 A 
ENDBRANCH   3   5
BRANCH   2  16
HETATM   16  C8  UNK     1      -1.981  -0.986   0.348  1.00  0.00     0.035 A 
HETATM   17  C6  UNK     1      -2.153  -0.827   1.725  1.00  0.00     0.037 A 
HETATM   18  C4  UNK     1      -3.219  -1.471   2.331  1.00  0.00    -0.050 A 
HETATM   19  C2  UNK     1      -3.628  -1.422   3.769  1.00  0.00     0.039 C 
HETATM   20  C5  UNK     1      -4.110  -2.251   1.585  1.00  0.00    -0.052 A 
HETATM   21  C1  UNK     1      -4.575  -2.628   3.850  1.00  0.00     0.009 C 
HETATM   22  C3  UNK     1      -5.198  -2.796   2.456  1.00  0.00     0.039 C 
HETATM   23  C7  UNK     1      -3.955  -2.403   0.218  1.00  0.00     0.010 A 
HETATM   24  C9  UNK     1      -2.875  -1.768  -0.400  1.00  0.00     0.030 A 
ENDBRANCH   2  16
TORSDOF 2
