REMARK  2 active torsions:
REMARK  status: ('A' for Active; 'I' for Inactive)
REMARK    1  A    between atoms: C8_15  and  N1_6 
REMARK    2  A    between atoms: C1_8  and  C3_10 
ROOT
HETATM    1  F1  UNK     1       5.200   2.095  -3.231  1.00  0.00    -0.206 F 
HETATM    2  O1  UNK     1       1.200  -0.576   1.948  1.00  0.00    -0.269 OA
HETATM    3  O2  UNK     1       2.451   0.356   0.198  1.00  0.00    -0.286 OA
HETATM    4  O3  UNK     1      -0.868   2.054  -1.431  1.00  0.00    -0.287 OA
HETATM    5  N2  UNK     1      -3.232  -0.339   3.821  1.00  0.00    -0.191 NA
HETATM    6  C1  UNK     1      -1.280   0.437   0.930  1.00  0.00     0.108 C 
HETATM    7  C2  UNK     1       0.062   0.677   0.273  1.00  0.00     0.065 A 
HETATM    8  C4  UNK     1      -1.135  -0.204   2.303  1.00  0.00     0.086 C 
HETATM    9  C5  UNK     1       1.204   0.176   0.779  1.00  0.00     0.204 A 
HETATM   10  C6  UNK     1       0.123   1.519  -0.952  1.00  0.00     0.197 A 
HETATM   11  C7  UNK     1       1.449   1.681  -1.566  1.00  0.00     0.049 A 
HETATM   12  C8  UNK     1       0.056  -0.673   2.737  1.00  0.00     0.162 C 
HETATM   13  C9  UNK     1       2.548   1.086  -0.956  1.00  0.00     0.095 A 
HETATM   14  C12 UNK     1       1.608   2.420  -2.741  1.00  0.00     0.021 A 
HETATM   15  C13 UNK     1       3.817   1.224  -1.518  1.00  0.00     0.080 A 
HETATM   16  C16 UNK     1      -2.293  -0.278   3.141  1.00  0.00     0.100 C 
HETATM   17  C17 UNK     1       2.879   2.557  -3.302  1.00  0.00     0.043 A 
HETATM   18  C18 UNK     1       3.982   1.960  -2.691  1.00  0.00     0.119 A 
ENDROOT
BRANCH   6  19
HETATM   19  C3  UNK     1      -2.152  -0.411   0.051  1.00  0.00    -0.043 A 
HETATM   20  C10 UNK     1      -1.752  -1.702  -0.274  1.00  0.00     0.027 A 
HETATM   21  C14 UNK     1      -2.563  -2.490  -1.090  1.00  0.00     0.011 A 
HETATM   22 Br1  UNK     1      -2.032  -4.248  -1.537  1.00  0.00    -0.051 Br
HETATM   23  C19 UNK     1      -3.768  -1.982  -1.577  1.00  0.00     0.019 A 
HETATM   24  C15 UNK     1      -4.161  -0.685  -1.246  1.00  0.00     0.002 A 
HETATM   25  C11 UNK     1      -3.351   0.103  -0.430  1.00  0.00     0.008 A 
ENDBRANCH   6  19
BRANCH  12  26
HETATM   26  N1  UNK     1       0.272  -1.275   3.946  1.00  0.00    -0.379 N 
HETATM   27  H10 UNK     1       1.206  -1.593   4.173  1.00  0.00     0.158 HD
HETATM   28  H9  UNK     1      -0.484  -1.406   4.605  1.00  0.00     0.158 HD
ENDBRANCH  12  26
TORSDOF 2
