REMARK  6 active torsions:
REMARK  status: ('A' for Active; 'I' for Inactive)
REMARK    1  A    between atoms: C5_10  and  O2_2 
REMARK    2  A    between atoms: C9_14  and  O2_2 
REMARK    3  A    between atoms: C23_28  and  O4_4 
REMARK    4  A    between atoms: C10_15  and  C9_14 
REMARK    5  A    between atoms: C11_16  and  C12_17 
REMARK    6  A    between atoms: C15_20  and  C23_28 
ROOT
HETATM    1  O1  UNK     1      -2.546  -0.944   1.527  1.00  0.00    -0.306 OA
HETATM    2  O3  UNK     1      -2.776   0.098   4.904  1.00  0.00    -0.284 OA
HETATM    3  C1  UNK     1      -1.467   0.532   2.940  1.00  0.00     0.051 A 
HETATM    4  C2  UNK     1      -1.544  -0.010   1.659  1.00  0.00     0.093 A 
HETATM    5  C3  UNK     1      -3.155  -1.021   2.774  1.00  0.00     0.127 A 
HETATM    6  C4  UNK     1      -2.512  -0.096   3.739  1.00  0.00     0.218 A 
HETATM    7  C5  UNK     1       0.280   1.354   0.989  1.00  0.00     0.071 A 
HETATM    8  C6  UNK     1      -0.677   0.387   0.663  1.00  0.00     0.075 A 
HETATM    9  C7  UNK     1      -0.533   1.485   3.288  1.00  0.00     0.021 A 
HETATM   10  C8  UNK     1       0.351   1.897   2.288  1.00  0.00     0.038 A 
HETATM   11  C11 UNK     1      -4.182  -1.820   3.067  1.00  0.00     0.053 C 
ENDROOT
BRANCH   7  12
HETATM   12  O2  UNK     1       1.158   1.778   0.037  1.00  0.00    -0.347 OA
BRANCH  12  13
HETATM   13  C9  UNK     1       1.040   1.195  -1.259  1.00  0.00     0.214 C 
BRANCH  13  14
HETATM   14  C10 UNK     1       2.105   1.763  -2.151  1.00  0.00    -0.034 A 
HETATM   15  C13 UNK     1       1.844   2.911  -2.891  1.00  0.00     0.010 A 
HETATM   16  C16 UNK     1       2.834   3.439  -3.719  1.00  0.00     0.018 A 
HETATM   17  C15 UNK     1       4.079   2.816  -3.802  1.00  0.00     0.039 A 
HETATM   18  C17 UNK     1       4.334   1.665  -3.056  1.00  0.00     0.018 A 
HETATM   19  C14 UNK     1       3.344   1.137  -2.228  1.00  0.00     0.010 A 
BRANCH  17  20
HETATM   20  C23 UNK     1       5.111   3.367  -4.666  1.00  0.00     0.292 C 
HETATM   21  O5  UNK     1       4.974   4.381  -5.362  1.00  0.00    -0.259 OA
BRANCH  20  22
HETATM   22  O4  UNK     1       6.259   2.624  -4.614  1.00  0.00    -0.323 OA
HETATM   23  C24 UNK     1       7.354   3.067  -5.424  1.00  0.00     0.213 C 
ENDBRANCH  20  22
ENDBRANCH  17  20
ENDBRANCH  13  14
ENDBRANCH  12  13
ENDBRANCH   7  12
BRANCH  11  24
HETATM   24  C12 UNK     1      -4.846  -2.750   2.136  1.00  0.00    -0.034 A 
HETATM   25  C18 UNK     1      -5.936  -2.312   1.403  1.00  0.00     0.011 A 
HETATM   26  C20 UNK     1      -6.565  -3.192   0.522  1.00  0.00     0.001 A 
HETATM   27  C22 UNK     1      -6.095  -4.498   0.387  1.00  0.00     0.000 A 
HETATM   28  C21 UNK     1      -4.995  -4.924   1.133  1.00  0.00     0.001 A 
HETATM   29  C19 UNK     1      -4.367  -4.044   2.014  1.00  0.00     0.011 A 
ENDBRANCH  11  24
TORSDOF 6
