REMARK  4 active torsions:
REMARK  status: ('A' for Active; 'I' for Inactive)
REMARK    1  A    between atoms: C1_4  and  N1_3 
REMARK       I    between atoms: C6_9  and  N1_3 
REMARK    2  A    between atoms: C6_9  and  C7_10 
REMARK    3  A    between atoms: C7_10  and  C8_11 
REMARK    4  A    between atoms: C10_13  and  C9_12 
ROOT
HETATM    1  C7  UNK     1       0.296   0.175   0.442  1.00  0.00     0.043 C 
HETATM    2  C9  UNK     1       1.573   0.576   0.616  1.00  0.00     0.031 C 
ENDROOT
BRANCH   1   3
HETATM    3  C6  UNK     1      -0.453  -0.211   1.693  1.00  0.00     0.252 C 
HETATM    4  O1  UNK     1       0.081  -0.184   2.801  1.00  0.00    -0.268 OA
HETATM    5  N1  UNK     1      -1.768  -0.597   1.476  1.00  0.00    -0.352 N 
HETATM    6  H10 UNK     1      -2.142  -0.643   0.535  1.00  0.00     0.163 HD
BRANCH   5   7
HETATM    7  C1  UNK     1      -2.638  -1.008   2.550  1.00  0.00     0.084 C 
HETATM    8  C2  UNK     1      -2.604  -2.517   2.756  1.00  0.00     0.025 C 
HETATM    9  C4  UNK     1      -3.557  -3.070   1.700  1.00  0.00     0.002 C 
HETATM   10  C5  UNK     1      -4.546  -1.945   1.391  1.00  0.00     0.002 C 
HETATM   11  C3  UNK     1      -4.104  -0.745   2.226  1.00  0.00     0.025 C 
ENDBRANCH   5   7
ENDBRANCH   1   3
BRANCH   1  12
HETATM   12  C8  UNK     1      -0.340   0.136  -0.889  1.00  0.00    -0.021 A 
HETATM   13  C11 UNK     1      -0.253  -1.020  -1.646  1.00  0.00     0.012 A 
HETATM   14  C13 UNK     1      -0.855  -1.057  -2.904  1.00  0.00     0.001 A 
HETATM   15  C17 UNK     1      -1.533   0.063  -3.386  1.00  0.00     0.000 A 
HETATM   16  C14 UNK     1      -1.610   1.219  -2.610  1.00  0.00     0.001 A 
HETATM   17  C12 UNK     1      -1.008   1.256  -1.352  1.00  0.00     0.012 A 
ENDBRANCH   1  12
BRANCH   2  18
HETATM   18  C10 UNK     1       2.483   1.027  -0.447  1.00  0.00    -0.013 A 
HETATM   19  C15 UNK     1       2.580   2.364  -0.808  1.00  0.00     0.044 A 
HETATM   20 Cl1  UNK     1       1.642   3.599  -0.043  1.00  0.00    -0.083 Cl
HETATM   21  C18 UNK     1       3.459   2.741  -1.823  1.00  0.00     0.024 A 
HETATM   22  C20 UNK     1       4.235   1.778  -2.468  1.00  0.00     0.002 A 
HETATM   23  C19 UNK     1       4.131   0.437  -2.097  1.00  0.00     0.001 A 
HETATM   24  C16 UNK     1       3.252   0.060  -1.083  1.00  0.00     0.013 A 
ENDBRANCH   2  18
TORSDOF 4
