REMARK  4 active torsions:
REMARK  status: ('A' for Active; 'I' for Inactive)
REMARK       I    between atoms: C10_17  and  N1_6 
REMARK    1  A    between atoms: C5_12  and  N1_6 
REMARK       I    between atoms: C8_15  and  N2_7 
REMARK    2  A    between atoms: C1_8  and  C3_10 
REMARK    3  A    between atoms: C2_9  and  C8_15 
REMARK    4  A    between atoms: C10_17  and  C9_16 
ROOT
HETATM    1  O3  UNK     1      -1.076   0.412  -2.224  1.00  0.00    -0.267 OA
HETATM    2  N1  UNK     1      -0.658  -0.169   0.025  1.00  0.00    -0.316 N 
HETATM    3  C10 UNK     1      -0.373   0.385  -1.215  1.00  0.00     0.262 C 
HETATM    4  H3  UNK     1       0.038  -0.130   0.765  1.00  0.00     0.169 HD
ENDROOT
BRANCH   2   5
HETATM    5  C5  UNK     1      -1.839  -0.828   0.381  1.00  0.00     0.093 A 
HETATM    6  C2  UNK     1      -2.208  -1.399   1.557  1.00  0.00     0.072 A 
HETATM    7  C1  UNK     1      -3.515  -1.961   1.467  1.00  0.00    -0.027 A 
HETATM    8  C4  UNK     1      -4.069  -1.784   0.218  1.00  0.00    -0.012 A 
HETATM    9  S1  UNK     1      -3.016  -0.944  -0.839  1.00  0.00    -0.076 SA
HETATM   10  C7  UNK     1      -5.395  -2.214  -0.280  1.00  0.00     0.057 C 
BRANCH   6  11
HETATM   11  C8  UNK     1      -1.368  -1.418   2.729  1.00  0.00     0.252 C 
HETATM   12  O2  UNK     1      -0.546  -2.323   2.962  1.00  0.00    -0.268 OA
HETATM   13  N2  UNK     1      -1.483  -0.351   3.617  1.00  0.00    -0.366 N 
HETATM   14  H13 UNK     1      -2.134   0.412   3.462  1.00  0.00     0.159 HD
HETATM   15  H14 UNK     1      -0.913  -0.306   4.455  1.00  0.00     0.159 HD
ENDBRANCH   6  11
BRANCH   7  16
HETATM   16  C3  UNK     1      -4.201  -2.654   2.586  1.00  0.00     0.036 C 
HETATM   17  C6  UNK     1      -5.031  -1.710   3.453  1.00  0.00     0.010 C 
ENDBRANCH   7  16
ENDBRANCH   2   5
BRANCH   3  18
HETATM   18  C9  UNK     1       0.959   1.001  -1.246  1.00  0.00     0.108 A 
HETATM   19  C12 UNK     1       1.584   0.999  -2.429  1.00  0.00     0.037 A 
HETATM   20  C11 UNK     1       2.909   1.586  -2.560  1.00  0.00    -0.001 A 
HETATM   21  C15 UNK     1       3.598   1.607  -3.775  1.00  0.00     0.014 A 
HETATM   22  C13 UNK     1       3.511   2.145  -1.437  1.00  0.00     0.089 A 
HETATM   23  C17 UNK     1       4.869   2.183  -3.848  1.00  0.00     0.001 A 
HETATM   24  C18 UNK     1       5.458   2.739  -2.710  1.00  0.00     0.003 A 
HETATM   25  C16 UNK     1       4.778   2.722  -1.494  1.00  0.00     0.038 A 
HETATM   26  O1  UNK     1       2.848   2.143  -0.194  1.00  0.00    -0.274 OA
HETATM   27  C14 UNK     1       1.580   1.590  -0.038  1.00  0.00     0.304 A 
HETATM   28  O4  UNK     1       1.012   1.592   1.048  1.00  0.00    -0.259 OA
ENDBRANCH   3  18
TORSDOF 4
