REMARK  5 active torsions:
REMARK  status: ('A' for Active; 'I' for Inactive)
REMARK    1  A    between atoms: C12_18  and  N1_4 
REMARK    2  A    between atoms: C4_10  and  N1_4 
REMARK    3  A    between atoms: C10_16  and  N2_5 
REMARK    4  A    between atoms: C12_18  and  N2_5 
REMARK    5  A    between atoms: C10_16  and  C13_19 
ROOT
HETATM    1  N1  UNK     1       0.532   0.010  -1.240  1.00  0.00    -0.333 N 
HETATM    2  H5  UNK     1       1.514   0.026  -0.980  1.00  0.00     0.168 HD
ENDROOT
BRANCH   1   3
HETATM    3  C12 UNK     1       0.250   0.644  -2.451  1.00  0.00     0.172 C 
HETATM    4  S1  UNK     1      -1.224   1.235  -2.998  1.00  0.00    -0.041 SA
BRANCH   3   5
HETATM    5  N2  UNK     1       1.350   0.839  -3.277  1.00  0.00    -0.361 N 
HETATM    6  H11 UNK     1       1.176   1.319  -4.155  1.00  0.00     0.162 HD
BRANCH   5   7
HETATM    7  C10 UNK     1       2.723   0.457  -3.008  1.00  0.00     0.181 C 
BRANCH   7   8
HETATM    8  C13 UNK     1       3.477   1.525  -2.266  1.00  0.00     0.051 A 
HETATM    9  N3  UNK     1       3.433   1.459  -0.921  1.00  0.00    -0.264 NA
HETATM   10  C16 UNK     1       4.113   2.423  -0.259  1.00  0.00     0.117 A 
HETATM   11  C17 UNK     1       4.825   3.436  -0.880  1.00  0.00     0.019 A 
HETATM   12  C15 UNK     1       4.841   3.462  -2.270  1.00  0.00     0.003 A 
HETATM   13  C14 UNK     1       4.154   2.489  -2.987  1.00  0.00     0.029 A 
ENDBRANCH   7   8
ENDBRANCH   5   7
ENDBRANCH   3   5
ENDBRANCH   1   3
BRANCH   1  14
HETATM   14  C4  UNK     1      -0.288  -0.353  -0.172  1.00  0.00     0.036 A 
HETATM   15  C5  UNK     1      -1.592  -0.777  -0.406  1.00  0.00     0.067 A 
HETATM   16  C2  UNK     1      -2.396  -1.136   0.678  1.00  0.00     0.092 A 
HETATM   17  C1  UNK     1      -1.938  -1.085   1.995  1.00  0.00     0.004 A 
HETATM   18  O1  UNK     1      -3.707  -1.558   0.378  1.00  0.00    -0.275 OA
HETATM   19  C3  UNK     1      -2.853  -1.482   3.074  1.00  0.00    -0.043 A 
HETATM   20  C6  UNK     1      -0.621  -0.655   2.209  1.00  0.00     0.017 A 
HETATM   21  C8  UNK     1      -4.094  -1.879   2.759  1.00  0.00     0.090 A 
HETATM   22  C9  UNK     1      -2.390  -1.438   4.501  1.00  0.00     0.049 C 
HETATM   23  C11 UNK     1      -4.592  -1.938   1.375  1.00  0.00     0.288 A 
HETATM   24  O2  UNK     1      -5.734  -2.306   1.125  1.00  0.00    -0.260 OA
HETATM   25  C7  UNK     1       0.196  -0.292   1.133  1.00  0.00     0.030 A 
ENDBRANCH   1  14
TORSDOF 5
