REMARK  6 active torsions:
REMARK  status: ('A' for Active; 'I' for Inactive)
REMARK       I    between atoms: C14_21  and  N1_6 
REMARK    1  A    between atoms: C2_9  and  N1_6 
REMARK    2  A    between atoms: C13_20  and  N2_7 
REMARK    3  A    between atoms: C1_8  and  C8_15 
REMARK    4  A    between atoms: C7_14  and  C9_16 
REMARK    5  A    between atoms: C10_17  and  C8_15 
REMARK    6  A    between atoms: C14_21  and  C15_22 
ROOT
HETATM    1  C1  UNK     1       0.832   0.731   0.865  1.00  0.00     0.014 A 
HETATM    2  C2  UNK     1       2.792   1.566  -0.937  1.00  0.00     0.035 A 
HETATM    3  C3  UNK     1       0.473   1.120  -0.426  1.00  0.00     0.018 A 
HETATM    4  C4  UNK     1       2.171   0.760   1.255  1.00  0.00     0.018 A 
HETATM    5  C5  UNK     1       1.453   1.537  -1.327  1.00  0.00     0.030 A 
HETATM    6  C6  UNK     1       3.151   1.177   0.354  1.00  0.00     0.030 A 
ENDROOT
BRANCH   1   7
HETATM    7  C8  UNK     1      -0.189   0.295   1.804  1.00  0.00     0.182 C 
HETATM    8  O2  UNK     1      -0.037   0.446   3.025  1.00  0.00    -0.288 OA
BRANCH   7   9
HETATM    9  C10 UNK     1      -1.424  -0.372   1.266  1.00  0.00     0.056 C 
HETATM   10  C9  UNK     1      -2.379  -0.814   2.098  1.00  0.00     0.015 C 
BRANCH  10  11
HETATM   11  C7  UNK     1      -3.614  -1.492   1.666  1.00  0.00    -0.034 A 
HETATM   12  C11 UNK     1      -4.319  -2.264   2.575  1.00  0.00     0.047 A 
HETATM   13  C13 UNK     1      -5.488  -2.904   2.166  1.00  0.00     0.103 A 
HETATM   14  C17 UNK     1      -5.938  -2.764   0.853  1.00  0.00     0.036 A 
HETATM   15  C16 UNK     1      -5.217  -1.984  -0.051  1.00  0.00     0.003 A 
HETATM   16  C12 UNK     1      -4.047  -1.343   0.358  1.00  0.00     0.011 A 
BRANCH  13  17
HETATM   17  N2  UNK     1      -6.222  -3.700   3.086  1.00  0.00    -0.116 N 
HETATM   18  O4  UNK     1      -7.271  -4.268   2.697  1.00  0.00    -0.532 OA
HETATM   19  O5  UNK     1      -5.801  -3.813   4.262  1.00  0.00    -0.532 OA
ENDBRANCH  13  17
ENDBRANCH  10  11
ENDBRANCH   7   9
ENDBRANCH   1   7
BRANCH   2  20
HETATM   20  N1  UNK     1       3.773   1.983  -1.837  1.00  0.00    -0.321 N 
HETATM   21  C14 UNK     1       3.614   2.409  -3.171  1.00  0.00     0.279 C 
HETATM   22  O3  UNK     1       2.529   2.472  -3.746  1.00  0.00    -0.265 OA
HETATM   23  H5  UNK     1       4.725   1.969  -1.477  1.00  0.00     0.169 HD
BRANCH  21  24
HETATM   24  C15 UNK     1       4.865   2.746  -3.873  1.00  0.00     0.142 A 
HETATM   25  C18 UNK     1       5.059   3.177  -5.130  1.00  0.00     0.045 A 
HETATM   26  C19 UNK     1       6.462   3.332  -5.239  1.00  0.00     0.027 A 
HETATM   27  C20 UNK     1       6.982   2.973  -4.017  1.00  0.00     0.143 A 
HETATM   28  O1  UNK     1       5.989   2.608  -3.164  1.00  0.00    -0.317 OA
ENDBRANCH  21  24
ENDBRANCH   2  20
TORSDOF 6
