REMARK  6 active torsions:
REMARK  status: ('A' for Active; 'I' for Inactive)
REMARK    1  A    between atoms: C12_19  and  O3_3 
REMARK    2  A    between atoms: C20_27  and  O3_3 
REMARK    3  A    between atoms: C28_35  and  O6_6 
REMARK    4  A    between atoms: C1_8  and  C10_17 
REMARK    5  A    between atoms: C12_19  and  C6_13 
REMARK    6  A    between atoms: C20_27  and  C22_29 
ROOT
HETATM    1  O1  UNK     1      -3.041  -3.498   0.178  1.00  0.00    -0.293 OA
HETATM    2  N1  UNK     1      -2.722   0.353   2.916  1.00  0.00    -0.362 N 
HETATM    3  C1  UNK     1      -1.284  -1.558   1.391  1.00  0.00     0.104 C 
HETATM    4  C2  UNK     1      -2.807  -1.518   1.466  1.00  0.00     0.024 C 
HETATM    5  C3  UNK     1      -3.444  -0.571   2.187  1.00  0.00     0.020 C 
HETATM    6  C4  UNK     1      -4.944  -0.453   2.254  1.00  0.00     0.058 C 
HETATM    7  C5  UNK     1      -5.628  -1.141   1.079  1.00  0.00     0.014 C 
HETATM    8  C6  UNK     1      -0.616  -0.569   2.351  1.00  0.00     0.052 C 
HETATM    9  C7  UNK     1      -5.110  -2.558   0.906  1.00  0.00     0.084 C 
HETATM   10  C8  UNK     1      -3.602  -2.583   0.779  1.00  0.00     0.158 C 
HETATM   11  C9  UNK     1      -1.341   0.338   3.047  1.00  0.00     0.018 C 
HETATM   12  C13 UNK     1      -0.799   1.358   4.012  1.00  0.00     0.069 C 
HETATM   13  H8  UNK     1      -3.239   1.040   3.453  1.00  0.00     0.165 HD
ENDROOT
BRANCH   3  14
HETATM   14  C10 UNK     1      -0.827  -1.304  -0.020  1.00  0.00     0.029 A 
HETATM   15  C11 UNK     1      -1.148   0.004  -0.645  1.00  0.00     0.194 A 
HETATM   16  O4  UNK     1      -1.769   0.875  -0.050  1.00  0.00    -0.287 OA
HETATM   17  C15 UNK     1      -0.678   0.200  -2.029  1.00  0.00     0.049 A 
HETATM   18  C16 UNK     1       0.025  -0.827  -2.659  1.00  0.00     0.089 A 
HETATM   19  C17 UNK     1      -0.930   1.397  -2.704  1.00  0.00     0.025 A 
HETATM   20  O2  UNK     1       0.300  -2.022  -2.043  1.00  0.00    -0.321 OA
HETATM   21  C18 UNK     1       0.479  -0.663  -3.968  1.00  0.00     0.039 A 
HETATM   22  C14 UNK     1      -0.144  -2.191  -0.755  1.00  0.00     0.154 A 
HETATM   23  C21 UNK     1       0.228   0.530  -4.644  1.00  0.00     0.009 A 
HETATM   24  C19 UNK     1      -0.474   1.558  -4.014  1.00  0.00    -0.061 A 
HETATM   25  C23 UNK     1      -0.739   2.833  -4.742  1.00  0.00     0.048 C 
ENDBRANCH   3  14
BRANCH   8  26
HETATM   26  C12 UNK     1       0.848  -0.675   2.472  1.00  0.00     0.292 C 
HETATM   27  O5  UNK     1       1.401  -1.392   3.284  1.00  0.00    -0.259 OA
BRANCH  26  28
HETATM   28  O3  UNK     1       1.413   0.141   1.550  1.00  0.00    -0.313 OA
BRANCH  28  29
HETATM   29  C20 UNK     1       2.844   0.148   1.543  1.00  0.00     0.217 C 
BRANCH  29  30
HETATM   30  C22 UNK     1       3.324   1.091   0.479  1.00  0.00    -0.034 A 
HETATM   31  C24 UNK     1       3.544   2.427   0.790  1.00  0.00     0.012 A 
HETATM   32  C26 UNK     1       3.989   3.303  -0.200  1.00  0.00     0.037 A 
HETATM   33  C28 UNK     1       4.212   2.836  -1.495  1.00  0.00     0.068 A 
HETATM   34  C27 UNK     1       3.989   1.493  -1.800  1.00  0.00     0.037 A 
HETATM   35  C25 UNK     1       3.544   0.618  -0.810  1.00  0.00     0.012 A 
BRANCH  33  36
HETATM   36  O6  UNK     1       4.647   3.691  -2.461  1.00  0.00    -0.356 OA
HETATM   37  C29 UNK     1       4.855   3.148  -3.763  1.00  0.00     0.210 C 
ENDBRANCH  33  36
ENDBRANCH  29  30
ENDBRANCH  28  29
ENDBRANCH  26  28
ENDBRANCH   8  26
TORSDOF 6
