REMARK  5 active torsions:
REMARK  status: ('A' for Active; 'I' for Inactive)
REMARK    1  A    between atoms: C1_4  and  N1_3 
REMARK       I    between atoms: C5_8  and  N1_3 
REMARK    2  A    between atoms: C1_4  and  C2_5 
REMARK    3  A    between atoms: C4_7  and  C5_8 
REMARK    4  A    between atoms: C4_7  and  C8_11 
REMARK    5  A    between atoms: C10_13  and  C9_12 
ROOT
HETATM    1  C4  UNK     1       0.800  -0.221  -0.387  1.00  0.00     0.043 C 
HETATM    2  C9  UNK     1       2.034   0.055   0.083  1.00  0.00     0.031 C 
ENDROOT
BRANCH   1   3
HETATM    3  C5  UNK     1       0.003  -1.233   0.397  1.00  0.00     0.253 C 
HETATM    4  O1  UNK     1       0.466  -1.789   1.392  1.00  0.00    -0.268 OA
HETATM    5  N1  UNK     1      -1.265  -1.473  -0.107  1.00  0.00    -0.349 N 
HETATM    6  H2  UNK     1      -1.610  -0.954  -0.908  1.00  0.00     0.163 HD
BRANCH   5   7
HETATM    7  C1  UNK     1      -2.172  -2.416   0.505  1.00  0.00     0.114 C 
HETATM    8  C3  UNK     1      -3.057  -3.060  -0.560  1.00  0.00     0.037 C 
BRANCH   7   9
HETATM    9  C2  UNK     1      -2.974  -1.772   1.616  1.00  0.00    -0.036 A 
HETATM   10  C6  UNK     1      -3.348  -0.445   1.497  1.00  0.00     0.009 A 
HETATM   11  C11 UNK     1      -4.087   0.149   2.520  1.00  0.00     0.001 A 
HETATM   12  C15 UNK     1      -4.440  -0.594   3.647  1.00  0.00     0.000 A 
HETATM   13  C12 UNK     1      -4.055  -1.931   3.749  1.00  0.00     0.001 A 
HETATM   14  C7  UNK     1      -3.316  -2.524   2.726  1.00  0.00     0.009 A 
ENDBRANCH   7   9
ENDBRANCH   5   7
ENDBRANCH   1   3
BRANCH   1  15
HETATM   15  C8  UNK     1       0.252   0.442  -1.586  1.00  0.00    -0.021 A 
HETATM   16  C13 UNK     1       0.461  -0.128  -2.830  1.00  0.00     0.012 A 
HETATM   17  C18 UNK     1      -0.058   0.499  -3.963  1.00  0.00     0.001 A 
HETATM   18  C20 UNK     1      -0.778   1.686  -3.835  1.00  0.00     0.000 A 
HETATM   19  C19 UNK     1      -0.980   2.247  -2.573  1.00  0.00     0.001 A 
HETATM   20  C14 UNK     1      -0.461   1.620  -1.440  1.00  0.00     0.012 A 
ENDBRANCH   1  15
BRANCH   2  21
HETATM   21  C10 UNK     1       2.976   1.026  -0.493  1.00  0.00    -0.013 A 
HETATM   22  C16 UNK     1       3.005   2.351  -0.080  1.00  0.00     0.044 A 
HETATM   23 Cl1  UNK     1       1.942   2.964   1.138  1.00  0.00    -0.083 Cl
HETATM   24  C21 UNK     1       3.918   3.233  -0.659  1.00  0.00     0.024 A 
HETATM   25  C23 UNK     1       4.795   2.781  -1.646  1.00  0.00     0.002 A 
HETATM   26  C22 UNK     1       4.758   1.448  -2.054  1.00  0.00     0.001 A 
HETATM   27  C17 UNK     1       3.845   0.566  -1.475  1.00  0.00     0.013 A 
ENDBRANCH   2  21
TORSDOF 5
