REMARK  3 active torsions:
REMARK  status: ('A' for Active; 'I' for Inactive)
REMARK    1  A    between atoms: C9_17  and  N1_5 
REMARK       I    between atoms: C12_20  and  N2_6 
REMARK    2  A    between atoms: C3_11  and  N2_6 
REMARK    3  A    between atoms: C12_20  and  C8_16 
ROOT
HETATM    1  N1  UNK     1      -3.479  -1.745   1.450  1.00  0.00    -0.150 N 
HETATM    2  N3  UNK     1      -2.386  -1.040   1.755  1.00  0.00    -0.147 NA
HETATM    3  N4  UNK     1      -3.743  -2.023   0.171  1.00  0.00    -0.147 NA
HETATM    4  C1  UNK     1      -1.847  -0.814   0.546  1.00  0.00     0.111 A 
HETATM    5  C2  UNK     1      -2.712  -1.441  -0.464  1.00  0.00     0.109 A 
HETATM    6  C3  UNK     1      -0.423  -0.085  -1.175  1.00  0.00     0.037 A 
HETATM    7  C4  UNK     1      -0.674  -0.118   0.200  1.00  0.00     0.065 A 
HETATM    8  C5  UNK     1      -2.422  -1.384  -1.840  1.00  0.00     0.038 A 
HETATM    9  C7  UNK     1      -1.244  -0.682  -2.156  1.00  0.00     0.032 A 
ENDROOT
BRANCH   6  10
HETATM   10  N2  UNK     1       0.739   0.595  -1.615  1.00  0.00    -0.323 N 
HETATM   11  C12 UNK     1       1.682   1.251  -0.836  1.00  0.00     0.262 C 
HETATM   12  O2  UNK     1       1.703   1.373   0.388  1.00  0.00    -0.267 OA
HETATM   13  H4  UNK     1       0.881   0.567  -2.622  1.00  0.00     0.169 HD
BRANCH  11  14
HETATM   14  C8  UNK     1       2.755   1.841  -1.645  1.00  0.00     0.108 A 
HETATM   15  C10 UNK     1       3.956   1.930  -1.061  1.00  0.00     0.037 A 
HETATM   16  C6  UNK     1       5.082   2.501  -1.783  1.00  0.00    -0.001 A 
HETATM   17  C11 UNK     1       4.888   2.952  -3.085  1.00  0.00     0.089 A 
HETATM   18  C14 UNK     1       6.353   2.613  -1.213  1.00  0.00     0.014 A 
HETATM   19  O1  UNK     1       3.622   2.856  -3.694  1.00  0.00    -0.274 OA
HETATM   20  C15 UNK     1       5.924   3.510  -3.830  1.00  0.00     0.038 A 
HETATM   21  C13 UNK     1       2.525   2.314  -3.029  1.00  0.00     0.304 A 
HETATM   22  O3  UNK     1       1.426   2.235  -3.567  1.00  0.00    -0.259 OA
HETATM   23  C19 UNK     1       7.188   3.618  -3.255  1.00  0.00     0.003 A 
HETATM   24  C18 UNK     1       7.402   3.170  -1.949  1.00  0.00     0.001 A 
ENDBRANCH  11  14
ENDBRANCH   6  10
BRANCH   1  25
HETATM   25  C9  UNK     1      -4.335  -2.185   2.457  1.00  0.00     0.079 A 
HETATM   26  C16 UNK     1      -4.046  -1.887   3.783  1.00  0.00     0.035 A 
HETATM   27  C20 UNK     1      -4.903  -2.329   4.792  1.00  0.00     0.021 A 
HETATM   28  C22 UNK     1      -6.042  -3.065   4.466  1.00  0.00     0.011 A 
HETATM   29 Br1  UNK     1      -7.202  -3.664   5.833  1.00  0.00    -0.051 Br
HETATM   30  C21 UNK     1      -6.324  -3.360   3.133  1.00  0.00     0.021 A 
HETATM   31  C17 UNK     1      -5.468  -2.918   2.124  1.00  0.00     0.035 A 
ENDBRANCH   1  25
TORSDOF 3
