REMARK  3 active torsions:
REMARK  status: ('A' for Active; 'I' for Inactive)
REMARK    1  A    between atoms: C12_16  and  O3_3 
REMARK    2  A    between atoms: C13_17  and  O3_3 
REMARK    3  A    between atoms: C13_17  and  C14_18 
ROOT
HETATM    1  O1  UNK     1       2.447   1.655   0.375  1.00  0.00    -0.274 OA
HETATM    2  O2  UNK     1       4.573   2.521   0.326  1.00  0.00    -0.259 OA
HETATM    3  C1  UNK     1       2.729   1.558  -3.886  1.00  0.00     0.040 C 
HETATM    4  C2  UNK     1       4.240   1.803  -3.983  1.00  0.00     0.009 C 
HETATM    5  C3  UNK     1       2.504   1.541  -2.414  1.00  0.00    -0.033 A 
HETATM    6  C4  UNK     1       4.670   2.414  -2.645  1.00  0.00     0.046 C 
HETATM    7  C5  UNK     1       3.560   2.004  -1.742  1.00  0.00     0.025 A 
HETATM    8  C6  UNK     1       1.311   1.101  -1.721  1.00  0.00     0.005 A 
HETATM    9  C7  UNK     1       1.315   1.169  -0.325  1.00  0.00     0.093 A 
HETATM   10  C8  UNK     1       3.599   2.092  -0.280  1.00  0.00     0.295 A 
HETATM   11  C9  UNK     1       0.168   0.620  -2.363  1.00  0.00     0.017 A 
HETATM   12  C10 UNK     1       0.217   0.769   0.435  1.00  0.00     0.075 A 
HETATM   13  C11 UNK     1      -0.941   0.215  -1.612  1.00  0.00     0.038 A 
HETATM   14  C12 UNK     1      -0.916   0.290  -0.218  1.00  0.00     0.082 A 
ENDROOT
BRANCH  14  15
HETATM   15  O3  UNK     1      -2.000  -0.107   0.503  1.00  0.00    -0.275 OA
BRANCH  15  16
HETATM   16  C13 UNK     1      -1.991  -1.456   0.863  1.00  0.00     0.298 C 
HETATM   17  O4  UNK     1      -1.110  -2.259   0.590  1.00  0.00    -0.259 OA
BRANCH  16  18
HETATM   18  C14 UNK     1      -3.202  -1.813   1.645  1.00  0.00     0.039 A 
HETATM   19  C15 UNK     1      -3.115  -2.815   2.588  1.00  0.00     0.017 A 
HETATM   20  C17 UNK     1      -4.253  -3.150   3.322  1.00  0.00     0.001 A 
HETATM   21  C19 UNK     1      -5.452  -2.475   3.096  1.00  0.00     0.000 A 
HETATM   22  C18 UNK     1      -5.514  -1.466   2.136  1.00  0.00     0.001 A 
HETATM   23  C16 UNK     1      -4.376  -1.131   1.402  1.00  0.00     0.017 A 
ENDBRANCH  16  18
ENDBRANCH  15  16
ENDBRANCH  14  15
TORSDOF 3
