REMARK  7 active torsions:
REMARK  status: ('A' for Active; 'I' for Inactive)
REMARK    1  A    between atoms: C17_24  and  O3_3 
REMARK    2  A    between atoms: C24_31  and  O3_3 
REMARK    3  A    between atoms: C5_12  and  N1_5 
REMARK    4  A    between atoms: C6_13  and  N2_6 
REMARK    5  A    between atoms: C14_21  and  N3_7 
REMARK       I    between atoms: C8_15  and  N3_7 
REMARK    6  A    between atoms: C5_12  and  C7_14 
REMARK    7  A    between atoms: C6_13  and  C8_15 
ROOT
HETATM    1  N1  UNK     1       0.508   1.608  -0.727  1.00  0.00     0.096 N 
HETATM    2  N2  UNK     1      -1.235   0.310   1.180  1.00  0.00     0.100 N 
HETATM    3  C1  UNK     1       0.194   2.230   0.565  1.00  0.00     0.303 C 
HETATM    4  C2  UNK     1      -0.600   0.752  -1.167  1.00  0.00     0.303 C 
HETATM    5  C3  UNK     1      -0.126   1.166   1.620  1.00  0.00     0.303 C 
HETATM    6  C4  UNK     1      -0.919  -0.313  -0.111  1.00  0.00     0.303 C 
ENDROOT
BRANCH   1   7
HETATM    7  C5  UNK     1       0.809   2.624  -1.733  1.00  0.00     0.312 C 
BRANCH   7   8
HETATM    8  C7  UNK     1       1.637   2.084  -2.848  1.00  0.00    -0.011 A 
HETATM    9  C10 UNK     1       1.067   1.549  -3.937  1.00  0.00     0.092 A 
HETATM   10  C13 UNK     1       1.842   1.003  -5.063  1.00  0.00     0.288 A 
HETATM   11  O1  UNK     1       3.223   1.063  -4.956  1.00  0.00    -0.275 OA
HETATM   12  O4  UNK     1       1.286   0.521  -6.044  1.00  0.00    -0.260 OA
HETATM   13  C11 UNK     1       3.851   1.618  -3.823  1.00  0.00     0.090 A 
HETATM   14  C9  UNK     1       3.103   2.132  -2.763  1.00  0.00     0.009 A 
HETATM   15  C15 UNK     1       5.247   1.625  -3.823  1.00  0.00     0.041 A 
HETATM   16  C12 UNK     1       3.802   2.667  -1.673  1.00  0.00     0.051 A 
HETATM   17  C17 UNK     1       5.202   2.680  -1.657  1.00  0.00     0.069 A 
HETATM   18  C18 UNK     1       5.923   2.160  -2.731  1.00  0.00     0.039 A 
BRANCH  17  19
HETATM   19  O3  UNK     1       5.862   3.203  -0.588  1.00  0.00    -0.351 OA
BRANCH  19  20
HETATM   20  C24 UNK     1       7.142   2.651  -0.282  1.00  0.00     0.171 C 
HETATM   21  C26 UNK     1       7.387   2.772   1.207  1.00  0.00     0.034 C 
ENDBRANCH  19  20
ENDBRANCH  17  19
ENDBRANCH   7   8
ENDBRANCH   1   7
BRANCH   2  22
HETATM   22  C6  UNK     1      -1.538  -0.705   2.186  1.00  0.00     0.375 C 
BRANCH  22  23
HETATM   23  C8  UNK     1      -2.972  -1.185   2.007  1.00  0.00     0.252 C 
HETATM   24  O2  UNK     1      -3.689  -0.671   1.144  1.00  0.00    -0.271 OA
HETATM   25  N3  UNK     1      -3.393  -2.194   2.904  1.00  0.00    -0.321 N 
HETATM   26  C16 UNK     1      -2.491  -2.771   3.913  1.00  0.00     0.159 C 
BRANCH  25  27
HETATM   27  C14 UNK     1      -4.773  -2.638   2.942  1.00  0.00     0.037 A 
HETATM   28  C19 UNK     1      -5.074  -3.951   3.304  1.00  0.00     0.036 A 
HETATM   29  C21 UNK     1      -6.402  -4.376   3.339  1.00  0.00    -0.060 A 
HETATM   30  C23 UNK     1      -7.428  -3.489   3.014  1.00  0.00     0.007 A 
HETATM   31  C25 UNK     1      -6.725  -5.780   3.726  1.00  0.00     0.048 C 
HETATM   32  C22 UNK     1      -7.126  -2.176   2.652  1.00  0.00     0.003 A 
HETATM   33  C20 UNK     1      -5.798  -1.751   2.616  1.00  0.00     0.030 A 
ENDBRANCH  25  27
ENDBRANCH  22  23
ENDBRANCH   2  22
TORSDOF 7
