REMARK  6 active torsions:
REMARK  status: ('A' for Active; 'I' for Inactive)
REMARK    1  A    between atoms: C20_27  and  O3_3 
REMARK    2  A    between atoms: C7_14  and  O3_3 
REMARK    3  A    between atoms: C14_21  and  O5_5 
REMARK    4  A    between atoms: C21_28  and  O5_5 
REMARK    5  A    between atoms: C9_16  and  N1_6 
REMARK    6  A    between atoms: C1_8  and  C3_10 
ROOT
HETATM    1  O1  UNK     1      -0.215   1.952  -2.868  1.00  0.00    -0.269 OA
HETATM    2  O2  UNK     1       1.957   2.468  -2.153  1.00  0.00    -0.286 OA
HETATM    3  O4  UNK     1       2.075  -0.812   0.250  1.00  0.00    -0.287 OA
HETATM    4  N2  UNK     1      -3.404  -1.649  -2.608  1.00  0.00    -0.191 NA
HETATM    5  C1  UNK     1      -0.397  -0.354  -1.177  1.00  0.00     0.111 C 
HETATM    6  C2  UNK     1       0.824   0.536  -1.259  1.00  0.00     0.066 A 
HETATM    7  C4  UNK     1      -1.421  -0.019  -2.253  1.00  0.00     0.086 C 
HETATM    8  C5  UNK     1       0.866   1.616  -2.061  1.00  0.00     0.204 A 
HETATM    9  C6  UNK     1       2.025   0.188  -0.453  1.00  0.00     0.197 A 
HETATM   10  C8  UNK     1       3.163   1.113  -0.546  1.00  0.00     0.049 A 
HETATM   11  C9  UNK     1      -1.295   1.085  -3.022  1.00  0.00     0.162 C 
HETATM   12  C11 UNK     1       3.067   2.211  -1.394  1.00  0.00     0.092 A 
HETATM   13  C15 UNK     1       4.324   0.897   0.201  1.00  0.00     0.018 A 
HETATM   14  C16 UNK     1       4.133   3.105  -1.501  1.00  0.00     0.038 A 
HETATM   15  C17 UNK     1      -2.516  -0.920  -2.449  1.00  0.00     0.100 C 
HETATM   16  C18 UNK     1       5.389   1.792   0.093  1.00  0.00     0.001 A 
HETATM   17  C19 UNK     1       5.294   2.895  -0.757  1.00  0.00     0.003 A 
ENDROOT
BRANCH   5  18
HETATM   18  C3  UNK     1      -1.025  -0.261   0.184  1.00  0.00    -0.011 A 
HETATM   19  C10 UNK     1      -1.519   0.966   0.615  1.00  0.00     0.014 A 
HETATM   20  C13 UNK     1      -2.105   1.070   1.876  1.00  0.00     0.037 A 
HETATM   21  C14 UNK     1      -2.194  -0.053   2.699  1.00  0.00     0.071 A 
HETATM   22  C12 UNK     1      -1.697  -1.280   2.261  1.00  0.00     0.074 A 
HETATM   23  C7  UNK     1      -1.110  -1.384   0.999  1.00  0.00     0.078 A 
BRANCH  21  24
HETATM   24  O5  UNK     1      -2.766   0.049   3.930  1.00  0.00    -0.351 OA
BRANCH  24  25
HETATM   25  C21 UNK     1      -3.420  -1.112   4.440  1.00  0.00     0.171 C 
HETATM   26  C23 UNK     1      -4.544  -0.682   5.358  1.00  0.00     0.034 C 
ENDBRANCH  24  25
ENDBRANCH  21  24
BRANCH  23  27
HETATM   27  O3  UNK     1      -0.629  -2.590   0.587  1.00  0.00    -0.351 OA
BRANCH  27  28
HETATM   28  C20 UNK     1      -1.561  -3.667   0.505  1.00  0.00     0.171 C 
HETATM   29  C22 UNK     1      -1.129  -4.610  -0.597  1.00  0.00     0.034 C 
ENDBRANCH  27  28
ENDBRANCH  23  27
ENDBRANCH   5  18
BRANCH  11  30
HETATM   30  N1  UNK     1      -2.173   1.468  -3.998  1.00  0.00    -0.379 N 
HETATM   31  H7  UNK     1      -2.999   0.920  -4.200  1.00  0.00     0.158 HD
HETATM   32  H8  UNK     1      -1.986   2.317  -4.517  1.00  0.00     0.158 HD
ENDBRANCH  11  30
TORSDOF 6
