REMARK  4 active torsions:
REMARK  status: ('A' for Active; 'I' for Inactive)
REMARK    1  A    between atoms: C13_17  and  O1_2 
REMARK    2  A    between atoms: C17_21  and  O1_2 
REMARK    3  A    between atoms: C5_9  and  C6_10 
REMARK    4  A    between atoms: C16_20  and  C17_21 
ROOT
HETATM    1  C5  UNK     1      -1.268  -1.127  -1.174  1.00  0.00    -0.035 A 
HETATM    2  C9  UNK     1      -1.511   0.065  -1.835  1.00  0.00     0.014 A 
HETATM    3  C10 UNK     1       0.021  -1.578  -0.947  1.00  0.00     0.014 A 
HETATM    4  C13 UNK     1       0.872   0.389  -2.062  1.00  0.00     0.079 A 
HETATM    5  C14 UNK     1      -0.433   0.829  -2.283  1.00  0.00     0.038 A 
HETATM    6  C15 UNK     1       1.099  -0.814  -1.394  1.00  0.00     0.038 A 
ENDROOT
BRANCH   1   7
HETATM    7  C6  UNK     1      -2.408  -1.934  -0.701  1.00  0.00     0.034 C 
HETATM    8  C3  UNK     1      -2.980  -1.849   0.502  1.00  0.00     0.057 A 
HETATM    9  S1  UNK     1      -4.320  -2.810   1.036  1.00  0.00    -0.086 SA
HETATM   10  C4  UNK     1      -2.518  -0.894   1.544  1.00  0.00     0.200 A 
HETATM   11  C2  UNK     1      -4.326  -2.010   2.619  1.00  0.00     0.020 A 
HETATM   12  C1  UNK     1      -3.339  -1.035   2.753  1.00  0.00     0.032 A 
HETATM   13  C8  UNK     1      -5.191  -2.273   3.671  1.00  0.00     0.020 A 
HETATM   14  C7  UNK     1      -3.184  -0.302   3.921  1.00  0.00     0.017 A 
HETATM   15  C11 UNK     1      -4.054  -0.565   4.980  1.00  0.00     0.001 A 
HETATM   16  C12 UNK     1      -5.051  -1.544   4.856  1.00  0.00     0.001 A 
HETATM   17  O2  UNK     1      -1.599  -0.103   1.432  1.00  0.00    -0.286 OA
ENDBRANCH   1   7
BRANCH   4  18
HETATM   18  O1  UNK     1       1.924   1.135  -2.498  1.00  0.00    -0.275 OA
BRANCH  18  19
HETATM   19  C17 UNK     1       2.390   2.070  -1.571  1.00  0.00     0.298 C 
HETATM   20  O3  UNK     1       1.940   2.244  -0.449  1.00  0.00    -0.259 OA
BRANCH  19  21
HETATM   21  C16 UNK     1       3.536   2.843  -2.116  1.00  0.00     0.039 A 
HETATM   22  C18 UNK     1       4.498   3.311  -1.246  1.00  0.00     0.017 A 
HETATM   23  C20 UNK     1       5.574   4.037  -1.759  1.00  0.00     0.001 A 
HETATM   24  C22 UNK     1       5.662   4.278  -3.130  1.00  0.00     0.000 A 
HETATM   25  C21 UNK     1       4.675   3.793  -3.988  1.00  0.00     0.001 A 
HETATM   26  C19 UNK     1       3.600   3.068  -3.476  1.00  0.00     0.017 A 
ENDBRANCH  19  21
ENDBRANCH  18  19
ENDBRANCH   4  18
TORSDOF 4
