REMARK  3 active torsions:
REMARK  status: ('A' for Active; 'I' for Inactive)
REMARK    1  A    between atoms: C4_9  and  O1_2 
REMARK    2  A    between atoms: C8_13  and  O1_2 
REMARK    3  A    between atoms: C8_13  and  C9_14 
ROOT
HETATM    1 Cl1  UNK     1      -4.774  -2.273   4.207  1.00  0.00    -0.084 Cl
HETATM    2  O3  UNK     1      -2.247  -0.962  -0.958  1.00  0.00    -0.274 OA
HETATM    3  O4  UNK     1      -0.481  -0.137  -2.150  1.00  0.00    -0.259 OA
HETATM    4  C9  UNK     1      -0.267  -0.128   0.210  1.00  0.00     0.115 A 
HETATM    5  C10 UNK     1      -0.813  -0.414   1.397  1.00  0.00     0.038 A 
HETATM    6  C11 UNK     1      -0.979  -0.397  -1.060  1.00  0.00     0.304 A 
HETATM    7  C12 UNK     1      -2.141  -1.005   1.470  1.00  0.00     0.001 A 
HETATM    8  C13 UNK     1      -2.827  -1.266   0.289  1.00  0.00     0.089 A 
HETATM    9  C14 UNK     1      -2.750  -1.319   2.687  1.00  0.00     0.038 A 
HETATM   10  C15 UNK     1      -4.101  -1.830   0.290  1.00  0.00     0.040 A 
HETATM   11  C16 UNK     1      -4.028  -1.886   2.704  1.00  0.00     0.035 A 
HETATM   12  C17 UNK     1      -4.701  -2.141   1.508  1.00  0.00     0.026 A 
ENDROOT
BRANCH   4  13
HETATM   13  C8  UNK     1       1.074   0.464   0.239  1.00  0.00     0.299 C 
HETATM   14  O2  UNK     1       1.893   0.238   1.116  1.00  0.00    -0.259 OA
BRANCH  13  15
HETATM   15  O1  UNK     1       1.226   1.275  -0.844  1.00  0.00    -0.311 OA
BRANCH  15  16
HETATM   16  C4  UNK     1       2.484   1.926  -0.956  1.00  0.00     0.136 C 
HETATM   17  C1  UNK     1       2.532   2.739  -2.264  1.00  0.00     0.015 C 
HETATM   18  C3  UNK     1       2.922   1.671  -3.289  1.00  0.00     0.012 C 
HETATM   19  C6  UNK     1       3.789   3.624  -2.246  1.00  0.00     0.007 C 
HETATM   20  C2  UNK     1       4.182   1.265  -2.526  1.00  0.00    -0.012 C 
HETATM   21  C5  UNK     1       3.609   0.895  -1.145  1.00  0.00     0.037 C 
HETATM   22  C7  UNK     1       4.928   2.607  -2.416  1.00  0.00     0.005 C 
ENDBRANCH  15  16
ENDBRANCH  13  15
ENDBRANCH   4  13
TORSDOF 3
