REMARK  1 active torsions:
REMARK  status: ('A' for Active; 'I' for Inactive)
REMARK    1  A    between atoms: C11_15  and  O2_3 
ROOT
HETATM    1  I1  UNK     1       0.681   0.870  -3.668  1.00  0.00    -0.039 I 
HETATM    2  O1  UNK     1      -1.085  -0.232  -1.292  1.00  0.00    -0.273 OA
HETATM    3  O3  UNK     1      -3.121  -1.207  -1.059  1.00  0.00    -0.259 OA
HETATM    4  C1  UNK     1       0.299   0.202   0.662  1.00  0.00     0.006 A 
HETATM    5  C2  UNK     1      -0.750  -0.393   1.515  1.00  0.00    -0.037 A 
HETATM    6  C3  UNK     1      -1.895  -0.833   0.949  1.00  0.00     0.020 A 
HETATM    7  C4  UNK     1       0.095   0.261  -0.714  1.00  0.00     0.109 A 
HETATM    8  C5  UNK     1       1.504   0.730   1.153  1.00  0.00     0.017 A 
HETATM    9  C6  UNK     1      -0.458  -0.485   2.992  1.00  0.00     0.050 C 
HETATM   10  C7  UNK     1      -2.101  -0.780  -0.527  1.00  0.00     0.294 A 
HETATM   11  C8  UNK     1       1.035   0.808  -1.591  1.00  0.00     0.074 A 
HETATM   12  C9  UNK     1      -3.068  -1.400   1.707  1.00  0.00     0.055 C 
HETATM   13  C10 UNK     1       2.457   1.282   0.289  1.00  0.00     0.039 A 
HETATM   14  C11 UNK     1       2.223   1.320  -1.083  1.00  0.00     0.085 A 
ENDROOT
BRANCH  14  15
HETATM   15  O2  UNK     1       3.182   1.868  -1.881  1.00  0.00    -0.359 OA
HETATM   16  H9  UNK     1       3.928   2.164  -1.333  1.00  0.00     0.217 HD
ENDBRANCH  14  15
TORSDOF 1
