REMARK  6 active torsions:
REMARK  status: ('A' for Active; 'I' for Inactive)
REMARK    1  A    between atoms: C2_9  and  O2_2 
REMARK    2  A    between atoms: C7_14  and  O4_4 
REMARK    3  A    between atoms: C12_19  and  O5_5 
REMARK    4  A    between atoms: C13_20  and  O6_6 
REMARK    5  A    between atoms: C15_22  and  O7_7 
REMARK    6  A    between atoms: C1_8  and  C3_10 
ROOT
HETATM    1  O1  UNK     1      -0.188   0.567   0.830  1.00  0.00    -0.337 OA
HETATM    2  O3  UNK     1      -2.301  -2.138  -1.422  1.00  0.00    -0.289 OA
HETATM    3  C1  UNK     1      -0.168   0.653  -0.604  1.00  0.00     0.198 C 
HETATM    4  C2  UNK     1      -0.370  -0.722  -1.248  1.00  0.00     0.227 C 
HETATM    5  C4  UNK     1      -1.670  -1.319  -0.765  1.00  0.00     0.196 C 
HETATM    6  C5  UNK     1      -2.113  -0.910   0.585  1.00  0.00     0.079 A 
HETATM    7  C6  UNK     1      -1.336  -0.006   1.314  1.00  0.00     0.089 A 
HETATM    8  C7  UNK     1      -3.271  -1.456   1.144  1.00  0.00     0.085 A 
HETATM    9  C10 UNK     1      -1.701   0.328   2.619  1.00  0.00     0.074 A 
HETATM   10  C11 UNK     1      -3.642  -1.103   2.442  1.00  0.00     0.074 A 
HETATM   11  C12 UNK     1      -2.856  -0.217   3.180  1.00  0.00     0.071 A 
ENDROOT
BRANCH   3  12
HETATM   12  C3  UNK     1       1.124   1.304  -1.061  1.00  0.00    -0.023 A 
HETATM   13  C8  UNK     1       1.132   2.114  -2.195  1.00  0.00     0.049 A 
HETATM   14  C13 UNK     1       2.320   2.712  -2.615  1.00  0.00     0.099 A 
HETATM   15  C15 UNK     1       3.498   2.499  -1.901  1.00  0.00     0.098 A 
HETATM   16  C14 UNK     1       3.489   1.688  -0.766  1.00  0.00     0.040 A 
HETATM   17  C9  UNK     1       2.302   1.090  -0.346  1.00  0.00     0.013 A 
BRANCH  14  18
HETATM   18  O6  UNK     1       2.315   3.503  -3.725  1.00  0.00    -0.358 OA
HETATM   19  H11 UNK     1       3.220   3.833  -3.868  1.00  0.00     0.217 HD
ENDBRANCH  14  18
BRANCH  15  20
HETATM   20  O7  UNK     1       4.665   3.078  -2.301  1.00  0.00    -0.358 OA
HETATM   21  H12 UNK     1       5.374   2.819  -1.688  1.00  0.00     0.217 HD
ENDBRANCH  15  20
ENDBRANCH   3  12
BRANCH   4  22
HETATM   22  O2  UNK     1       0.651  -1.642  -0.896  1.00  0.00    -0.385 OA
HETATM   23  H6  UNK     1       0.759  -1.621   0.070  1.00  0.00     0.210 HD
ENDBRANCH   4  22
BRANCH  11  24
HETATM   24  O5  UNK     1      -3.219   0.118   4.448  1.00  0.00    -0.361 OA
HETATM   25  H10 UNK     1      -4.041  -0.349   4.675  1.00  0.00     0.217 HD
ENDBRANCH  11  24
BRANCH   8  26
HETATM   26  O4  UNK     1      -4.067  -2.337   0.476  1.00  0.00    -0.360 OA
HETATM   27  H9  UNK     1      -3.762  -2.445  -0.438  1.00  0.00     0.217 HD
ENDBRANCH   8  26
TORSDOF 6
