REMARK  2 active torsions:
REMARK  status: ('A' for Active; 'I' for Inactive)
REMARK    1  A    between atoms: C11_19  and  N1_4 
REMARK       I    between atoms: C8_16  and  N1_4 
REMARK    2  A    between atoms: C3_11  and  C8_16 
ROOT
HETATM    1  O1  UNK     1       2.264   0.897   0.418  1.00  0.00    -0.274 OA
HETATM    2  O2  UNK     1       0.851  -0.238   1.810  1.00  0.00    -0.259 OA
HETATM    3  C1  UNK     1       1.645   1.229  -1.910  1.00  0.00    -0.001 A 
HETATM    4  C2  UNK     1       2.546   1.406  -0.865  1.00  0.00     0.089 A 
HETATM    5  C3  UNK     1       0.144   0.027  -0.436  1.00  0.00     0.109 A 
HETATM    6  C4  UNK     1       0.407   0.509  -1.656  1.00  0.00     0.037 A 
HETATM    7  C5  UNK     1       1.960   1.749  -3.167  1.00  0.00     0.014 A 
HETATM    8  C6  UNK     1       1.088   0.203   0.690  1.00  0.00     0.304 A 
HETATM    9  C7  UNK     1       3.749   2.086  -1.041  1.00  0.00     0.038 A 
HETATM   10  C9  UNK     1       3.163   2.434  -3.359  1.00  0.00     0.001 A 
HETATM   11  C10 UNK     1       4.056   2.602  -2.298  1.00  0.00     0.003 A 
ENDROOT
BRANCH   5  12
HETATM   12  C8  UNK     1      -1.130  -0.686  -0.280  1.00  0.00     0.276 C 
HETATM   13  O3  UNK     1      -1.612  -1.289  -1.237  1.00  0.00    -0.267 OA
HETATM   14  N1  UNK     1      -1.642  -0.568   1.005  1.00  0.00    -0.149 N 
HETATM   15  H6  UNK     1      -1.143  -0.017   1.698  1.00  0.00     0.188 HD
BRANCH  14  16
HETATM   16  C11 UNK     1      -2.844  -1.121   1.510  1.00  0.00     0.761 A 
HETATM   17  N2  UNK     1      -3.251  -0.957   2.748  1.00  0.00     0.034 NA
HETATM   18  N4  UNK     1      -4.386  -1.666   2.664  1.00  0.00    -0.185 N 
HETATM   19  H7  UNK     1      -5.009  -1.778   3.457  1.00  0.00     0.208 HD
HETATM   20  N5  UNK     1      -4.650  -2.217   1.472  1.00  0.00     0.037 NA
HETATM   21  N3  UNK     1      -3.628  -1.857   0.705  1.00  0.00     0.035 NA
ENDBRANCH  14  16
ENDBRANCH   5  12
TORSDOF 2
