REMARK  1 active torsions:
REMARK  status: ('A' for Active; 'I' for Inactive)
REMARK    1  A    between atoms: C3_8  and  C5_10 
ROOT
HETATM    1 Cl1  UNK     1       3.077   2.206  -4.428  1.00  0.00    -0.084 Cl
HETATM    2  O1  UNK     1       1.817   0.636   1.102  1.00  0.00    -0.321 OA
HETATM    3  O2  UNK     1      -0.913  -0.171  -1.821  1.00  0.00    -0.286 OA
HETATM    4  C1  UNK     1       1.175   0.746  -1.236  1.00  0.00     0.050 A 
HETATM    5  C2  UNK     1       2.074   0.987  -0.198  1.00  0.00     0.089 A 
HETATM    6  C3  UNK     1      -0.356  -0.261   0.493  1.00  0.00     0.049 A 
HETATM    7  C4  UNK     1      -0.109   0.085  -0.934  1.00  0.00     0.198 A 
HETATM    8  C6  UNK     1       3.613   1.988  -1.766  1.00  0.00    -0.038 A 
HETATM    9  C7  UNK     1       3.296   1.608  -0.462  1.00  0.00     0.046 A 
HETATM   10  C8  UNK     1       1.491   1.125  -2.543  1.00  0.00     0.042 A 
HETATM   11  C9  UNK     1       2.713   1.746  -2.804  1.00  0.00     0.041 A 
HETATM   12  C10 UNK     1       0.610   0.039   1.374  1.00  0.00     0.159 A 
HETATM   13  C13 UNK     1       4.930   2.652  -2.010  1.00  0.00     0.050 C 
ENDROOT
BRANCH   6  14
HETATM   14  C5  UNK     1      -1.612  -0.888   0.936  1.00  0.00     0.002 A 
HETATM   15  C11 UNK     1      -2.730  -0.140   1.320  1.00  0.00     0.046 A 
HETATM   16 Cl2  UNK     1      -2.714   1.589   1.301  1.00  0.00    -0.083 Cl
HETATM   17  C14 UNK     1      -3.897  -0.782   1.732  1.00  0.00     0.048 A 
HETATM   18  C16 UNK     1      -3.954  -2.175   1.762  1.00  0.00     0.035 A 
HETATM   19  C15 UNK     1      -2.842  -2.927   1.380  1.00  0.00     0.025 A 
HETATM   20 Cl3  UNK     1      -5.396  -2.967   2.268  1.00  0.00    -0.084 Cl
HETATM   21  C12 UNK     1      -1.675  -2.284   0.968  1.00  0.00     0.016 A 
ENDBRANCH   6  14
TORSDOF 1
