REMARK  1 active torsions:
REMARK  status: ('A' for Active; 'I' for Inactive)
REMARK    1  A    between atoms: C1_4  and  C3_6 
ROOT
HETATM    1 Cl1  UNK     1      -0.121   0.661  -3.846  1.00  0.00    -0.081 Cl
HETATM    2  O1  UNK     1      -0.080   0.356  -0.936  1.00  0.00    -0.338 OA
HETATM    3  O2  UNK     1       2.936   1.417   1.635  1.00  0.00    -0.292 OA
HETATM    4  C1  UNK     1       0.072  -0.306   0.329  1.00  0.00     0.169 C 
HETATM    5  C2  UNK     1       0.685   0.632   1.368  1.00  0.00     0.121 C 
HETATM    6  C4  UNK     1       2.028   1.102   0.874  1.00  0.00     0.165 C 
HETATM    7  C5  UNK     1       2.168   1.235  -0.590  1.00  0.00     0.045 A 
HETATM    8  C6  UNK     1       1.096   0.875  -1.412  1.00  0.00     0.105 A 
HETATM    9  C9  UNK     1       3.340   1.754  -1.146  1.00  0.00     0.018 A 
HETATM   10  C10 UNK     1       1.185   1.067  -2.792  1.00  0.00     0.068 A 
HETATM   11  C14 UNK     1       3.430   1.925  -2.528  1.00  0.00     0.003 A 
HETATM   12  C15 UNK     1       2.354   1.587  -3.348  1.00  0.00     0.027 A 
ENDROOT
BRANCH   4  13
HETATM   13  C3  UNK     1      -1.287  -0.802   0.776  1.00  0.00    -0.029 A 
HETATM   14  C7  UNK     1      -1.516  -2.170   0.923  1.00  0.00     0.010 A 
HETATM   15  C12 UNK     1      -2.768  -2.627   1.335  1.00  0.00     0.007 A 
HETATM   16  C11 UNK     1      -3.791  -1.716   1.599  1.00  0.00    -0.062 A 
HETATM   17  C13 UNK     1      -3.561  -0.348   1.452  1.00  0.00     0.007 A 
HETATM   18  C16 UNK     1      -5.129  -2.205   2.038  1.00  0.00     0.048 C 
HETATM   19  C8  UNK     1      -2.309   0.109   1.041  1.00  0.00     0.010 A 
ENDBRANCH   4  13
TORSDOF 1
