REMARK  6 active torsions:
REMARK  status: ('A' for Active; 'I' for Inactive)
REMARK    1  A    between atoms: C4_12  and  O2_4 
REMARK    2  A    between atoms: C16_24  and  N1_7 
REMARK    3  A    between atoms: C8_16  and  N1_7 
REMARK    4  A    between atoms: C16_24  and  N2_8 
REMARK       I    between atoms: C19_27  and  N2_8 
REMARK    5  A    between atoms: C1_9  and  C2_10 
REMARK    6  A    between atoms: C18_26  and  C19_27 
ROOT
HETATM    1  C1  UNK     1       1.538   1.211  -1.123  1.00  0.00     0.014 A 
HETATM    2  C4  UNK     1       1.797   0.467   0.030  1.00  0.00     0.081 A 
HETATM    3  C7  UNK     1       0.232   1.320  -1.601  1.00  0.00     0.017 A 
HETATM    4  C8  UNK     1      -0.553  -0.057   0.223  1.00  0.00     0.036 A 
HETATM    5  C9  UNK     1       0.752  -0.166   0.702  1.00  0.00     0.067 A 
HETATM    6  C11 UNK     1      -0.813   0.686  -0.929  1.00  0.00     0.030 A 
ENDROOT
BRANCH   4   7
HETATM    7  N1  UNK     1      -1.599  -0.690   0.895  1.00  0.00    -0.333 N 
HETATM    8  H7  UNK     1      -2.427  -0.797   0.313  1.00  0.00     0.168 HD
BRANCH   7   9
HETATM    9  C16 UNK     1      -1.844  -0.956   2.252  1.00  0.00     0.179 C 
HETATM   10  S1  UNK     1      -0.912  -0.530   3.581  1.00  0.00    -0.040 SA
BRANCH   9  11
HETATM   11  N2  UNK     1      -3.050  -1.637   2.514  1.00  0.00    -0.299 N 
HETATM   12  C19 UNK     1      -4.046  -2.091   1.634  1.00  0.00     0.259 C 
HETATM   13  O4  UNK     1      -4.034  -1.965   0.413  1.00  0.00    -0.267 OA
HETATM   14  H13 UNK     1      -3.214  -1.814   3.503  1.00  0.00     0.171 HD
BRANCH  12  15
HETATM   15  C18 UNK     1      -5.174  -2.817   2.270  1.00  0.00     0.054 A 
HETATM   16  C20 UNK     1      -6.474  -2.375   2.127  1.00  0.00     0.049 A 
HETATM   17 Cl1  UNK     1      -6.878  -0.966   1.214  1.00  0.00    -0.083 Cl
HETATM   18  C22 UNK     1      -7.503  -3.088   2.743  1.00  0.00     0.025 A 
HETATM   19  C24 UNK     1      -7.212  -4.230   3.488  1.00  0.00     0.002 A 
HETATM   20  C23 UNK     1      -5.891  -4.659   3.619  1.00  0.00     0.001 A 
HETATM   21  C21 UNK     1      -4.862  -3.946   3.004  1.00  0.00     0.019 A 
ENDBRANCH  12  15
ENDBRANCH   9  11
ENDBRANCH   7   9
ENDBRANCH   4   7
BRANCH   2  22
HETATM   22  O2  UNK     1       3.064   0.345   0.520  1.00  0.00    -0.355 OA
HETATM   23  C17 UNK     1       3.491   1.326   1.462  1.00  0.00     0.210 C 
ENDBRANCH   2  22
BRANCH   1  24
HETATM   24  C2  UNK     1       2.626   1.890  -1.852  1.00  0.00     0.053 A 
HETATM   25  C10 UNK     1       3.018   3.280  -1.493  1.00  0.00     0.299 A 
HETATM   26  O1  UNK     1       4.073   3.843  -2.207  1.00  0.00    -0.274 OA
HETATM   27  O3  UNK     1       2.441   3.914  -0.615  1.00  0.00    -0.259 OA
HETATM   28  C6  UNK     1       4.735   3.145  -3.234  1.00  0.00     0.089 A 
HETATM   29  C13 UNK     1       5.772   3.798  -3.898  1.00  0.00     0.038 A 
HETATM   30  C3  UNK     1       4.354   1.851  -3.565  1.00  0.00    -0.001 A 
HETATM   31  C15 UNK     1       6.444   3.133  -4.921  1.00  0.00     0.003 A 
HETATM   32  C14 UNK     1       6.075   1.831  -5.267  1.00  0.00     0.001 A 
HETATM   33  C12 UNK     1       5.033   1.189  -4.592  1.00  0.00     0.014 A 
HETATM   34  C5  UNK     1       3.266   1.229  -2.829  1.00  0.00     0.032 A 
ENDBRANCH   1  24
TORSDOF 6
