REMARK  4 active torsions:
REMARK  status: ('A' for Active; 'I' for Inactive)
REMARK    1  A    between atoms: C1_8  and  N1_6 
REMARK       I    between atoms: C5_12  and  N1_6 
REMARK    2  A    between atoms: C14_21  and  N2_7 
REMARK    3  A    between atoms: C1_8  and  C2_9 
REMARK    4  A    between atoms: C5_12  and  C6_13 
ROOT
HETATM    1  C1  UNK     1       3.683   1.649  -1.493  1.00  0.00     0.092 C 
HETATM    2  C3  UNK     1       4.589   1.029  -0.418  1.00  0.00     0.053 C 
HETATM    3  C8  UNK     1       4.231   1.322  -2.827  1.00  0.00    -0.086 C 
HETATM    4  C16 UNK     1       4.678   1.053  -3.909  1.00  0.00     0.015 C 
ENDROOT
BRANCH   1   5
HETATM    5  N1  UNK     1       2.363   1.074  -1.367  1.00  0.00    -0.337 N 
HETATM    6  C5  UNK     1       1.589   1.207  -0.228  1.00  0.00     0.259 C 
HETATM    7  O2  UNK     1       1.902   1.809   0.797  1.00  0.00    -0.267 OA
HETATM    8  H3  UNK     1       2.015   0.520  -2.144  1.00  0.00     0.164 HD
BRANCH   6   9
HETATM    9  C6  UNK     1       0.287   0.538  -0.342  1.00  0.00     0.108 A 
HETATM   10  C11 UNK     1      -0.406   0.386  -1.641  1.00  0.00     0.304 A 
HETATM   11  O1  UNK     1      -1.636  -0.266  -1.620  1.00  0.00    -0.274 OA
HETATM   12  O3  UNK     1       0.073   0.812  -2.686  1.00  0.00    -0.259 OA
HETATM   13  C10 UNK     1      -2.197  -0.758  -0.425  1.00  0.00     0.089 A 
HETATM   14  C7  UNK     1      -1.528  -0.604   0.785  1.00  0.00     0.001 A 
HETATM   15  C13 UNK     1      -3.432  -1.397  -0.504  1.00  0.00     0.041 A 
HETATM   16  C12 UNK     1      -2.116  -1.106   1.949  1.00  0.00     0.050 A 
HETATM   17  C9  UNK     1      -0.240   0.073   0.796  1.00  0.00     0.037 A 
HETATM   18  C14 UNK     1      -3.355  -1.749   1.885  1.00  0.00     0.103 A 
HETATM   19  C15 UNK     1      -4.012  -1.894   0.661  1.00  0.00     0.039 A 
BRANCH  18  20
HETATM   20  N2  UNK     1      -3.950  -2.257   3.070  1.00  0.00    -0.116 N 
HETATM   21  O4  UNK     1      -5.063  -2.831   2.994  1.00  0.00    -0.532 OA
HETATM   22  O5  UNK     1      -3.346  -2.118   4.161  1.00  0.00    -0.532 OA
ENDBRANCH  18  20
ENDBRANCH   6   9
ENDBRANCH   1   5
BRANCH   1  23
HETATM   23  C2  UNK     1       3.628   3.180  -1.285  1.00  0.00     0.040 C 
HETATM   24  C4  UNK     1       2.722   3.927  -2.261  1.00  0.00     0.009 C 
ENDBRANCH   1  23
TORSDOF 4
