REMARK  2 active torsions:
REMARK  status: ('A' for Active; 'I' for Inactive)
REMARK    1  A    between atoms: C1_3  and  C3_5 
REMARK    2  A    between atoms: C2_4  and  C4_6 
ROOT
HETATM    1  N1  UNK     1      -1.022   2.494   0.819  1.00  0.00    -0.191 NA
HETATM    2  C3  UNK     1       0.399   0.612  -0.277  1.00  0.00     0.055 C 
HETATM    3  C4  UNK     1      -0.017  -0.671  -0.111  1.00  0.00     0.038 C 
HETATM    4  C15 UNK     1      -0.394   1.647   0.333  1.00  0.00     0.100 C 
ENDROOT
BRANCH   2   5
HETATM    5  C1  UNK     1       1.591   0.987  -1.022  1.00  0.00    -0.015 A 
HETATM    6  C7  UNK     1       2.822   1.076  -0.371  1.00  0.00     0.013 A 
HETATM    7  C11 UNK     1       3.964   1.436  -1.085  1.00  0.00     0.001 A 
HETATM    8  C14 UNK     1       3.877   1.705  -2.450  1.00  0.00     0.000 A 
HETATM    9  C12 UNK     1       2.647   1.615  -3.102  1.00  0.00     0.001 A 
HETATM   10  C8  UNK     1       1.504   1.256  -2.388  1.00  0.00     0.013 A 
ENDBRANCH   2   5
BRANCH   3  11
HETATM   11  C2  UNK     1      -1.209  -1.095   0.638  1.00  0.00     0.004 A 
HETATM   12  C5  UNK     1      -2.430  -1.198  -0.013  1.00  0.00     0.126 A 
HETATM   13  F1  UNK     1      -2.548  -0.918  -1.319  1.00  0.00    -0.205 F 
HETATM   14  C9  UNK     1      -3.557  -1.601   0.703  1.00  0.00     0.043 A 
HETATM   15  C13 UNK     1      -3.452  -1.896   2.062  1.00  0.00     0.003 A 
HETATM   16  C10 UNK     1      -2.219  -1.788   2.705  1.00  0.00     0.001 A 
HETATM   17  C6  UNK     1      -1.092  -1.386   1.990  1.00  0.00     0.014 A 
ENDBRANCH   3  11
TORSDOF 2
