REMARK  5 active torsions:
REMARK  status: ('A' for Active; 'I' for Inactive)
REMARK    1  A    between atoms: C3_8  and  O1_1 
REMARK    2  A    between atoms: C8_13  and  O1_1 
REMARK    3  A    between atoms: C5_10  and  O3_3 
REMARK    4  A    between atoms: C4_9  and  O4_4 
REMARK    5  A    between atoms: C8_13  and  C9_14 
ROOT
HETATM    1  O2  UNK     1      -3.106  -1.164   0.006  1.00  0.00    -0.272 OA
HETATM    2  O5  UNK     1      -4.968  -2.368   0.578  1.00  0.00    -0.260 OA
HETATM    3  C1  UNK     1      -1.319  -0.901   1.638  1.00  0.00     0.004 A 
HETATM    4  C2  UNK     1      -1.843  -0.655   0.371  1.00  0.00     0.125 A 
HETATM    5  C3  UNK     1       0.103   0.608  -0.246  1.00  0.00     0.138 A 
HETATM    6  C4  UNK     1      -1.148   0.093  -0.577  1.00  0.00     0.137 A 
HETATM    7  C5  UNK     1       0.644   0.372   1.020  1.00  0.00     0.105 A 
HETATM    8  C6  UNK     1      -0.064  -0.381   1.962  1.00  0.00     0.054 A 
HETATM    9  C7  UNK     1      -2.098  -1.690   2.577  1.00  0.00     0.020 A 
HETATM   10  C10 UNK     1      -3.294  -2.167   2.224  1.00  0.00     0.083 A 
HETATM   11  C12 UNK     1      -3.870  -1.921   0.889  1.00  0.00     0.288 A 
ENDROOT
BRANCH   5  12
HETATM   12  O1  UNK     1       0.801   1.344  -1.157  1.00  0.00    -0.342 OA
BRANCH  12  13
HETATM   13  C8  UNK     1       1.683   0.633  -2.023  1.00  0.00     0.203 C 
BRANCH  13  14
HETATM   14  C9  UNK     1       2.379   1.599  -2.929  1.00  0.00     0.002 C 
HETATM   15  C11 UNK     1       3.698   1.853  -3.018  1.00  0.00    -0.089 C 
HETATM   16  C14 UNK     1       4.771   1.190  -2.202  1.00  0.00     0.042 C 
HETATM   17  C13 UNK     1       4.211   2.876  -3.998  1.00  0.00     0.042 C 
ENDBRANCH  13  14
ENDBRANCH  12  13
ENDBRANCH   5  12
BRANCH   7  18
HETATM   18  O3  UNK     1       1.868   0.872   1.352  1.00  0.00    -0.353 OA
HETATM   19  C15 UNK     1       1.899   2.169   1.943  1.00  0.00     0.210 C 
ENDBRANCH   7  18
BRANCH   6  20
HETATM   20  O4  UNK     1      -1.682   0.319  -1.808  1.00  0.00    -0.356 OA
HETATM   21  H7  UNK     1      -2.551  -0.117  -1.850  1.00  0.00     0.218 HD
ENDBRANCH   6  20
TORSDOF 5
