REMARK  1 active torsions:
REMARK  status: ('A' for Active; 'I' for Inactive)
REMARK    1  A    between atoms: C9_16  and  N2_6 
ROOT
HETATM    1  O1  UNK     1       2.084   0.657   0.931  1.00  0.00    -0.291 OA
HETATM    2  O2  UNK     1       0.565   1.158  -2.926  1.00  0.00    -0.274 OA
HETATM    3  O3  UNK     1      -1.779   2.163   0.965  1.00  0.00    -0.271 OA
HETATM    4  O4  UNK     1      -1.488   0.473  -2.246  1.00  0.00    -0.259 OA
HETATM    5  N1  UNK     1      -3.046   0.226   0.499  1.00  0.00    -0.320 N 
HETATM    6  N3  UNK     1      -1.311  -0.867   3.972  1.00  0.00    -0.191 NA
HETATM    7  C1  UNK     1      -0.677  -0.012   0.532  1.00  0.00     0.147 A 
HETATM    8  C2  UNK     1      -1.378  -1.309   0.185  1.00  0.00    -0.003 A 
HETATM    9  C3  UNK     1       0.224   0.506  -0.577  1.00  0.00     0.080 A 
HETATM   10  C4  UNK     1      -1.872   0.972   0.701  1.00  0.00     0.247 A 
HETATM   11  C5  UNK     1      -2.762  -1.114   0.193  1.00  0.00     0.045 A 
HETATM   12  C6  UNK     1       0.026  -0.090   1.888  1.00  0.00     0.100 A 
HETATM   13  C7  UNK     1       1.511   0.797  -0.318  1.00  0.00     0.105 A 
HETATM   14  C8  UNK     1      -0.838  -2.553  -0.102  1.00  0.00     0.011 A 
HETATM   15  C9  UNK     1       1.332   0.236   2.021  1.00  0.00     0.160 A 
HETATM   16  C10 UNK     1      -0.319   0.699  -1.955  1.00  0.00     0.299 A 
HETATM   17  C11 UNK     1      -3.643  -2.145  -0.083  1.00  0.00     0.030 A 
HETATM   18  C12 UNK     1       2.413   1.287  -1.359  1.00  0.00     0.033 A 
HETATM   19  C13 UNK     1      -4.388   0.753   0.570  1.00  0.00     0.159 C 
HETATM   20  C14 UNK     1      -1.714  -3.603  -0.384  1.00  0.00     0.001 A 
HETATM   21  C15 UNK     1       1.909   1.453  -2.643  1.00  0.00     0.092 A 
HETATM   22  C16 UNK     1      -3.105  -3.400  -0.374  1.00  0.00     0.002 A 
HETATM   23  C17 UNK     1      -0.713  -0.520   3.040  1.00  0.00     0.101 C 
HETATM   24  C18 UNK     1       3.760   1.599  -1.135  1.00  0.00     0.017 A 
HETATM   25  C19 UNK     1       2.698   1.913  -3.698  1.00  0.00     0.038 A 
HETATM   26  C20 UNK     1       4.566   2.062  -2.181  1.00  0.00     0.001 A 
HETATM   27  C21 UNK     1       4.035   2.219  -3.461  1.00  0.00     0.003 A 
ENDROOT
BRANCH  15  28
HETATM   28  N2  UNK     1       2.041   0.191   3.190  1.00  0.00    -0.379 N 
HETATM   29  H10 UNK     1       1.605  -0.102   4.054  1.00  0.00     0.158 HD
HETATM   30  H9  UNK     1       3.018   0.456   3.177  1.00  0.00     0.158 HD
ENDBRANCH  15  28
TORSDOF 1
