REMARK  4 active torsions:
REMARK  status: ('A' for Active; 'I' for Inactive)
REMARK    1  A    between atoms: C15_21  and  O2_2 
REMARK    2  A    between atoms: C5_11  and  N1_4 
REMARK    3  A    between atoms: C7_13  and  N2_5 
REMARK    4  A    between atoms: C5_11  and  C6_12 
ROOT
HETATM    1  N3  UNK     1       5.155   2.995  -4.495  1.00  0.00    -0.195 NA
HETATM    2  C7  UNK     1       3.461   3.345  -2.519  1.00  0.00     0.395 C 
HETATM    3  C13 UNK     1       4.407   3.147  -3.622  1.00  0.00     0.089 C 
ENDROOT
BRANCH   2   4
HETATM    4  N2  UNK     1       3.135   2.083  -1.856  1.00  0.00     0.104 N 
HETATM    5  C3  UNK     1       2.597   2.325  -0.512  1.00  0.00     0.303 C 
HETATM    6  C1  UNK     1       2.251   1.004   0.184  1.00  0.00     0.303 C 
HETATM    7  N1  UNK     1       1.300   0.224  -0.618  1.00  0.00     0.096 N 
HETATM    8  C2  UNK     1       1.840  -0.018  -1.961  1.00  0.00     0.303 C 
HETATM    9  C4  UNK     1       2.184   1.303  -2.657  1.00  0.00     0.303 C 
BRANCH   7  10
HETATM   10  C5  UNK     1       0.973  -1.036   0.046  1.00  0.00     0.312 C 
BRANCH  10  11
HETATM   11  C6  UNK     1      -0.042  -0.858   1.121  1.00  0.00    -0.011 A 
HETATM   12  C8  UNK     1      -1.472  -0.973   0.806  1.00  0.00     0.009 A 
HETATM   13  C10 UNK     1      -2.399  -0.802   1.835  1.00  0.00     0.090 A 
HETATM   14  C11 UNK     1      -1.967  -1.248  -0.475  1.00  0.00     0.051 A 
HETATM   15  O1  UNK     1      -1.983  -0.524   3.153  1.00  0.00    -0.275 OA
HETATM   16  C14 UNK     1      -3.776  -0.895   1.622  1.00  0.00     0.041 A 
HETATM   17  C12 UNK     1      -0.640  -0.410   3.479  1.00  0.00     0.288 A 
HETATM   18  O3  UNK     1      -0.267  -0.168   4.622  1.00  0.00    -0.260 OA
HETATM   19  C9  UNK     1       0.325  -0.593   2.383  1.00  0.00     0.092 A 
HETATM   20  C16 UNK     1      -4.248  -1.168   0.343  1.00  0.00     0.039 A 
HETATM   21  C15 UNK     1      -3.345  -1.344  -0.705  1.00  0.00     0.069 A 
BRANCH  21  22
HETATM   22  O2  UNK     1      -3.805  -1.612  -1.958  1.00  0.00    -0.356 OA
HETATM   23  C17 UNK     1      -5.219  -1.697  -2.125  1.00  0.00     0.210 C 
ENDBRANCH  21  22
ENDBRANCH  10  11
ENDBRANCH   7  10
ENDBRANCH   2   4
TORSDOF 4
