REMARK  2 active torsions:
REMARK  status: ('A' for Active; 'I' for Inactive)
REMARK    1  A    between atoms: C2_7  and  N1_5 
REMARK       I    between atoms: C7_12  and  N1_5 
REMARK    2  A    between atoms: C3_8  and  C7_12 
ROOT
HETATM    1  O2  UNK     1       0.810  -0.291   1.869  1.00  0.00    -0.267 OA
HETATM    2  N1  UNK     1      -1.060  -0.438   0.446  1.00  0.00    -0.322 N 
HETATM    3  C7  UNK     1       0.255  -0.149   0.781  1.00  0.00     0.262 C 
HETATM    4  H2  UNK     1      -1.355  -0.234  -0.504  1.00  0.00     0.169 HD
ENDROOT
BRANCH   3   5
HETATM    5  C3  UNK     1       1.011   0.388  -0.357  1.00  0.00     0.108 A 
HETATM    6  C10 UNK     1       0.700   0.010  -1.754  1.00  0.00     0.304 A 
HETATM    7  O1  UNK     1       1.488   0.586  -2.747  1.00  0.00    -0.274 OA
HETATM    8  O3  UNK     1      -0.205  -0.770  -2.029  1.00  0.00    -0.259 OA
HETATM    9  C5  UNK     1       2.530   1.484  -2.443  1.00  0.00     0.089 A 
HETATM   10  C1  UNK     1       2.805   1.825  -1.122  1.00  0.00    -0.001 A 
HETATM   11  C12 UNK     1       3.263   2.009  -3.505  1.00  0.00     0.038 A 
HETATM   12  C6  UNK     1       2.000   1.240  -0.062  1.00  0.00     0.037 A 
HETATM   13  C9  UNK     1       3.846   2.719  -0.860  1.00  0.00     0.014 A 
HETATM   14  C16 UNK     1       4.591   3.254  -1.915  1.00  0.00     0.001 A 
HETATM   15  C17 UNK     1       4.300   2.899  -3.234  1.00  0.00     0.003 A 
ENDBRANCH   3   5
BRANCH   2  16
HETATM   16  C2  UNK     1      -2.070  -0.967   1.287  1.00  0.00     0.042 A 
HETATM   17  C4  UNK     1      -3.342  -1.200   0.792  1.00  0.00    -0.013 A 
HETATM   18  C11 UNK     1      -4.320  -1.721   1.640  1.00  0.00     0.042 A 
HETATM   19  C13 UNK     1      -3.662  -0.893  -0.639  1.00  0.00     0.052 C 
HETATM   20 Cl1  UNK     1      -5.924  -2.032   1.082  1.00  0.00    -0.084 Cl
HETATM   21  C15 UNK     1      -4.012  -2.003   2.971  1.00  0.00     0.024 A 
HETATM   22  C14 UNK     1      -2.725  -1.763   3.454  1.00  0.00     0.004 A 
HETATM   23  C8  UNK     1      -1.748  -1.241   2.607  1.00  0.00     0.030 A 
ENDBRANCH   2  16
TORSDOF 2
