REMARK  7 active torsions:
REMARK  status: ('A' for Active; 'I' for Inactive)
REMARK    1  A    between atoms: C14_21  and  O3_3 
REMARK    2  A    between atoms: C20_27  and  O3_3 
REMARK    3  A    between atoms: C23_30  and  O6_6 
REMARK    4  A    between atoms: C25_32  and  O6_6 
REMARK    5  A    between atoms: C12_19  and  C6_13 
REMARK    6  A    between atoms: C10_17  and  C14_21 
REMARK    7  A    between atoms: C20_27  and  C23_30 
ROOT
HETATM    1  O1  UNK     1      -2.723   0.690   2.704  1.00  0.00    -0.293 OA
HETATM    2  N1  UNK     1      -1.983  -2.132  -1.027  1.00  0.00    -0.362 N 
HETATM    3  C1  UNK     1      -3.808  -2.736   2.217  1.00  0.00    -0.036 C 
HETATM    4  C2  UNK     1      -2.880  -3.106   1.042  1.00  0.00     0.067 C 
HETATM    5  C3  UNK     1      -3.146  -1.634   3.057  1.00  0.00     0.092 C 
HETATM    6  C4  UNK     1      -2.345  -1.914   0.289  1.00  0.00     0.021 C 
HETATM    7  C5  UNK     1      -2.250  -0.679   0.824  1.00  0.00     0.024 C 
HETATM    8  C6  UNK     1      -1.695   0.493   0.015  1.00  0.00     0.104 C 
HETATM    9  C7  UNK     1      -2.721  -0.443   2.223  1.00  0.00     0.159 C 
HETATM   10  C8  UNK     1      -5.183  -2.266   1.698  1.00  0.00     0.015 C 
HETATM   11  C9  UNK     1      -4.030  -3.980   3.097  1.00  0.00     0.015 C 
HETATM   12  C10 UNK     1      -1.526   0.148  -1.467  1.00  0.00     0.052 C 
HETATM   13  C11 UNK     1      -1.639  -1.125  -1.913  1.00  0.00     0.018 C 
HETATM   14  C13 UNK     1      -1.431  -1.571  -3.335  1.00  0.00     0.069 C 
HETATM   15  H12 UNK     1      -2.068  -3.074  -1.392  1.00  0.00     0.165 HD
ENDROOT
BRANCH   8  16
HETATM   16  C12 UNK     1      -0.382   0.961   0.593  1.00  0.00     0.029 A 
HETATM   17  C15 UNK     1       0.760   0.012   0.617  1.00  0.00     0.194 A 
HETATM   18  O5  UNK     1       0.668  -1.129   0.184  1.00  0.00    -0.287 OA
HETATM   19  C17 UNK     1       2.019   0.520   1.193  1.00  0.00     0.048 A 
HETATM   20  C18 UNK     1       2.067   1.829   1.672  1.00  0.00     0.089 A 
HETATM   21  C19 UNK     1       3.151  -0.296   1.262  1.00  0.00     0.018 A 
HETATM   22  O2  UNK     1       0.986   2.674   1.629  1.00  0.00    -0.321 OA
HETATM   23  C21 UNK     1       3.247   2.330   2.221  1.00  0.00     0.038 A 
HETATM   24  C16 UNK     1      -0.180   2.187   1.091  1.00  0.00     0.154 A 
HETATM   25  C24 UNK     1       4.379   1.518   2.290  1.00  0.00     0.003 A 
HETATM   26  C22 UNK     1       4.331   0.208   1.812  1.00  0.00     0.001 A 
ENDBRANCH   8  16
BRANCH  12  27
HETATM   27  C14 UNK     1      -1.293   1.273  -2.387  1.00  0.00     0.292 C 
HETATM   28  O4  UNK     1      -2.192   1.909  -2.906  1.00  0.00    -0.259 OA
BRANCH  27  29
HETATM   29  O3  UNK     1       0.044   1.443  -2.525  1.00  0.00    -0.316 OA
BRANCH  29  30
HETATM   30  C20 UNK     1       0.433   2.510  -3.396  1.00  0.00     0.205 C 
BRANCH  30  31
HETATM   31  C23 UNK     1       1.947   2.577  -3.450  1.00  0.00     0.195 C 
BRANCH  31  32
HETATM   32  O6  UNK     1       2.450   1.334  -3.925  1.00  0.00    -0.385 OA
BRANCH  32  33
HETATM   33  C25 UNK     1       3.869   1.340  -3.996  1.00  0.00     0.113 C 
HETATM   34  C27 UNK     1       4.347   0.015  -4.570  1.00  0.00     0.039 C 
HETATM   35  C26 UNK     1       4.439   1.596  -2.609  1.00  0.00     0.039 C 
ENDBRANCH  32  33
ENDBRANCH  31  32
ENDBRANCH  30  31
ENDBRANCH  29  30
ENDBRANCH  27  29
ENDBRANCH  12  27
TORSDOF 7
