REMARK  1 active torsions:
REMARK  status: ('A' for Active; 'I' for Inactive)
REMARK    1  A    between atoms: C2_6  and  C4_8 
ROOT
HETATM    1  O2  UNK     1       1.932   1.347  -3.068  1.00  0.00    -0.274 OA
HETATM    2  O3  UNK     1       0.428   0.807  -4.703  1.00  0.00    -0.260 OA
HETATM    3  C1  UNK     1       1.388   0.849  -0.743  1.00  0.00     0.012 A 
HETATM    4  C2  UNK     1       0.096   0.287  -1.174  1.00  0.00     0.017 A 
HETATM    5  C3  UNK     1       2.263   1.360  -1.700  1.00  0.00     0.096 A 
HETATM    6  C5  UNK     1       3.501   1.906  -1.359  1.00  0.00    -0.027 A 
HETATM    7  C6  UNK     1       1.787   0.896   0.600  1.00  0.00     0.022 A 
HETATM    8  C7  UNK     1       3.025   1.440   0.957  1.00  0.00    -0.060 A 
HETATM    9  C10 UNK     1       3.880   1.945  -0.021  1.00  0.00     0.016 A 
HETATM   10  C12 UNK     1      -0.186   0.290  -2.489  1.00  0.00     0.097 A 
HETATM   11  C13 UNK     1       4.423   2.449  -2.399  1.00  0.00     0.051 C 
HETATM   12  C14 UNK     1       0.727   0.826  -3.514  1.00  0.00     0.289 A 
HETATM   13  C15 UNK     1       3.430   1.483   2.393  1.00  0.00     0.048 C 
ENDROOT
BRANCH   4  14
HETATM   14  C4  UNK     1      -0.886  -0.265  -0.326  1.00  0.00     0.088 A 
HETATM   15  O1  UNK     1      -1.878   0.489   0.219  1.00  0.00    -0.309 OA
HETATM   16  C11 UNK     1      -2.643  -0.347   0.977  1.00  0.00     0.086 A 
HETATM   17  C8  UNK     1      -2.141  -1.643   0.919  1.00  0.00     0.002 A 
HETATM   18  C17 UNK     1      -3.768   0.024   1.712  1.00  0.00     0.040 A 
HETATM   19  C16 UNK     1      -2.802  -2.651   1.642  1.00  0.00     0.038 A 
HETATM   20  C9  UNK     1      -1.003  -1.578   0.072  1.00  0.00     0.052 A 
HETATM   21  C18 UNK     1      -3.937  -2.309   2.390  1.00  0.00     0.035 A 
HETATM   22 Cl1  UNK     1      -4.762  -3.530   3.284  1.00  0.00    -0.084 Cl
HETATM   23  C19 UNK     1      -4.409  -0.995   2.423  1.00  0.00     0.026 A 
ENDBRANCH   4  14
TORSDOF 1
