REMARK  5 active torsions:
REMARK  status: ('A' for Active; 'I' for Inactive)
REMARK    1  A    between atoms: C12_16  and  O1_1 
REMARK    2  A    between atoms: C3_7  and  O1_1 
REMARK    3  A    between atoms: C1_5  and  C6_10 
REMARK    4  A    between atoms: C12_16  and  C14_18 
REMARK    5  A    between atoms: C14_18  and  C15_19 
ROOT
HETATM    1  O2  UNK     1      -3.417  -2.057  -0.452  1.00  0.00    -0.275 OA
HETATM    2  O3  UNK     1      -5.574  -2.692  -0.868  1.00  0.00    -0.260 OA
HETATM    3  C1  UNK     1      -0.530  -0.475   2.112  1.00  0.00    -0.024 A 
HETATM    4  C2  UNK     1      -2.845  -1.128   1.734  1.00  0.00     0.005 A 
HETATM    5  C3  UNK     1      -0.189  -0.873   0.821  1.00  0.00     0.078 A 
HETATM    6  C4  UNK     1      -1.848  -0.601   2.566  1.00  0.00     0.024 A 
HETATM    7  C5  UNK     1      -2.474  -1.518   0.446  1.00  0.00     0.092 A 
HETATM    8  C7  UNK     1      -4.247  -1.290   2.141  1.00  0.00    -0.043 A 
HETATM    9  C8  UNK     1      -1.164  -1.398  -0.021  1.00  0.00     0.075 A 
HETATM   10  C10 UNK     1      -5.122  -1.806   1.266  1.00  0.00     0.090 A 
HETATM   11  C11 UNK     1      -4.678  -0.882   3.520  1.00  0.00     0.049 C 
HETATM   12  C13 UNK     1      -4.746  -2.222  -0.095  1.00  0.00     0.288 A 
ENDROOT
BRANCH   5  13
HETATM   13  O1  UNK     1       1.090  -0.754   0.369  1.00  0.00    -0.343 OA
BRANCH  13  14
HETATM   14  C12 UNK     1       1.300   0.070  -0.777  1.00  0.00     0.259 C 
BRANCH  14  15
HETATM   15  C14 UNK     1       2.686   0.682  -0.730  1.00  0.00     0.183 C 
HETATM   16  O4  UNK     1       3.450   0.479   0.211  1.00  0.00    -0.290 OA
BRANCH  15  17
HETATM   17  C15 UNK     1       3.124   1.551  -1.860  1.00  0.00     0.012 A 
HETATM   18  C16 UNK     1       2.253   1.767  -2.904  1.00  0.00     0.016 A 
HETATM   19  C19 UNK     1       2.663   2.580  -3.960  1.00  0.00     0.007 A 
HETATM   20  C18 UNK     1       3.933   3.157  -3.944  1.00  0.00    -0.062 A 
HETATM   21  C20 UNK     1       4.793   2.920  -2.872  1.00  0.00     0.007 A 
HETATM   22  C21 UNK     1       4.371   4.027  -5.074  1.00  0.00     0.048 C 
HETATM   23  C17 UNK     1       4.383   2.106  -1.816  1.00  0.00     0.016 A 
ENDBRANCH  15  17
ENDBRANCH  14  15
ENDBRANCH  13  14
ENDBRANCH   5  13
BRANCH   3  24
HETATM   24  C6  UNK     1       0.503   0.092   3.030  1.00  0.00     0.037 C 
HETATM   25  C9  UNK     1       0.614   1.609   2.909  1.00  0.00     0.010 C 
ENDBRANCH   3  24
TORSDOF 5
