REMARK  13 active torsions:
REMARK  status: ('A' for Active; 'I' for Inactive)
REMARK    1  A    between atoms: C5_18  and  O2_2 
REMARK    2  A    between atoms: C7_20  and  O2_2 
REMARK    3  A    between atoms: C1_14  and  O3_3 
REMARK    4  A    between atoms: C2_15  and  O4_4 
REMARK    5  A    between atoms: C3_16  and  O5_5 
REMARK    6  A    between atoms: C6_19  and  O6_6 
REMARK    7  A    between atoms: C9_22  and  O8_8 
REMARK    8  A    between atoms: C11_24  and  O9_9 
REMARK    9  A    between atoms: C15_28  and  O10_10 
REMARK   10  A    between atoms: C19_32  and  O12_12 
REMARK   11  A    between atoms: C21_34  and  O13_13 
REMARK   12  A    between atoms: C4_17  and  C6_19 
REMARK   13  A    between atoms: C14_27  and  C16_29 
ROOT
HETATM    1  O7  UNK     1      -0.357   1.309   0.387  1.00  0.00    -0.303 OA
HETATM    2  O11 UNK     1       1.150   2.041   4.101  1.00  0.00    -0.284 OA
HETATM    3  C7  UNK     1      -2.289   0.300   1.293  1.00  0.00     0.140 A 
HETATM    4  C8  UNK     1      -1.061   0.929   1.500  1.00  0.00     0.129 A 
HETATM    5  C9  UNK     1      -3.052  -0.109   2.387  1.00  0.00     0.104 A 
HETATM    6  C10 UNK     1      -0.600   1.148   2.796  1.00  0.00     0.087 A 
HETATM    7  C11 UNK     1      -1.362   0.740   3.894  1.00  0.00     0.085 A 
HETATM    8  C12 UNK     1      -2.589   0.110   3.685  1.00  0.00     0.077 A 
HETATM    9  C13 UNK     1       0.697   1.816   2.987  1.00  0.00     0.223 A 
HETATM   10  C14 UNK     1       0.872   1.926   0.560  1.00  0.00     0.123 A 
HETATM   11  C15 UNK     1       1.425   2.203   1.755  1.00  0.00     0.152 A 
ENDROOT
BRANCH   3  12
HETATM   12  O2  UNK     1      -2.747   0.082   0.026  1.00  0.00    -0.312 OA
BRANCH  12  13
HETATM   13  C5  UNK     1      -2.377  -1.154  -0.584  1.00  0.00     0.298 C 
HETATM   14  C3  UNK     1      -2.984  -1.187  -1.987  1.00  0.00     0.205 C 
HETATM   15  C1  UNK     1      -2.512  -2.414  -2.768  1.00  0.00     0.183 C 
HETATM   16  C2  UNK     1      -0.994  -2.574  -2.682  1.00  0.00     0.180 C 
HETATM   17  C4  UNK     1      -0.519  -2.483  -1.230  1.00  0.00     0.179 C 
HETATM   18  O1  UNK     1      -0.956  -1.252  -0.651  1.00  0.00    -0.348 OA
BRANCH  14  19
HETATM   19  O5  UNK     1      -4.405  -1.225  -1.859  1.00  0.00    -0.388 OA
HETATM   20  H10 UNK     1      -4.643  -2.033  -1.373  1.00  0.00     0.210 HD
ENDBRANCH  14  19
BRANCH  15  21
HETATM   21  O3  UNK     1      -2.864  -2.266  -4.144  1.00  0.00    -0.390 OA
HETATM   22  H8  UNK     1      -2.539  -3.053  -4.614  1.00  0.00     0.210 HD
ENDBRANCH  15  21
BRANCH  16  23
HETATM   23  O4  UNK     1      -0.623  -3.840  -3.221  1.00  0.00    -0.390 OA
HETATM   24  H9  UNK     1      -1.040  -4.531  -2.679  1.00  0.00     0.210 HD
ENDBRANCH  16  23
BRANCH  17  25
HETATM   25  C6  UNK     1       1.003  -2.522  -1.130  1.00  0.00     0.198 C 
BRANCH  25  26
HETATM   26  O6  UNK     1       1.368  -2.423   0.234  1.00  0.00    -0.398 OA
HETATM   27  H11 UNK     1       1.007  -1.586   0.574  1.00  0.00     0.209 HD
ENDBRANCH  25  26
ENDBRANCH  17  25
ENDBRANCH  12  13
ENDBRANCH   3  12
BRANCH   5  28
HETATM   28  O8  UNK     1      -4.254  -0.726   2.202  1.00  0.00    -0.358 OA
HETATM   29  H13 UNK     1      -4.638  -0.938   3.070  1.00  0.00     0.217 HD
ENDBRANCH   5  28
BRANCH   7  30
HETATM   30  O9  UNK     1      -0.956   0.930   5.181  1.00  0.00    -0.360 OA
HETATM   31  H16 UNK     1      -0.092   1.368   5.205  1.00  0.00     0.217 HD
ENDBRANCH   7  30
BRANCH  10  32
HETATM   32  C16 UNK     1       1.520   2.283  -0.715  1.00  0.00     0.004 A 
HETATM   33  C17 UNK     1       2.390   1.383  -1.331  1.00  0.00     0.053 A 
HETATM   34  C19 UNK     1       3.003   1.720  -2.537  1.00  0.00     0.099 A 
HETATM   35  C21 UNK     1       2.748   2.958  -3.128  1.00  0.00     0.098 A 
HETATM   36  C20 UNK     1       1.879   3.858  -2.512  1.00  0.00     0.040 A 
HETATM   37  C18 UNK     1       1.265   3.521  -1.305  1.00  0.00     0.017 A 
BRANCH  34  38
HETATM   38  O12 UNK     1       3.851   0.834  -3.129  1.00  0.00    -0.358 OA
HETATM   39  H19 UNK     1       3.918   1.028  -4.078  1.00  0.00     0.217 HD
ENDBRANCH  34  38
BRANCH  35  40
HETATM   40  O13 UNK     1       3.340   3.298  -4.306  1.00  0.00    -0.358 OA
HETATM   41  H20 UNK     1       4.145   2.771  -4.433  1.00  0.00     0.217 HD
ENDBRANCH  35  40
ENDBRANCH  10  32
BRANCH  11  42
HETATM   42  O10 UNK     1       2.634   2.849   1.892  1.00  0.00    -0.355 OA
HETATM   43  H17 UNK     1       3.003   3.049   1.017  1.00  0.00     0.218 HD
ENDBRANCH  11  42
TORSDOF 13
