REMARK  3 active torsions:
REMARK  status: ('A' for Active; 'I' for Inactive)
REMARK    1  A    between atoms: C16_20  and  O2_2 
REMARK    2  A    between atoms: C4_8  and  O2_2 
REMARK    3  A    between atoms: C2_6  and  C6_10 
ROOT
HETATM    1  N1  UNK     1       1.689  -0.302  -4.902  1.00  0.00    -0.195 NA
HETATM    2  C16 UNK     1       0.782  -0.647  -2.465  1.00  0.00     0.299 C 
HETATM    3  C17 UNK     1       1.288  -0.454  -3.824  1.00  0.00     0.085 C 
ENDROOT
BRANCH   2   4
HETATM    4  O2  UNK     1      -0.198   0.327  -2.158  1.00  0.00    -0.331 OA
BRANCH   4   5
HETATM    5  C4  UNK     1      -0.663   0.166  -0.871  1.00  0.00     0.155 A 
HETATM    6  C2  UNK     1      -0.106   0.773   0.193  1.00  0.00     0.123 A 
HETATM    7  O1  UNK     1      -0.528   0.608   1.502  1.00  0.00    -0.306 OA
HETATM    8  C3  UNK     1      -1.601  -0.210   1.745  1.00  0.00     0.090 A 
HETATM    9  C1  UNK     1      -2.276  -0.891   0.735  1.00  0.00     0.051 A 
HETATM   10  C8  UNK     1      -2.010  -0.346   3.072  1.00  0.00     0.038 A 
HETATM   11  C5  UNK     1      -1.823  -0.732  -0.656  1.00  0.00     0.221 A 
HETATM   12  C7  UNK     1      -3.364  -1.712   1.042  1.00  0.00     0.018 A 
HETATM   13  O3  UNK     1      -2.372  -1.310  -1.584  1.00  0.00    -0.284 OA
HETATM   14  C11 UNK     1      -3.772  -1.846   2.370  1.00  0.00     0.001 A 
HETATM   15  C12 UNK     1      -3.096  -1.165   3.383  1.00  0.00     0.003 A 
BRANCH   6  16
HETATM   16  C6  UNK     1       1.052   1.676   0.071  1.00  0.00     0.001 A 
HETATM   17  C10 UNK     1       2.347   1.166   0.158  1.00  0.00     0.014 A 
HETATM   18  C14 UNK     1       3.444   2.021   0.043  1.00  0.00     0.001 A 
HETATM   19  C15 UNK     1       3.244   3.387  -0.158  1.00  0.00     0.000 A 
HETATM   20  C13 UNK     1       1.949   3.898  -0.244  1.00  0.00     0.001 A 
HETATM   21  C9  UNK     1       0.853   3.042  -0.130  1.00  0.00     0.014 A 
ENDBRANCH   6  16
ENDBRANCH   4   5
ENDBRANCH   2   4
TORSDOF 3
