REMARK  3 active torsions:
REMARK  status: ('A' for Active; 'I' for Inactive)
REMARK    1  A    between atoms: C8_12  and  O2_2 
REMARK    2  A    between atoms: C9_13  and  O3_3 
REMARK    3  A    between atoms: C3_7  and  C6_10 
ROOT
HETATM    1  O1  UNK     1      -1.067  -0.520  -1.856  1.00  0.00    -0.321 OA
HETATM    2  O4  UNK     1       1.189   1.422   0.933  1.00  0.00    -0.286 OA
HETATM    3  C1  UNK     1      -0.707   0.115   0.457  1.00  0.00     0.052 A 
HETATM    4  C2  UNK     1      -1.433  -0.541  -0.535  1.00  0.00     0.092 A 
HETATM    5  C3  UNK     1       0.854   0.891  -1.370  1.00  0.00     0.048 A 
HETATM    6  C4  UNK     1       0.506   0.865   0.082  1.00  0.00     0.198 A 
HETATM    7  C5  UNK     1      -1.126   0.057   1.789  1.00  0.00     0.058 A 
HETATM    8  C7  UNK     1      -2.582  -1.260  -0.202  1.00  0.00     0.077 A 
HETATM    9  C8  UNK     1      -2.276  -0.661   2.120  1.00  0.00     0.102 A 
HETATM   10  C9  UNK     1      -3.003  -1.318   1.126  1.00  0.00     0.104 A 
HETATM   11  C10 UNK     1       0.050   0.202  -2.195  1.00  0.00     0.159 A 
ENDROOT
BRANCH   5  12
HETATM   12  C6  UNK     1       2.007   1.625  -1.818  1.00  0.00    -0.020 A 
HETATM   13  C11 UNK     1       1.884   2.966  -2.191  1.00  0.00     0.012 A 
HETATM   14  C13 UNK     1       3.003   3.678  -2.625  1.00  0.00     0.001 A 
HETATM   15  C15 UNK     1       4.247   3.051  -2.688  1.00  0.00     0.000 A 
HETATM   16  C14 UNK     1       4.373   1.712  -2.317  1.00  0.00     0.001 A 
HETATM   17  C12 UNK     1       3.255   1.000  -1.883  1.00  0.00     0.012 A 
ENDBRANCH   5  12
BRANCH   9  18
HETATM   18  O2  UNK     1      -2.679  -0.715   3.420  1.00  0.00    -0.353 OA
HETATM   19  C16 UNK     1      -3.575   0.303   3.863  1.00  0.00     0.210 C 
ENDBRANCH   9  18
BRANCH  10  20
HETATM   20  O3  UNK     1      -4.126  -2.021   1.442  1.00  0.00    -0.353 OA
HETATM   21  C17 UNK     1      -3.959  -3.399   1.768  1.00  0.00     0.210 C 
ENDBRANCH  10  20
TORSDOF 3
