REMARK  2 active torsions:
REMARK  status: ('A' for Active; 'I' for Inactive)
REMARK       I    between atoms: C11_18  and  N1_5 
REMARK    1  A    between atoms: C2_9  and  N1_5 
REMARK    2  A    between atoms: C11_18  and  C5_12 
ROOT
HETATM    1  O2  UNK     1       0.520  -0.577   1.316  1.00  0.00    -0.267 OA
HETATM    2  N1  UNK     1      -1.288  -0.299  -0.167  1.00  0.00    -0.323 N 
HETATM    3  C11 UNK     1       0.036  -0.220   0.243  1.00  0.00     0.262 C 
HETATM    4  H5  UNK     1      -1.530   0.063  -1.086  1.00  0.00     0.169 HD
ENDROOT
BRANCH   3   5
HETATM    5  C5  UNK     1       0.901   0.372  -0.784  1.00  0.00     0.108 A 
HETATM    6  C13 UNK     1       0.613   0.230  -2.230  1.00  0.00     0.304 A 
HETATM    7  O1  UNK     1       1.507   0.836  -3.108  1.00  0.00    -0.274 OA
HETATM    8  O3  UNK     1      -0.363  -0.391  -2.638  1.00  0.00    -0.259 OA
HETATM    9  C7  UNK     1       2.631   1.550  -2.648  1.00  0.00     0.089 A 
HETATM   10  C15 UNK     1       3.468   2.123  -3.603  1.00  0.00     0.039 A 
HETATM   11  C4  UNK     1       2.883   1.672  -1.285  1.00  0.00     0.000 A 
HETATM   12  C17 UNK     1       4.588   2.836  -3.179  1.00  0.00     0.022 A 
HETATM   13  C16 UNK     1       4.857   2.969  -1.815  1.00  0.00     0.011 A 
HETATM   14 Br1  UNK     1       6.379   3.937  -1.247  1.00  0.00    -0.051 Br
HETATM   15  C12 UNK     1       4.007   2.389  -0.869  1.00  0.00     0.033 A 
HETATM   16  C8  UNK     1       1.967   1.049  -0.342  1.00  0.00     0.037 A 
ENDBRANCH   3   5
BRANCH   2  17
HETATM   17  C2  UNK     1      -2.389  -0.812   0.560  1.00  0.00     0.037 A 
HETATM   18  C6  UNK     1      -2.169  -1.305   1.840  1.00  0.00     0.061 A 
HETATM   19  C1  UNK     1      -3.288  -1.798   2.513  1.00  0.00     0.064 A 
HETATM   20  N2  UNK     1      -3.434  -2.346   3.759  1.00  0.00    -0.278 N 
HETATM   21  C3  UNK     1      -4.563  -1.807   1.958  1.00  0.00     0.011 A 
HETATM   22  H7  UNK     1      -2.714  -2.501   4.454  1.00  0.00     0.189 HD
HETATM   23  N3  UNK     1      -4.692  -2.709   4.058  1.00  0.00    -0.186 NA
HETATM   24  C14 UNK     1      -5.377  -2.380   2.960  1.00  0.00     0.152 A 
HETATM   25  C10 UNK     1      -4.753  -1.301   0.661  1.00  0.00     0.017 A 
HETATM   26  C9  UNK     1      -3.643  -0.802  -0.031  1.00  0.00     0.030 A 
ENDBRANCH   2  17
TORSDOF 2
