REMARK  6 active torsions:
REMARK  status: ('A' for Active; 'I' for Inactive)
REMARK    1  A    between atoms: C4_8  and  N1_4 
REMARK       I    between atoms: C6_10  and  N1_4 
REMARK    2  A    between atoms: C1_5  and  C2_6 
REMARK    3  A    between atoms: C1_5  and  C3_7 
REMARK    4  A    between atoms: C2_6  and  C4_8 
REMARK    5  A    between atoms: C3_7  and  C5_9 
REMARK    6  A    between atoms: C6_10  and  C9_13 
ROOT
HETATM    1  O2  UNK     1       2.638   0.157   1.758  1.00  0.00    -0.267 OA
HETATM    2  N1  UNK     1       0.485   1.047   1.666  1.00  0.00    -0.357 N 
HETATM    3  C6  UNK     1       1.722   0.707   1.149  1.00  0.00     0.257 C 
HETATM    4  H9  UNK     1      -0.198   1.524   1.086  1.00  0.00     0.162 HD
ENDROOT
BRANCH   3   5
HETATM    5  C9  UNK     1       1.869   1.069  -0.266  1.00  0.00     0.108 A 
HETATM    6  C11 UNK     1       3.108   1.366  -0.675  1.00  0.00     0.037 A 
HETATM    7  C10 UNK     1       3.354   1.738  -2.060  1.00  0.00    -0.001 A 
HETATM    8  C12 UNK     1       2.282   1.779  -2.946  1.00  0.00     0.089 A 
HETATM    9  C17 UNK     1       4.630   2.055  -2.530  1.00  0.00     0.014 A 
HETATM   10  O1  UNK     1       0.980   1.466  -2.509  1.00  0.00    -0.274 OA
HETATM   11  C18 UNK     1       2.450   2.128  -4.284  1.00  0.00     0.038 A 
HETATM   12  C15 UNK     1       0.714   1.106  -1.191  1.00  0.00     0.304 A 
HETATM   13  O3  UNK     1      -0.423   0.836  -0.820  1.00  0.00    -0.259 OA
HETATM   14  C20 UNK     1       3.726   2.443  -4.745  1.00  0.00     0.003 A 
HETATM   15  C19 UNK     1       4.814   2.407  -3.871  1.00  0.00     0.001 A 
ENDBRANCH   3   5
BRANCH   2  16
HETATM   16  C4  UNK     1       0.106   0.788   3.036  1.00  0.00     0.123 C 
BRANCH  16  17
HETATM   17  C2  UNK     1      -0.552  -0.577   3.209  1.00  0.00     0.020 C 
BRANCH  17  18
HETATM   18  C1  UNK     1      -1.841  -0.717   2.394  1.00  0.00     0.006 C 
BRANCH  18  19
HETATM   19  C3  UNK     1      -2.466  -2.102   2.581  1.00  0.00     0.038 C 
BRANCH  19  20
HETATM   20  C5  UNK     1      -3.718  -2.265   1.758  1.00  0.00    -0.058 A 
HETATM   21  C7  UNK     1      -4.944  -1.917   2.306  1.00  0.00     0.007 A 
HETATM   22  C13 UNK     1      -6.103  -2.068   1.545  1.00  0.00     0.001 A 
HETATM   23  C16 UNK     1      -6.023  -2.565   0.244  1.00  0.00     0.000 A 
HETATM   24  C14 UNK     1      -4.784  -2.911  -0.295  1.00  0.00     0.001 A 
HETATM   25  C8  UNK     1      -3.625  -2.760   0.466  1.00  0.00     0.007 A 
ENDBRANCH  19  20
ENDBRANCH  18  19
ENDBRANCH  17  18
ENDBRANCH  16  17
ENDBRANCH   2  16
TORSDOF 6
