REMARK  3 active torsions:
REMARK  status: ('A' for Active; 'I' for Inactive)
REMARK    1  A    between atoms: N1_5  and  N2_6 
REMARK       I    between atoms: C12_19  and  N2_6 
REMARK    2  A    between atoms: C10_17  and  C4_11 
REMARK    3  A    between atoms: C11_18  and  C12_19 
ROOT
HETATM    1 Cl1  UNK     1      -6.511  -2.790   0.515  1.00  0.00    -0.084 Cl
HETATM    2  O1  UNK     1      -1.594  -1.156   3.301  1.00  0.00    -0.321 OA
HETATM    3  O2  UNK     1      -1.820  -0.502  -0.723  1.00  0.00    -0.286 OA
HETATM    4  C1  UNK     1      -2.860  -1.324   1.232  1.00  0.00     0.050 A 
HETATM    5  C2  UNK     1      -2.722  -1.521   2.607  1.00  0.00     0.089 A 
HETATM    6  C3  UNK     1      -1.754  -0.699   0.482  1.00  0.00     0.198 A 
HETATM    7  C4  UNK     1      -0.563  -0.326   1.277  1.00  0.00     0.056 A 
HETATM    8  C5  UNK     1      -4.031  -1.715   0.579  1.00  0.00     0.042 A 
HETATM    9  C6  UNK     1      -3.755  -2.110   3.336  1.00  0.00     0.040 A 
HETATM   10  C7  UNK     1      -0.570  -0.575   2.591  1.00  0.00     0.159 A 
HETATM   11  C8  UNK     1      -5.063  -2.304   1.310  1.00  0.00     0.035 A 
HETATM   12  C9  UNK     1      -4.926  -2.501   2.685  1.00  0.00     0.026 A 
ENDROOT
BRANCH   7  13
HETATM   13  C10 UNK     1       0.628   0.302   0.704  1.00  0.00     0.156 C 
HETATM   14  N1  UNK     1       0.729   0.582  -0.555  1.00  0.00    -0.183 NA
BRANCH  14  15
HETATM   15  N2  UNK     1       1.904   1.159  -0.899  1.00  0.00    -0.243 N 
HETATM   16  C12 UNK     1       2.124   1.466  -2.229  1.00  0.00     0.271 C 
HETATM   17  O3  UNK     1       1.327   1.254  -3.140  1.00  0.00    -0.266 OA
HETATM   18  H6  UNK     1       2.592   1.290  -0.166  1.00  0.00     0.192 HD
BRANCH  16  19
HETATM   19  C11 UNK     1       3.442   2.078  -2.542  1.00  0.00     0.036 A 
HETATM   20  C13 UNK     1       3.974   1.906  -3.798  1.00  0.00     0.036 A 
HETATM   21  C15 UNK     1       5.205   2.496  -4.040  1.00  0.00     0.117 A 
HETATM   22  N3  UNK     1       5.892   3.215  -3.124  1.00  0.00    -0.273 NA
HETATM   23  C16 UNK     1       5.315   3.347  -1.909  1.00  0.00     0.117 A 
HETATM   24  C14 UNK     1       4.090   2.798  -1.567  1.00  0.00     0.036 A 
ENDBRANCH  16  19
ENDBRANCH  14  15
ENDBRANCH   7  13
TORSDOF 3
