REMARK  4 active torsions:
REMARK  status: ('A' for Active; 'I' for Inactive)
REMARK    1  A    between atoms: C13_17  and  O2_2 
REMARK    2  A    between atoms: C17_21  and  O2_2 
REMARK    3  A    between atoms: C3_7  and  C8_12 
REMARK    4  A    between atoms: C13_17  and  C9_13 
ROOT
HETATM    1  O1  UNK     1       0.345   1.983   2.439  1.00  0.00    -0.287 OA
HETATM    2  N1  UNK     1      -1.394  -0.648  -0.095  1.00  0.00    -0.355 N 
HETATM    3  C1  UNK     1      -0.308   0.097  -0.571  1.00  0.00     0.046 A 
HETATM    4  C2  UNK     1       0.330   1.024   0.271  1.00  0.00     0.042 A 
HETATM    5  C3  UNK     1      -1.864  -0.504   1.191  1.00  0.00     0.046 A 
HETATM    6  C4  UNK     1      -0.170   1.191   1.660  1.00  0.00     0.186 A 
HETATM    7  C5  UNK     1       1.414   1.778  -0.185  1.00  0.00     0.035 A 
HETATM    8  C6  UNK     1      -1.330   0.356   2.077  1.00  0.00     0.086 A 
HETATM    9  C7  UNK     1       0.158  -0.061  -1.880  1.00  0.00     0.031 A 
HETATM   10  C9  UNK     1       1.867   1.608  -1.493  1.00  0.00     0.040 A 
HETATM   11  C10 UNK     1       1.241   0.691  -2.338  1.00  0.00     0.020 A 
HETATM   12  H1  UNK     1      -1.848  -1.312  -0.709  1.00  0.00     0.166 HD
ENDROOT
BRANCH   5  13
HETATM   13  C8  UNK     1      -3.022  -1.333   1.585  1.00  0.00    -0.009 A 
HETATM   14  C11 UNK     1      -4.320  -0.861   1.386  1.00  0.00     0.013 A 
HETATM   15  C14 UNK     1      -5.413  -1.643   1.759  1.00  0.00     0.001 A 
HETATM   16  C16 UNK     1      -5.209  -2.899   2.331  1.00  0.00     0.000 A 
HETATM   17  C15 UNK     1      -3.912  -3.372   2.530  1.00  0.00     0.001 A 
HETATM   18  C12 UNK     1      -2.819  -2.589   2.158  1.00  0.00     0.013 A 
ENDBRANCH   5  13
BRANCH  10  19
HETATM   19  C13 UNK     1       2.995   2.388  -1.978  1.00  0.00     0.293 C 
HETATM   20  O3  UNK     1       3.595   3.214  -1.288  1.00  0.00    -0.259 OA
BRANCH  19  21
HETATM   21  O2  UNK     1       3.327   2.115  -3.282  1.00  0.00    -0.318 OA
BRANCH  21  22
HETATM   22  C17 UNK     1       4.431   2.849  -3.824  1.00  0.00     0.174 C 
HETATM   23  C18 UNK     1       4.651   2.420  -5.259  1.00  0.00     0.034 C 
ENDBRANCH  21  22
ENDBRANCH  19  21
ENDBRANCH  10  19
TORSDOF 4
