REMARK  3 active torsions:
REMARK  status: ('A' for Active; 'I' for Inactive)
REMARK    1  A    between atoms: C1_8  and  N1_5 
REMARK       I    between atoms: C5_12  and  N1_5 
REMARK    2  A    between atoms: C1_8  and  C2_9 
REMARK    3  A    between atoms: C5_12  and  C6_13 
ROOT
HETATM    1 Br1  UNK     1       2.181   2.044  -5.812  1.00  0.00    -0.051 Br
HETATM    2  O1  UNK     1       3.180   1.642   0.158  1.00  0.00    -0.274 OA
HETATM    3  O3  UNK     1       2.605   0.833   2.216  1.00  0.00    -0.259 OA
HETATM    4  C6  UNK     1       1.235   0.178   0.397  1.00  0.00     0.108 A 
HETATM    5  C8  UNK     1       1.848   1.038  -1.784  1.00  0.00     0.000 A 
HETATM    6  C9  UNK     1       0.988   0.247  -0.917  1.00  0.00     0.037 A 
HETATM    7  C11 UNK     1       2.925   1.718  -1.225  1.00  0.00     0.089 A 
HETATM    8  C12 UNK     1       2.376   0.894   1.013  1.00  0.00     0.304 A 
HETATM    9  C14 UNK     1       1.628   1.138  -3.160  1.00  0.00     0.033 A 
HETATM   10  C15 UNK     1       3.786   2.492  -2.001  1.00  0.00     0.039 A 
HETATM   11  C16 UNK     1       2.483   1.911  -3.951  1.00  0.00     0.011 A 
HETATM   12  C17 UNK     1       3.560   2.586  -3.372  1.00  0.00     0.022 A 
ENDROOT
BRANCH   4  13
HETATM   13  C5  UNK     1       0.313  -0.644   1.189  1.00  0.00     0.259 C 
HETATM   14  O2  UNK     1       0.585  -1.839   1.350  1.00  0.00    -0.267 OA
HETATM   15  N1  UNK     1      -0.816  -0.017   1.726  1.00  0.00    -0.348 N 
HETATM   16  C7  UNK     1      -1.097   1.400   1.508  1.00  0.00     0.153 C 
BRANCH  15  17
HETATM   17  C1  UNK     1      -1.789  -0.734   2.539  1.00  0.00     0.167 C 
BRANCH  17  18
HETATM   18  C2  UNK     1      -2.857  -1.305   1.656  1.00  0.00     0.003 A 
HETATM   19  C3  UNK     1      -4.049  -0.697   1.272  1.00  0.00     0.060 A 
HETATM   20  C10 UNK     1      -4.556   0.640   1.629  1.00  0.00     0.073 C 
HETATM   21  N3  UNK     1      -4.777  -1.486   0.477  1.00  0.00    -0.178 NA
HETATM   22  N2  UNK     1      -4.022  -2.593   0.372  1.00  0.00    -0.284 N 
HETATM   23  C13 UNK     1      -4.482  -3.703  -0.428  1.00  0.00     0.179 C 
HETATM   24  C4  UNK     1      -2.850  -2.529   1.068  1.00  0.00     0.122 A 
ENDBRANCH  17  18
ENDBRANCH  15  17
ENDBRANCH   4  13
TORSDOF 3
