REMARK  4 active torsions:
REMARK  status: ('A' for Active; 'I' for Inactive)
REMARK    1  A    between atoms: C7_13  and  O2_2 
REMARK    2  A    between atoms: C11_17  and  O3_3 
REMARK    3  A    between atoms: C3_9  and  N1_6 
REMARK       I    between atoms: C6_12  and  N1_6 
REMARK    4  A    between atoms: C2_8  and  C6_12 
ROOT
HETATM    1  O4  UNK     1       0.320   0.676   1.707  1.00  0.00    -0.267 OA
HETATM    2  N1  UNK     1      -0.886  -0.364  -0.027  1.00  0.00    -0.320 N 
HETATM    3  C6  UNK     1       0.129   0.405   0.523  1.00  0.00     0.262 C 
HETATM    4  H2  UNK     1      -0.890  -0.516  -1.033  1.00  0.00     0.169 HD
ENDROOT
BRANCH   3   5
HETATM    5  C2  UNK     1       1.048   0.922  -0.499  1.00  0.00     0.108 A 
HETATM    6  C10 UNK     1       0.602   1.217  -1.879  1.00  0.00     0.304 A 
HETATM    7  O1  UNK     1       1.567   1.703  -2.757  1.00  0.00    -0.274 OA
HETATM    8  O5  UNK     1      -0.558   1.044  -2.236  1.00  0.00    -0.259 OA
HETATM    9  C4  UNK     1       2.902   1.905  -2.357  1.00  0.00     0.089 A 
HETATM   10  C1  UNK     1       3.300   1.621  -1.055  1.00  0.00    -0.001 A 
HETATM   11  C12 UNK     1       3.795   2.396  -3.307  1.00  0.00     0.038 A 
HETATM   12  C5  UNK     1       2.315   1.112  -0.113  1.00  0.00     0.037 A 
HETATM   13  C9  UNK     1       4.633   1.835  -0.696  1.00  0.00     0.014 A 
HETATM   14  C15 UNK     1       5.541   2.327  -1.638  1.00  0.00     0.001 A 
HETATM   15  C16 UNK     1       5.122   2.607  -2.941  1.00  0.00     0.003 A 
ENDBRANCH   3   5
BRANCH   2  16
HETATM   16  C3  UNK     1      -1.942  -1.017   0.655  1.00  0.00     0.071 A 
HETATM   17  C7  UNK     1      -2.877  -1.751  -0.056  1.00  0.00     0.095 A 
HETATM   18  C13 UNK     1      -3.910  -2.389   0.630  1.00  0.00     0.042 A 
HETATM   19  C14 UNK     1      -3.994  -2.284   2.018  1.00  0.00     0.039 A 
HETATM   20  C11 UNK     1      -3.045  -1.542   2.720  1.00  0.00     0.070 A 
HETATM   21  C8  UNK     1      -2.012  -0.904   2.035  1.00  0.00     0.069 A 
BRANCH  17  22
HETATM   22  O2  UNK     1      -2.812  -1.865  -1.413  1.00  0.00    -0.354 OA
HETATM   23  C17 UNK     1      -3.504  -0.881  -2.179  1.00  0.00     0.210 C 
ENDBRANCH  17  22
BRANCH  20  24
HETATM   24  O3  UNK     1      -3.128  -1.440   4.075  1.00  0.00    -0.356 OA
HETATM   25  C18 UNK     1      -4.209  -2.118   4.713  1.00  0.00     0.210 C 
ENDBRANCH  20  24
ENDBRANCH   2  16
TORSDOF 4
