REMARK  8 active torsions:
REMARK  status: ('A' for Active; 'I' for Inactive)
REMARK    1  A    between atoms: C12_24  and  O3_4 
REMARK    2  A    between atoms: C20_32  and  O3_4 
REMARK    3  A    between atoms: C14_26  and  O4_5 
REMARK    4  A    between atoms: C21_33  and  O4_5 
REMARK    5  A    between atoms: C7_19  and  N1_10 
REMARK    6  A    between atoms: C13_25  and  N2_11 
REMARK    7  A    between atoms: C1_13  and  C3_15 
REMARK    8  A    between atoms: C21_33  and  C23_35 
ROOT
HETATM    1  O1  UNK     1      -3.392  -0.265   2.361  1.00  0.00    -0.291 OA
HETATM    2  O2  UNK     1      -2.414  -3.254  -0.398  1.00  0.00    -0.274 OA
HETATM    3  O5  UNK     1      -0.221  -3.098   0.205  1.00  0.00    -0.259 OA
HETATM    4  N3  UNK     1       0.520   0.880   4.929  1.00  0.00    -0.191 NA
HETATM    5  C1  UNK     1      -0.617  -0.942   2.071  1.00  0.00     0.109 C 
HETATM    6  C2  UNK     1      -1.728  -1.608   1.282  1.00  0.00     0.066 A 
HETATM    7  C4  UNK     1      -3.006  -1.238   1.456  1.00  0.00     0.104 A 
HETATM    8  C5  UNK     1      -1.156  -0.043   3.180  1.00  0.00     0.086 C 
HETATM    9  C6  UNK     1      -4.082  -1.851   0.682  1.00  0.00     0.033 A 
HETATM   10  C7  UNK     1      -2.472   0.254   3.271  1.00  0.00     0.159 C 
HETATM   11  C8  UNK     1      -1.373  -2.699   0.338  1.00  0.00     0.298 A 
HETATM   12  C11 UNK     1      -3.751  -2.845  -0.234  1.00  0.00     0.092 A 
HETATM   13  C15 UNK     1      -5.429  -1.490   0.806  1.00  0.00     0.017 A 
HETATM   14  C16 UNK     1      -4.712  -3.480  -1.020  1.00  0.00     0.038 A 
HETATM   15  C17 UNK     1      -0.230   0.467   4.146  1.00  0.00     0.100 C 
HETATM   16  C18 UNK     1      -6.406  -2.118   0.026  1.00  0.00     0.001 A 
HETATM   17  C19 UNK     1      -6.048  -3.111  -0.886  1.00  0.00     0.003 A 
ENDROOT
BRANCH   5  18
HETATM   18  C3  UNK     1       0.277  -0.154   1.157  1.00  0.00    -0.039 A 
HETATM   19  C10 UNK     1       1.618  -0.498   1.042  1.00  0.00     0.047 A 
HETATM   20  C13 UNK     1       2.448   0.235   0.193  1.00  0.00     0.140 A 
HETATM   21  C14 UNK     1       1.930   1.306  -0.535  1.00  0.00     0.145 A 
HETATM   22  C12 UNK     1       0.582   1.645  -0.413  1.00  0.00     0.105 A 
HETATM   23  C9  UNK     1      -0.247   0.912   0.436  1.00  0.00     0.048 A 
BRANCH  20  24
HETATM   24  N2  UNK     1       3.819  -0.126   0.083  1.00  0.00    -0.113 N 
HETATM   25  O6  UNK     1       4.247  -1.095   0.753  1.00  0.00    -0.532 OA
HETATM   26  O7  UNK     1       4.560   0.536  -0.682  1.00  0.00    -0.532 OA
ENDBRANCH  20  24
BRANCH  21  27
HETATM   27  O4  UNK     1       2.732   2.030  -1.368  1.00  0.00    -0.269 OA
BRANCH  27  28
HETATM   28  C21 UNK     1       2.797   1.555  -2.693  1.00  0.00     0.305 C 
HETATM   29  O8  UNK     1       2.184   0.566  -3.085  1.00  0.00    -0.258 OA
BRANCH  28  30
HETATM   30  C23 UNK     1       3.675   2.381  -3.524  1.00  0.00     0.080 A 
HETATM   31  S1  UNK     1       3.867   1.951  -5.152  1.00  0.00    -0.096 SA
HETATM   32  C26 UNK     1       4.928   3.272  -5.398  1.00  0.00     0.050 A 
HETATM   33  C25 UNK     1       5.114   4.007  -4.248  1.00  0.00     0.009 A 
HETATM   34  C24 UNK     1       4.375   3.479  -3.150  1.00  0.00     0.025 A 
ENDBRANCH  28  30
ENDBRANCH  27  28
ENDBRANCH  21  27
BRANCH  22  35
HETATM   35  O3  UNK     1       0.063   2.689  -1.118  1.00  0.00    -0.349 OA
BRANCH  35  36
HETATM   36  C20 UNK     1      -1.000   2.395  -2.023  1.00  0.00     0.171 C 
HETATM   37  C22 UNK     1      -0.960   3.383  -3.169  1.00  0.00     0.034 C 
ENDBRANCH  35  36
ENDBRANCH  22  35
ENDBRANCH   5  18
BRANCH  10  38
HETATM   38  N1  UNK     1      -3.034   1.061   4.221  1.00  0.00    -0.379 N 
HETATM   39  H6  UNK     1      -4.034   1.218   4.198  1.00  0.00     0.158 HD
HETATM   40  H7  UNK     1      -2.467   1.498   4.936  1.00  0.00     0.158 HD
ENDBRANCH  10  38
TORSDOF 8
