REMARK  1 active torsions:
REMARK  status: ('A' for Active; 'I' for Inactive)
REMARK    1  A    between atoms: C3_9  and  C8_14 
ROOT
HETATM    1 Cl4  UNK     1      -4.048  -1.988   2.117  1.00  0.00    -0.084 Cl
HETATM    2  O1  UNK     1       0.966   0.552   0.383  1.00  0.00    -0.309 OA
HETATM    3  O2  UNK     1      -1.770  -0.398  -2.483  1.00  0.00    -0.287 OA
HETATM    4  C1  UNK     1      -1.198  -0.394  -0.189  1.00  0.00     0.050 A 
HETATM    5  C2  UNK     1      -0.219  -0.042   0.739  1.00  0.00     0.090 A 
HETATM    6  C3  UNK     1       1.195   0.813  -0.958  1.00  0.00     0.111 A 
HETATM    7  C4  UNK     1      -0.956  -0.118  -1.614  1.00  0.00     0.187 A 
HETATM    8  C5  UNK     1       0.332   0.523  -1.942  1.00  0.00     0.093 A 
HETATM    9  C6  UNK     1      -2.386  -0.996   0.230  1.00  0.00     0.042 A 
HETATM   10  C7  UNK     1      -0.424  -0.292   2.096  1.00  0.00     0.040 A 
HETATM   11  C9  UNK     1      -2.588  -1.245   1.588  1.00  0.00     0.035 A 
HETATM   12  C10 UNK     1      -1.609  -0.894   2.519  1.00  0.00     0.026 A 
ENDROOT
BRANCH   6  13
HETATM   13  C8  UNK     1       2.518   1.462  -1.222  1.00  0.00     0.237 C 
HETATM   14 Cl1  UNK     1       2.238   3.040  -1.996  1.00  0.00    -0.076 Cl
HETATM   15 Cl2  UNK     1       3.390   1.693   0.313  1.00  0.00    -0.076 Cl
HETATM   16 Cl3  UNK     1       3.488   0.428  -2.299  1.00  0.00    -0.076 Cl
ENDBRANCH   6  13
TORSDOF 1
