REMARK  3 active torsions:
REMARK  status: ('A' for Active; 'I' for Inactive)
REMARK    1  A    between atoms: C11_16  and  O2_2 
REMARK    2  A    between atoms: C5_10  and  O2_2 
REMARK    3  A    between atoms: C10_15  and  C8_13 
ROOT
HETATM    1  O1  UNK     1       2.345   0.850   0.845  1.00  0.00    -0.321 OA
HETATM    2  O3  UNK     1       0.221   0.922  -2.641  1.00  0.00    -0.286 OA
HETATM    3  C1  UNK     1       0.232   0.527  -0.313  1.00  0.00     0.051 A 
HETATM    4  C2  UNK     1       1.012   0.520   0.845  1.00  0.00     0.089 A 
HETATM    5  C3  UNK     1      -1.120   0.181  -0.253  1.00  0.00     0.055 A 
HETATM    6  C4  UNK     1       0.856   0.902  -1.596  1.00  0.00     0.200 A 
HETATM    7  C5  UNK     1      -1.687  -0.171   0.972  1.00  0.00     0.080 A 
HETATM    8  C6  UNK     1       0.442   0.167   2.068  1.00  0.00     0.041 A 
HETATM    9  C7  UNK     1      -0.908  -0.178   2.130  1.00  0.00     0.040 A 
HETATM   10  C8  UNK     1       2.292   1.251  -1.539  1.00  0.00     0.075 A 
HETATM   11  C9  UNK     1       2.914   1.201  -0.357  1.00  0.00     0.161 A 
ENDROOT
BRANCH   7  12
HETATM   12  O2  UNK     1      -3.005  -0.508   1.040  1.00  0.00    -0.279 OA
BRANCH  12  13
HETATM   13  C11 UNK     1      -3.256  -1.877   0.856  1.00  0.00     0.260 C 
HETATM   14  O5  UNK     1      -2.412  -2.739   0.650  1.00  0.00    -0.265 OA
HETATM   15  C12 UNK     1      -4.729  -2.145   0.948  1.00  0.00     0.126 C 
ENDBRANCH  12  13
ENDBRANCH   7  12
BRANCH  10  16
HETATM   16  C10 UNK     1       3.075   1.650  -2.709  1.00  0.00     0.276 C 
HETATM   17  O4  UNK     1       2.592   1.724  -3.834  1.00  0.00    -0.301 OA
ENDBRANCH  10  16
TORSDOF 3
