REMARK  5 active torsions:
REMARK  status: ('A' for Active; 'I' for Inactive)
REMARK    1  A    between atoms: C20_25  and  O2_2 
REMARK    2  A    between atoms: C5_10  and  N1_4 
REMARK    3  A    between atoms: C6_11  and  N2_5 
REMARK    4  A    between atoms: C5_10  and  C7_12 
REMARK    5  A    between atoms: C6_11  and  C8_13 
ROOT
HETATM    1  N1  UNK     1       0.186  -0.290   0.316  1.00  0.00     0.096 N 
HETATM    2  N2  UNK     1       2.093   1.693  -0.574  1.00  0.00     0.096 N 
HETATM    3  C1  UNK     1       0.876  -0.421  -0.973  1.00  0.00     0.303 C 
HETATM    4  C2  UNK     1       1.022   0.446   1.272  1.00  0.00     0.303 C 
HETATM    5  C3  UNK     1       1.258   0.956  -1.530  1.00  0.00     0.303 C 
HETATM    6  C4  UNK     1       1.404   1.822   0.716  1.00  0.00     0.303 C 
ENDROOT
BRANCH   1   7
HETATM    7  C5  UNK     1      -0.176  -1.603   0.846  1.00  0.00     0.312 C 
BRANCH   7   8
HETATM    8  C7  UNK     1      -1.307  -1.526   1.812  1.00  0.00    -0.011 A 
HETATM    9  C10 UNK     1      -1.087  -1.348   3.123  1.00  0.00     0.092 A 
HETATM   10  C15 UNK     1      -2.172  -1.267   4.115  1.00  0.00     0.288 A 
HETATM   11  O1  UNK     1      -3.467  -1.383   3.634  1.00  0.00    -0.275 OA
HETATM   12  O3  UNK     1      -1.933  -1.104   5.307  1.00  0.00    -0.260 OA
HETATM   13  C13 UNK     1      -3.729  -1.570   2.262  1.00  0.00     0.090 A 
HETATM   14  C9  UNK     1      -2.690  -1.646   1.333  1.00  0.00     0.009 A 
HETATM   15  C19 UNK     1      -5.071  -1.674   1.891  1.00  0.00     0.041 A 
HETATM   16  C14 UNK     1      -3.035  -1.834  -0.013  1.00  0.00     0.051 A 
HETATM   17  C20 UNK     1      -4.375  -1.940  -0.400  1.00  0.00     0.069 A 
HETATM   18  C21 UNK     1      -5.392  -1.861   0.551  1.00  0.00     0.039 A 
BRANCH  17  19
HETATM   19  O2  UNK     1      -4.688  -2.123  -1.713  1.00  0.00    -0.356 OA
HETATM   20  C23 UNK     1      -6.072  -2.224  -2.041  1.00  0.00     0.210 C 
ENDBRANCH  17  19
ENDBRANCH   7   8
ENDBRANCH   1   7
BRANCH   2  21
HETATM   21  C6  UNK     1       2.453   3.006  -1.104  1.00  0.00     0.311 C 
BRANCH  21  22
HETATM   22  C8  UNK     1       3.548   2.914  -2.134  1.00  0.00    -0.030 A 
HETATM   23  C11 UNK     1       4.663   2.111  -1.897  1.00  0.00     0.009 A 
HETATM   24  C16 UNK     1       5.678   2.027  -2.850  1.00  0.00     0.007 A 
HETATM   25  C18 UNK     1       5.576   2.746  -4.042  1.00  0.00    -0.062 A 
HETATM   26  C17 UNK     1       4.461   3.549  -4.279  1.00  0.00     0.007 A 
HETATM   27  C22 UNK     1       6.661   2.656  -5.062  1.00  0.00     0.048 C 
HETATM   28  C12 UNK     1       3.446   3.633  -3.325  1.00  0.00     0.009 A 
ENDBRANCH  21  22
ENDBRANCH   2  21
TORSDOF 5
