REMARK  6 active torsions:
REMARK  status: ('A' for Active; 'I' for Inactive)
REMARK    1  A    between atoms: C2_7  and  O1_3 
REMARK    2  A    between atoms: C5_10  and  O1_3 
REMARK    3  A    between atoms: C3_8  and  O2_4 
REMARK    4  A    between atoms: C1_6  and  C9_14 
REMARK    5  A    between atoms: C5_10  and  C8_13 
REMARK    6  A    between atoms: C10_15  and  C11_16 
ROOT
HETATM    1  N1  UNK     1      -2.839   1.610   0.954  1.00  0.00    -0.191 NA
HETATM    2  C9  UNK     1      -1.421  -1.530   1.075  1.00  0.00     0.036 C 
HETATM    3  C10 UNK     1      -2.577  -0.926   1.460  1.00  0.00     0.055 C 
HETATM    4  C23 UNK     1      -2.713   0.478   1.176  1.00  0.00     0.100 C 
ENDROOT
BRANCH   3   5
HETATM    5  C11 UNK     1      -3.669  -1.618   2.127  1.00  0.00    -0.014 A 
HETATM    6  C14 UNK     1      -4.681  -2.215   1.375  1.00  0.00     0.032 A 
HETATM    7  C19 UNK     1      -5.727  -2.878   2.016  1.00  0.00     0.011 A 
HETATM    8 Br2  UNK     1      -7.098  -3.688   0.998  1.00  0.00    -0.051 Br
HETATM    9  C21 UNK     1      -5.761  -2.945   3.409  1.00  0.00     0.019 A 
HETATM   10  C20 UNK     1      -4.750  -2.348   4.161  1.00  0.00     0.002 A 
HETATM   11  C15 UNK     1      -3.703  -1.685   3.520  1.00  0.00     0.013 A 
ENDBRANCH   3   5
BRANCH   2  12
HETATM   12  C1  UNK     1      -0.296  -0.873   0.394  1.00  0.00    -0.015 A 
HETATM   13  C4  UNK     1      -0.312  -0.870  -0.996  1.00  0.00     0.052 A 
HETATM   14  C3  UNK     1       0.730  -0.261  -1.694  1.00  0.00     0.102 A 
HETATM   15  C2  UNK     1       1.779   0.340  -0.999  1.00  0.00     0.103 A 
HETATM   16  C7  UNK     1       1.786   0.332   0.396  1.00  0.00     0.059 A 
HETATM   17  C6  UNK     1       0.744  -0.278   1.095  1.00  0.00     0.024 A 
HETATM   18 Br1  UNK     1       0.815  -0.253   2.994  1.00  0.00    -0.050 Br
BRANCH  14  19
HETATM   19  O2  UNK     1       0.712  -0.259  -3.057  1.00  0.00    -0.353 OA
HETATM   20  C22 UNK     1       0.067   0.841  -3.695  1.00  0.00     0.210 C 
ENDBRANCH  14  19
BRANCH  15  21
HETATM   21  O1  UNK     1       2.801   0.939  -1.670  1.00  0.00    -0.344 OA
BRANCH  21  22
HETATM   22  C5  UNK     1       3.009   2.329  -1.429  1.00  0.00     0.214 C 
BRANCH  22  23
HETATM   23  C8  UNK     1       4.151   2.808  -2.277  1.00  0.00    -0.034 A 
HETATM   24  C12 UNK     1       5.448   2.758  -1.778  1.00  0.00     0.009 A 
HETATM   25  C16 UNK     1       6.509   3.203  -2.567  1.00  0.00     0.001 A 
HETATM   26  C18 UNK     1       6.266   3.696  -3.849  1.00  0.00     0.000 A 
HETATM   27  C17 UNK     1       4.962   3.743  -4.343  1.00  0.00     0.001 A 
HETATM   28  C13 UNK     1       3.901   3.298  -3.554  1.00  0.00     0.009 A 
ENDBRANCH  22  23
ENDBRANCH  21  22
ENDBRANCH  15  21
ENDBRANCH   2  12
TORSDOF 6
