REMARK  6 active torsions:
REMARK  status: ('A' for Active; 'I' for Inactive)
REMARK    1  A    between atoms: C14_19  and  O4_4 
REMARK    2  A    between atoms: C12_17  and  N1_5 
REMARK       I    between atoms: C9_14  and  N1_5 
REMARK    3  A    between atoms: C1_6  and  C2_7 
REMARK    4  A    between atoms: C2_7  and  C5_10 
REMARK    5  A    between atoms: C5_10  and  C9_14 
REMARK    6  A    between atoms: C12_17  and  C15_20 
ROOT
HETATM    1  O1  UNK     1       3.414   2.099  -0.310  1.00  0.00    -0.274 OA
HETATM    2  O2  UNK     1       2.710   1.266   1.681  1.00  0.00    -0.259 OA
HETATM    3  C1  UNK     1       1.683   0.355  -0.266  1.00  0.00     0.025 A 
HETATM    4  C3  UNK     1       1.577   0.383  -1.611  1.00  0.00    -0.037 A 
HETATM    5  C4  UNK     1       2.451   1.284  -2.390  1.00  0.00     0.005 A 
HETATM    6  C6  UNK     1       3.339   2.113  -1.711  1.00  0.00     0.092 A 
HETATM    7  C7  UNK     1       2.628   1.255   0.456  1.00  0.00     0.295 A 
HETATM    8  C8  UNK     1       0.592  -0.453  -2.391  1.00  0.00     0.050 C 
HETATM    9  C10 UNK     1       2.455   1.356  -3.792  1.00  0.00     0.017 A 
HETATM   10  C11 UNK     1       4.200   2.994  -2.370  1.00  0.00     0.074 A 
HETATM   11  C13 UNK     1       3.311   2.233  -4.470  1.00  0.00     0.037 A 
HETATM   12  C14 UNK     1       4.182   3.053  -3.758  1.00  0.00     0.068 A 
ENDROOT
BRANCH   3  13
HETATM   13  C2  UNK     1       0.900  -0.560   0.642  1.00  0.00     0.055 C 
BRANCH  13  14
HETATM   14  C5  UNK     1      -0.416   0.057   1.091  1.00  0.00     0.107 C 
BRANCH  14  15
HETATM   15  C9  UNK     1      -1.245  -0.846   1.992  1.00  0.00     0.218 C 
HETATM   16  O3  UNK     1      -0.896  -1.977   2.320  1.00  0.00    -0.274 OA
HETATM   17  N1  UNK     1      -2.432  -0.236   2.372  1.00  0.00    -0.357 N 
HETATM   18  H12 UNK     1      -2.643   0.698   2.033  1.00  0.00     0.162 HD
BRANCH  17  19
HETATM   19  C12 UNK     1      -3.407  -0.887   3.216  1.00  0.00     0.161 C 
BRANCH  19  20
HETATM   20  C15 UNK     1      -4.383  -1.641   2.366  1.00  0.00    -0.041 A 
HETATM   21  C16 UNK     1      -5.538  -1.010   1.915  1.00  0.00     0.009 A 
HETATM   22  C18 UNK     1      -6.447  -1.712   1.124  1.00  0.00     0.001 A 
HETATM   23  C20 UNK     1      -6.197  -3.043   0.788  1.00  0.00     0.000 A 
HETATM   24  C19 UNK     1      -5.037  -3.671   1.243  1.00  0.00     0.001 A 
HETATM   25  C17 UNK     1      -4.128  -2.968   2.034  1.00  0.00     0.009 A 
ENDBRANCH  19  20
ENDBRANCH  17  19
ENDBRANCH  14  15
ENDBRANCH  13  14
ENDBRANCH   3  13
BRANCH  12  26
HETATM   26  O4  UNK     1       5.013   3.903  -4.419  1.00  0.00    -0.361 OA
HETATM   27  H19 UNK     1       4.864   3.809  -5.376  1.00  0.00     0.217 HD
ENDBRANCH  12  26
TORSDOF 6
