REMARK  3 active torsions:
REMARK  status: ('A' for Active; 'I' for Inactive)
REMARK    1  A    between atoms: C21_27  and  O4_4 
REMARK    2  A    between atoms: C1_7  and  C8_14 
REMARK    3  A    between atoms: C6_12  and  C9_15 
ROOT
HETATM    1  O1  UNK     1      -2.313   2.307  -0.851  1.00  0.00    -0.293 OA
HETATM    2  N1  UNK     1       0.996  -0.555   1.175  1.00  0.00    -0.357 N 
HETATM    3  N2  UNK     1       1.392   2.386   0.698  1.00  0.00    -0.375 N 
HETATM    4  C1  UNK     1      -2.723  -0.465   1.406  1.00  0.00     0.031 C 
HETATM    5  C2  UNK     1      -1.348  -1.115   1.236  1.00  0.00     0.067 C 
HETATM    6  C3  UNK     1      -0.576   1.012   0.158  1.00  0.00     0.037 C 
HETATM    7  C4  UNK     1      -3.081   0.287   0.132  1.00  0.00     0.093 C 
HETATM    8  C5  UNK     1      -0.269  -0.125   0.820  1.00  0.00     0.022 C 
HETATM    9  C6  UNK     1       0.439   2.013  -0.334  1.00  0.00     0.160 C 
HETATM   10  C7  UNK     1      -2.011   1.296  -0.215  1.00  0.00     0.160 C 
HETATM   11  C10 UNK     1       2.193   0.154   1.397  1.00  0.00     0.059 A 
HETATM   12  C11 UNK     1       2.351   1.541   1.237  1.00  0.00     0.055 A 
HETATM   13  C16 UNK     1       3.291  -0.601   1.874  1.00  0.00     0.032 A 
HETATM   14  C17 UNK     1       3.585   2.125   1.604  1.00  0.00     0.031 A 
HETATM   15  C22 UNK     1       4.504  -0.005   2.212  1.00  0.00     0.002 A 
HETATM   16  C23 UNK     1       4.649   1.365   2.086  1.00  0.00     0.002 A 
HETATM   17  H7  UNK     1       1.045  -1.538   1.426  1.00  0.00     0.166 HD
HETATM   18  H8  UNK     1       1.563   3.382   0.803  1.00  0.00     0.160 HD
ENDROOT
BRANCH   9  19
HETATM   19  C9  UNK     1       1.144   1.568  -1.581  1.00  0.00     0.042 A 
HETATM   20  C14 UNK     1       2.165   2.467  -2.177  1.00  0.00     0.195 A 
HETATM   21  O3  UNK     1       2.445   3.551  -1.683  1.00  0.00    -0.287 OA
HETATM   22  C18 UNK     1       2.828   1.982  -3.401  1.00  0.00     0.048 A 
HETATM   23  C24 UNK     1       2.470   0.737  -3.919  1.00  0.00     0.089 A 
HETATM   24  C25 UNK     1       3.803   2.754  -4.038  1.00  0.00     0.018 A 
HETATM   25  O2  UNK     1       1.520  -0.063  -3.336  1.00  0.00    -0.321 OA
HETATM   26  C26 UNK     1       3.084   0.258  -5.077  1.00  0.00     0.038 A 
HETATM   27  C15 UNK     1       0.910   0.402  -2.196  1.00  0.00     0.156 A 
HETATM   28  C28 UNK     1       4.058   1.028  -5.714  1.00  0.00     0.003 A 
HETATM   29  C27 UNK     1       4.416   2.273  -5.195  1.00  0.00     0.001 A 
ENDBRANCH   9  19
BRANCH   4  30
HETATM   30  C8  UNK     1      -3.789  -1.472   1.797  1.00  0.00    -0.053 A 
HETATM   31  C12 UNK     1      -4.455  -1.342   3.013  1.00  0.00     0.010 A 
HETATM   32  C19 UNK     1      -5.434  -2.269   3.372  1.00  0.00     0.037 A 
HETATM   33  C21 UNK     1      -5.743  -3.324   2.514  1.00  0.00     0.068 A 
HETATM   34  C20 UNK     1      -5.075  -3.452   1.297  1.00  0.00     0.037 A 
HETATM   35  C13 UNK     1      -4.096  -2.525   0.937  1.00  0.00     0.010 A 
BRANCH  33  36
HETATM   36  O4  UNK     1      -6.699  -4.227   2.865  1.00  0.00    -0.356 OA
HETATM   37  C29 UNK     1      -6.967  -5.281   1.941  1.00  0.00     0.210 C 
ENDBRANCH  33  36
ENDBRANCH   4  30
TORSDOF 3
