REMARK  6 active torsions:
REMARK  status: ('A' for Active; 'I' for Inactive)
REMARK    1  A    between atoms: C11_18  and  O3_3 
REMARK    2  A    between atoms: C19_26  and  O3_3 
REMARK    3  A    between atoms: C27_34  and  O6_6 
REMARK    4  A    between atoms: C1_8  and  C10_17 
REMARK    5  A    between atoms: C11_18  and  C6_13 
REMARK    6  A    between atoms: C19_26  and  C22_29 
ROOT
HETATM    1  O1  UNK     1      -3.124  -3.365   0.054  1.00  0.00    -0.293 OA
HETATM    2  N1  UNK     1      -2.478   0.276   3.013  1.00  0.00    -0.362 N 
HETATM    3  C1  UNK     1      -1.223  -1.553   1.245  1.00  0.00     0.104 C 
HETATM    4  C2  UNK     1      -2.732  -1.486   1.451  1.00  0.00     0.024 C 
HETATM    5  C3  UNK     1      -3.283  -0.580   2.286  1.00  0.00     0.020 C 
HETATM    6  C4  UNK     1      -4.768  -0.436   2.487  1.00  0.00     0.058 C 
HETATM    7  C5  UNK     1      -5.564  -1.025   1.329  1.00  0.00     0.014 C 
HETATM    8  C6  UNK     1      -0.452  -0.648   2.211  1.00  0.00     0.052 C 
HETATM    9  C7  UNK     1      -5.100  -2.436   1.016  1.00  0.00     0.084 C 
HETATM   10  C8  UNK     1      -3.610  -2.483   0.762  1.00  0.00     0.158 C 
HETATM   11  C9  UNK     1      -1.093   0.222   3.026  1.00  0.00     0.018 C 
HETATM   12  C13 UNK     1      -0.446   1.160   4.010  1.00  0.00     0.069 C 
HETATM   13  H8  UNK     1      -2.931   0.933   3.637  1.00  0.00     0.165 HD
ENDROOT
BRANCH   8  14
HETATM   14  C11 UNK     1       1.014  -0.792   2.201  1.00  0.00     0.292 C 
HETATM   15  O4  UNK     1       1.613  -1.576   2.912  1.00  0.00    -0.259 OA
BRANCH  14  16
HETATM   16  O3  UNK     1       1.523   0.076   1.293  1.00  0.00    -0.313 OA
BRANCH  16  17
HETATM   17  C19 UNK     1       2.948   0.054   1.166  1.00  0.00     0.217 C 
BRANCH  17  18
HETATM   18  C22 UNK     1       3.363   1.059   0.132  1.00  0.00    -0.034 A 
HETATM   19  C23 UNK     1       3.643   2.365   0.516  1.00  0.00     0.012 A 
HETATM   20  C25 UNK     1       4.028   3.299  -0.446  1.00  0.00     0.037 A 
HETATM   21  C27 UNK     1       4.131   2.921  -1.785  1.00  0.00     0.068 A 
HETATM   22  C26 UNK     1       3.848   1.608  -2.162  1.00  0.00     0.037 A 
HETATM   23  C24 UNK     1       3.463   0.674  -1.200  1.00  0.00     0.012 A 
BRANCH  21  24
HETATM   24  O6  UNK     1       4.507   3.833  -2.722  1.00  0.00    -0.356 OA
HETATM   25  C28 UNK     1       4.592   3.379  -4.072  1.00  0.00     0.210 C 
ENDBRANCH  21  24
ENDBRANCH  17  18
ENDBRANCH  16  17
ENDBRANCH  14  16
ENDBRANCH   8  14
BRANCH   3  26
HETATM   26  C10 UNK     1      -0.877  -1.208  -0.179  1.00  0.00     0.029 A 
HETATM   27  C12 UNK     1      -1.215   0.147  -0.683  1.00  0.00     0.194 A 
HETATM   28  O5  UNK     1      -1.761   0.986   0.022  1.00  0.00    -0.287 OA
HETATM   29  C15 UNK     1      -0.857   0.431  -2.085  1.00  0.00     0.048 A 
HETATM   30  C16 UNK     1      -0.236  -0.563  -2.841  1.00  0.00     0.089 A 
HETATM   31  C17 UNK     1      -1.134   1.677  -2.652  1.00  0.00     0.018 A 
HETATM   32  O2  UNK     1       0.059  -1.804  -2.335  1.00  0.00    -0.321 OA
HETATM   33  C18 UNK     1       0.112  -0.316  -4.170  1.00  0.00     0.038 A 
HETATM   34  C14 UNK     1      -0.280  -2.055  -1.028  1.00  0.00     0.154 A 
HETATM   35  C21 UNK     1      -0.164   0.927  -4.738  1.00  0.00     0.003 A 
HETATM   36  C20 UNK     1      -0.785   1.922  -3.981  1.00  0.00     0.001 A 
ENDBRANCH   3  26
TORSDOF 6
