REMARK  3 active torsions:
REMARK  status: ('A' for Active; 'I' for Inactive)
REMARK    1  A    between atoms: C1_8  and  N1_6 
REMARK       I    between atoms: C8_15  and  N1_6 
REMARK    2  A    between atoms: C4_11  and  N2_7 
REMARK    3  A    between atoms: C3_10  and  C8_15 
ROOT
HETATM    1  O2  UNK     1       0.544   0.674   2.176  1.00  0.00    -0.267 OA
HETATM    2  N1  UNK     1      -0.740  -0.292   0.454  1.00  0.00    -0.321 N 
HETATM    3  C8  UNK     1       0.358   0.356   1.002  1.00  0.00     0.262 C 
HETATM    4  H2  UNK     1      -0.697  -0.465  -0.544  1.00  0.00     0.169 HD
ENDROOT
BRANCH   3   5
HETATM    5  C3  UNK     1       1.380   0.665  -0.006  1.00  0.00     0.108 A 
HETATM    6  C13 UNK     1       2.474  -0.278  -0.330  1.00  0.00     0.304 A 
HETATM    7  O1  UNK     1       3.382   0.129  -1.304  1.00  0.00    -0.274 OA
HETATM    8  O3  UNK     1       2.580  -1.364   0.229  1.00  0.00    -0.259 OA
HETATM    9  C5  UNK     1       3.269   1.375  -1.951  1.00  0.00     0.089 A 
HETATM   10  C14 UNK     1       4.225   1.694  -2.914  1.00  0.00     0.038 A 
HETATM   11  C2  UNK     1       2.232   2.247  -1.632  1.00  0.00    -0.001 A 
HETATM   12  C17 UNK     1       4.139   2.919  -3.571  1.00  0.00     0.003 A 
HETATM   13  C16 UNK     1       3.106   3.807  -3.263  1.00  0.00     0.001 A 
HETATM   14  C12 UNK     1       2.154   3.473  -2.296  1.00  0.00     0.014 A 
HETATM   15  C6  UNK     1       1.268   1.850  -0.618  1.00  0.00     0.037 A 
ENDBRANCH   3   5
BRANCH   2  16
HETATM   16  C1  UNK     1      -1.904  -0.738   1.125  1.00  0.00     0.068 A 
HETATM   17  C4  UNK     1      -2.918  -1.375   0.429  1.00  0.00     0.130 A 
HETATM   18  C10 UNK     1      -4.054  -1.806   1.116  1.00  0.00     0.045 A 
HETATM   19  C7  UNK     1      -4.160  -1.593   2.491  1.00  0.00    -0.059 A 
HETATM   20  C11 UNK     1      -3.130  -0.950   3.178  1.00  0.00     0.009 A 
HETATM   21  C15 UNK     1      -5.374  -2.052   3.225  1.00  0.00     0.048 C 
HETATM   22  C9  UNK     1      -1.995  -0.519   2.491  1.00  0.00     0.032 A 
BRANCH  17  23
HETATM   23  N2  UNK     1      -2.836  -1.605  -0.973  1.00  0.00    -0.113 N 
HETATM   24  O4  UNK     1      -3.786  -2.186  -1.547  1.00  0.00    -0.532 OA
HETATM   25  O5  UNK     1      -1.816  -1.218  -1.590  1.00  0.00    -0.532 OA
ENDBRANCH  17  23
ENDBRANCH   2  16
TORSDOF 3
