REMARK  6 active torsions:
REMARK  status: ('A' for Active; 'I' for Inactive)
REMARK    1  A    between atoms: C14_19  and  O2_2 
REMARK    2  A    between atoms: C15_20  and  O2_2 
REMARK    3  A    between atoms: C1_6  and  N1_5 
REMARK    4  A    between atoms: C2_7  and  N1_5 
REMARK    5  A    between atoms: C3_8  and  N1_5 
REMARK    6  A    between atoms: C12_17  and  C14_19 
ROOT
HETATM    1  O1  UNK     1      -1.240   0.149  -1.534  1.00  0.00    -0.274 OA
HETATM    2  O3  UNK     1      -3.354  -0.705  -1.383  1.00  0.00    -0.259 OA
HETATM    3  C1  UNK     1       2.237   1.268  -1.142  1.00  0.00     0.032 A 
HETATM    4  C4  UNK     1       0.978   1.045  -1.696  1.00  0.00     0.067 A 
HETATM    5  C5  UNK     1       0.295  -0.110   0.334  1.00  0.00    -0.001 A 
HETATM    6  C6  UNK     1       0.024   0.358  -0.948  1.00  0.00     0.091 A 
HETATM    7  C7  UNK     1       2.528   0.805   0.143  1.00  0.00     0.030 A 
HETATM    8  C8  UNK     1       1.560   0.118   0.881  1.00  0.00     0.016 A 
HETATM    9  C11 UNK     1      -0.747  -0.820   1.059  1.00  0.00     0.038 A 
HETATM   10  C12 UNK     1      -1.946  -1.016   0.497  1.00  0.00     0.115 A 
HETATM   11  C13 UNK     1      -2.257  -0.527  -0.865  1.00  0.00     0.304 A 
ENDROOT
BRANCH   3  12
HETATM   12  N1  UNK     1       3.220   1.960  -1.881  1.00  0.00    -0.382 N 
BRANCH  12  13
HETATM   13  C2  UNK     1       4.532   2.196  -1.314  1.00  0.00     0.118 C 
HETATM   14  C9  UNK     1       4.491   3.392  -0.381  1.00  0.00     0.026 C 
ENDBRANCH  12  13
BRANCH  12  15
HETATM   15  C3  UNK     1       2.934   2.432  -3.221  1.00  0.00     0.118 C 
HETATM   16  C10 UNK     1       3.085   1.299  -4.217  1.00  0.00     0.026 C 
ENDBRANCH  12  15
ENDBRANCH   3  12
BRANCH  10  17
HETATM   17  C14 UNK     1      -2.931  -1.742   1.307  1.00  0.00     0.299 C 
HETATM   18  O4  UNK     1      -3.808  -2.444   0.832  1.00  0.00    -0.259 OA
BRANCH  17  19
HETATM   19  O2  UNK     1      -2.684  -1.490   2.616  1.00  0.00    -0.318 OA
BRANCH  19  20
HETATM   20  C15 UNK     1      -3.569  -2.133   3.540  1.00  0.00     0.174 C 
HETATM   21  C16 UNK     1      -4.750  -1.225   3.806  1.00  0.00     0.034 C 
ENDBRANCH  19  20
ENDBRANCH  17  19
ENDBRANCH  10  17
TORSDOF 6
