REMARK  4 active torsions:
REMARK  status: ('A' for Active; 'I' for Inactive)
REMARK    1  A    between atoms: C3_7  and  O1_1 
REMARK    2  A    between atoms: C6_10  and  O1_1 
REMARK    3  A    between atoms: C4_8  and  C9_13 
REMARK    4  A    between atoms: C6_10  and  C9_13 
ROOT
HETATM    1  O2  UNK     1      -3.378  -1.823  -0.059  1.00  0.00    -0.275 OA
HETATM    2  O4  UNK     1      -5.458  -2.560  -0.675  1.00  0.00    -0.260 OA
HETATM    3  C1  UNK     1      -2.997  -1.150   2.248  1.00  0.00    -0.002 A 
HETATM    4  C2  UNK     1      -2.526  -1.335   0.951  1.00  0.00     0.092 A 
HETATM    5  C3  UNK     1      -0.340  -0.565   1.581  1.00  0.00     0.072 A 
HETATM    6  C5  UNK     1      -1.207  -1.048   0.603  1.00  0.00     0.075 A 
HETATM    7  C7  UNK     1      -2.121  -0.665   3.223  1.00  0.00     0.017 A 
HETATM    8  C8  UNK     1      -0.796  -0.374   2.887  1.00  0.00     0.038 A 
HETATM    9  C13 UNK     1      -4.384  -1.469   2.542  1.00  0.00     0.020 A 
HETATM   10  C16 UNK     1      -5.186  -1.930   1.578  1.00  0.00     0.083 A 
HETATM   11  C18 UNK     1      -4.709  -2.135   0.198  1.00  0.00     0.288 A 
ENDROOT
BRANCH   5  12
HETATM   12  O1  UNK     1       0.951  -0.277   1.263  1.00  0.00    -0.344 OA
BRANCH  12  13
HETATM   13  C6  UNK     1       1.212   0.148  -0.074  1.00  0.00     0.259 C 
BRANCH  13  14
HETATM   14  C9  UNK     1       2.412   1.075  -0.100  1.00  0.00     0.183 C 
HETATM   15  O3  UNK     1       3.001   1.397   0.929  1.00  0.00    -0.290 OA
BRANCH  14  16
HETATM   16  C4  UNK     1       2.880   1.605  -1.413  1.00  0.00     0.012 A 
HETATM   17  C11 UNK     1       2.205   1.233  -2.554  1.00  0.00     0.016 A 
HETATM   18  C14 UNK     1       2.643   1.729  -3.782  1.00  0.00     0.007 A 
HETATM   19  C10 UNK     1       3.743   2.585  -3.836  1.00  0.00    -0.062 A 
HETATM   20  C15 UNK     1       4.406   2.943  -2.662  1.00  0.00     0.007 A 
HETATM   21  C17 UNK     1       4.212   3.115  -5.149  1.00  0.00     0.048 C 
HETATM   22  C12 UNK     1       3.969   2.447  -1.435  1.00  0.00     0.016 A 
ENDBRANCH  14  16
ENDBRANCH  13  14
ENDBRANCH  12  13
ENDBRANCH   5  12
TORSDOF 4
