REMARK  7 active torsions:
REMARK  status: ('A' for Active; 'I' for Inactive)
REMARK    1  A    between atoms: C2_6  and  O1_2 
REMARK    2  A    between atoms: C9_13  and  O1_2 
REMARK    3  A    between atoms: C5_9  and  O2_3 
REMARK    4  A    between atoms: C1_5  and  C2_6 
REMARK    5  A    between atoms: C3_7  and  C8_12 
REMARK    6  A    between atoms: C10_14  and  C12_16 
REMARK    7  A    between atoms: C11_15  and  C12_16 
ROOT
HETATM    1  C1  UNK     1       0.464   0.574   1.328  1.00  0.00     0.000 A 
HETATM    2  C3  UNK     1      -0.977  -1.057   2.376  1.00  0.00    -0.035 A 
HETATM    3  C4  UNK     1       0.086  -0.754   1.525  1.00  0.00     0.023 A 
HETATM    4  C5  UNK     1      -0.220   1.599   1.981  1.00  0.00     0.076 A 
HETATM    5  C6  UNK     1      -1.662  -0.032   3.029  1.00  0.00     0.014 A 
HETATM    6  C7  UNK     1      -1.283   1.296   2.832  1.00  0.00     0.038 A 
ENDROOT
BRANCH   2   7
HETATM    7  C8  UNK     1      -1.378  -2.459   2.585  1.00  0.00     0.015 C 
HETATM    8  C10 UNK     1      -1.793  -3.285   1.613  1.00  0.00     0.056 C 
BRANCH   8   9
HETATM    9  C12 UNK     1      -1.878  -2.810   0.190  1.00  0.00     0.182 C 
HETATM   10  O3  UNK     1      -1.215  -3.364  -0.699  1.00  0.00    -0.288 OA
BRANCH   9  11
HETATM   11  C11 UNK     1      -2.776  -1.710  -0.125  1.00  0.00     0.014 A 
HETATM   12  C16 UNK     1      -3.938  -1.521   0.625  1.00  0.00     0.015 A 
HETATM   13  C21 UNK     1      -4.798  -0.466   0.324  1.00  0.00     0.001 A 
HETATM   14  C23 UNK     1      -4.497   0.401  -0.727  1.00  0.00     0.000 A 
HETATM   15  C22 UNK     1      -3.336   0.212  -1.476  1.00  0.00     0.001 A 
HETATM   16  C17 UNK     1      -2.476  -0.843  -1.175  1.00  0.00     0.015 A 
ENDBRANCH   9  11
ENDBRANCH   8   9
ENDBRANCH   2   7
BRANCH   1  17
HETATM   17  C2  UNK     1       1.605   0.881   0.414  1.00  0.00     0.217 C 
BRANCH  17  18
HETATM   18  O1  UNK     1       1.101   1.400  -0.810  1.00  0.00    -0.347 OA
BRANCH  18  19
HETATM   19  C9  UNK     1       2.023   1.701  -1.778  1.00  0.00     0.069 A 
HETATM   20  C13 UNK     1       3.381   1.495  -1.538  1.00  0.00     0.038 A 
HETATM   21  C18 UNK     1       4.319   1.800  -2.525  1.00  0.00     0.026 A 
HETATM   22  C20 UNK     1       3.897   2.312  -3.752  1.00  0.00     0.034 A 
HETATM   23  C19 UNK     1       2.539   2.519  -3.992  1.00  0.00     0.026 A 
HETATM   24 Cl1  UNK     1       5.054   2.688  -4.970  1.00  0.00    -0.084 Cl
HETATM   25  C14 UNK     1       1.602   2.214  -3.006  1.00  0.00     0.038 A 
ENDBRANCH  18  19
ENDBRANCH  17  18
ENDBRANCH   1  17
BRANCH   4  26
HETATM   26  O2  UNK     1       0.137   2.901   1.800  1.00  0.00    -0.355 OA
HETATM   27  C15 UNK     1      -0.617   3.884   2.507  1.00  0.00     0.210 C 
ENDBRANCH   4  26
TORSDOF 7
