REMARK  5 active torsions:
REMARK  status: ('A' for Active; 'I' for Inactive)
REMARK    1  A    between atoms: C13_19  and  S1_1 
REMARK    2  A    between atoms: C12_18  and  N1_5 
REMARK    3  A    between atoms: C4_10  and  N1_5 
REMARK    4  A    between atoms: C11_17  and  N2_6 
REMARK    5  A    between atoms: C12_18  and  N2_6 
ROOT
HETATM    1  N1  UNK     1      -0.781  -0.124  -2.730  1.00  0.00    -0.333 N 
HETATM    2  H5  UNK     1      -1.321  -0.175  -3.591  1.00  0.00     0.168 HD
ENDROOT
BRANCH   1   3
HETATM    3  C12 UNK     1       0.479   0.465  -2.905  1.00  0.00     0.176 C 
HETATM    4  S2  UNK     1       0.947   0.837  -4.480  1.00  0.00    -0.041 SA
BRANCH   3   5
HETATM    5  N2  UNK     1       1.158   0.787  -1.744  1.00  0.00    -0.332 N 
HETATM    6  H9  UNK     1       0.552   0.969  -0.951  1.00  0.00     0.168 HD
BRANCH   5   7
HETATM    7  C11 UNK     1       2.429   1.382  -1.544  1.00  0.00     0.051 A 
HETATM    8  C13 UNK     1       2.645   2.277  -0.508  1.00  0.00     0.026 A 
HETATM    9  C15 UNK     1       3.909   2.842  -0.346  1.00  0.00     0.021 A 
HETATM   10  C17 UNK     1       4.942   2.505  -1.221  1.00  0.00     0.002 A 
HETATM   11  C16 UNK     1       4.709   1.603  -2.259  1.00  0.00     0.002 A 
HETATM   12  C14 UNK     1       3.445   1.037  -2.422  1.00  0.00     0.031 A 
BRANCH   8  13
HETATM   13  S1  UNK     1       1.358   2.749   0.643  1.00  0.00    -0.132 SA
HETATM   14  C18 UNK     1       1.561   1.502   1.944  1.00  0.00     0.095 C 
ENDBRANCH   8  13
ENDBRANCH   5   7
ENDBRANCH   3   5
ENDBRANCH   1   3
BRANCH   1  15
HETATM   15  C4  UNK     1      -1.503  -0.458  -1.584  1.00  0.00     0.036 A 
HETATM   16  C5  UNK     1      -0.837  -0.760  -0.402  1.00  0.00     0.067 A 
HETATM   17  C2  UNK     1      -1.579  -1.091   0.733  1.00  0.00     0.092 A 
HETATM   18  C1  UNK     1      -2.974  -1.131   0.726  1.00  0.00     0.004 A 
HETATM   19  O1  UNK     1      -0.848  -1.387   1.901  1.00  0.00    -0.275 OA
HETATM   20  C3  UNK     1      -3.675  -1.489   1.967  1.00  0.00    -0.043 A 
HETATM   21  C6  UNK     1      -3.627  -0.823  -0.475  1.00  0.00     0.017 A 
HETATM   22  C8  UNK     1      -2.953  -1.766   3.063  1.00  0.00     0.090 A 
HETATM   23  C9  UNK     1      -5.174  -1.540   1.992  1.00  0.00     0.049 C 
HETATM   24  C10 UNK     1      -1.481  -1.728   3.086  1.00  0.00     0.288 A 
HETATM   25  O2  UNK     1      -0.855  -1.988   4.108  1.00  0.00    -0.260 OA
HETATM   26  C7  UNK     1      -2.896  -0.489  -1.621  1.00  0.00     0.030 A 
ENDBRANCH   1  15
TORSDOF 5
