REMARK  9 active torsions:
REMARK  status: ('A' for Active; 'I' for Inactive)
REMARK    1  A    between atoms: C12_22  and  O2_2 
REMARK    2  A    between atoms: C6_16  and  O2_2 
REMARK    3  A    between atoms: C19_29  and  O4_4 
REMARK    4  A    between atoms: C20_30  and  O4_4 
REMARK       I    between atoms: C19_29  and  N1_9 
REMARK    5  A    between atoms: C8_18  and  N1_9 
REMARK    6  A    between atoms: C18_28  and  N2_10 
REMARK    7  A    between atoms: C3_13  and  C5_15 
REMARK    8  A    between atoms: C12_22  and  C8_18 
REMARK    9  A    between atoms: C20_30  and  C21_31 
ROOT
HETATM    1  O1  UNK     1       2.236  -0.362  -1.316  1.00  0.00    -0.321 OA
HETATM    2  O3  UNK     1       2.017   3.600  -2.267  1.00  0.00    -0.286 OA
HETATM    3  C1  UNK     1       0.901   1.649  -1.568  1.00  0.00     0.049 A 
HETATM    4  C2  UNK     1       1.033   0.294  -1.265  1.00  0.00     0.091 A 
HETATM    5  C3  UNK     1       3.384   1.671  -1.987  1.00  0.00     0.048 A 
HETATM    6  C4  UNK     1       2.096   2.416  -1.964  1.00  0.00     0.197 A 
HETATM    7  C6  UNK     1      -1.336   0.161  -0.823  1.00  0.00     0.082 A 
HETATM    8  C7  UNK     1      -0.085  -0.452  -0.892  1.00  0.00     0.075 A 
HETATM    9  C9  UNK     1      -0.352   2.265  -1.500  1.00  0.00     0.021 A 
HETATM   10  C10 UNK     1       3.346   0.369  -1.666  1.00  0.00     0.159 A 
HETATM   11  C11 UNK     1      -1.469   1.517  -1.126  1.00  0.00     0.038 A 
ENDROOT
BRANCH   7  12
HETATM   12  O2  UNK     1      -2.429  -0.563  -0.459  1.00  0.00    -0.277 OA
BRANCH  12  13
HETATM   13  C12 UNK     1      -3.111  -1.169  -1.526  1.00  0.00     0.286 C 
HETATM   14  O5  UNK     1      -2.776  -1.081  -2.703  1.00  0.00    -0.263 OA
BRANCH  13  15
HETATM   15  C8  UNK     1      -4.326  -1.969  -1.073  1.00  0.00     0.183 C 
HETATM   16  C15 UNK     1      -5.590  -1.414  -1.711  1.00  0.00     0.043 C 
BRANCH  15  17
HETATM   17  N1  UNK     1      -4.455  -1.987   0.361  1.00  0.00    -0.323 N 
HETATM   18  C19 UNK     1      -4.965  -3.054   1.074  1.00  0.00     0.361 C 
HETATM   19  O6  UNK     1      -5.368  -4.108   0.593  1.00  0.00    -0.238 OA
HETATM   20  H11 UNK     1      -4.168  -1.164   0.883  1.00  0.00     0.165 HD
BRANCH  18  21
HETATM   21  O4  UNK     1      -4.957  -2.765   2.410  1.00  0.00    -0.299 OA
BRANCH  21  22
HETATM   22  C20 UNK     1      -5.462  -3.790   3.274  1.00  0.00     0.219 C 
BRANCH  22  23
HETATM   23  C21 UNK     1      -5.383  -3.316   4.695  1.00  0.00    -0.034 A 
HETATM   24  C22 UNK     1      -4.237  -3.562   5.450  1.00  0.00     0.009 A 
HETATM   25  C24 UNK     1      -4.164  -3.122   6.772  1.00  0.00     0.001 A 
HETATM   26  C26 UNK     1      -5.237  -2.434   7.338  1.00  0.00     0.000 A 
HETATM   27  C25 UNK     1      -6.384  -2.187   6.583  1.00  0.00     0.001 A 
HETATM   28  C23 UNK     1      -6.457  -2.628   5.261  1.00  0.00     0.009 A 
ENDBRANCH  22  23
ENDBRANCH  21  22
ENDBRANCH  18  21
ENDBRANCH  15  17
ENDBRANCH  13  15
ENDBRANCH  12  13
ENDBRANCH   7  12
BRANCH   5  29
HETATM   29  C5  UNK     1       4.658   2.326  -2.327  1.00  0.00    -0.020 A 
HETATM   30  C13 UNK     1       5.112   3.404  -1.567  1.00  0.00     0.015 A 
HETATM   31  C16 UNK     1       6.318   4.026  -1.890  1.00  0.00     0.037 A 
HETATM   32  C18 UNK     1       7.070   3.570  -2.972  1.00  0.00     0.102 A 
HETATM   33  C17 UNK     1       6.616   2.492  -3.732  1.00  0.00     0.037 A 
HETATM   34  C14 UNK     1       5.410   1.870  -3.409  1.00  0.00     0.015 A 
BRANCH  32  35
HETATM   35  N2  UNK     1       8.298   4.203  -3.300  1.00  0.00    -0.116 N 
HETATM   36  O7  UNK     1       8.959   3.778  -4.278  1.00  0.00    -0.532 OA
HETATM   37  O8  UNK     1       8.687   5.172  -2.604  1.00  0.00    -0.532 OA
ENDBRANCH  32  35
ENDBRANCH   5  29
TORSDOF 9
