REMARK  11 active torsions:
REMARK  status: ('A' for Active; 'I' for Inactive)
REMARK    1  A    between atoms: C19_29  and  O4_4 
REMARK    2  A    between atoms: C20_30  and  O5_5 
REMARK    3  A    between atoms: C5_15  and  N1_7 
REMARK    4  A    between atoms: C6_16  and  N2_8 
REMARK    5  A    between atoms: C14_24  and  N3_9 
REMARK    6  A    between atoms: C15_25  and  N4_10 
REMARK    7  A    between atoms: C11_21  and  C5_15 
REMARK    8  A    between atoms: C12_22  and  C6_16 
REMARK    9  A    between atoms: C14_24  and  C19_29 
REMARK   10  A    between atoms: C15_25  and  C20_30 
REMARK   11  A    between atoms: C22_32  and  C24_34 
ROOT
HETATM    1  O1  UNK     1       0.543  -2.901   2.164  1.00  0.00    -0.308 OA
HETATM    2  O2  UNK     1      -1.987   0.870   1.032  1.00  0.00    -0.287 OA
HETATM    3  O3  UNK     1       1.242   1.309   4.313  1.00  0.00    -0.287 OA
HETATM    4  O6  UNK     1       2.650  -0.799   4.946  1.00  0.00    -0.287 OA
HETATM    5  C11 UNK     1      -0.736  -1.002   1.589  1.00  0.00     0.053 A 
HETATM    6  C12 UNK     1      -0.373   1.123   2.684  1.00  0.00     0.069 A 
HETATM    7  C13 UNK     1      -1.058   0.347   1.749  1.00  0.00     0.194 A 
HETATM    8  C16 UNK     1       0.272  -1.571   2.366  1.00  0.00     0.106 A 
HETATM    9  C17 UNK     1       0.637   0.556   3.464  1.00  0.00     0.200 A 
HETATM   10  C18 UNK     1       0.956  -0.794   3.300  1.00  0.00     0.099 A 
HETATM   11  C21 UNK     1       2.013  -1.420   4.107  1.00  0.00     0.191 A 
HETATM   12  C22 UNK     1       1.546  -3.492   2.918  1.00  0.00     0.090 A 
HETATM   13  C23 UNK     1       2.268  -2.852   3.851  1.00  0.00     0.094 A 
ENDROOT
BRANCH   5  14
HETATM   14  C5  UNK     1      -1.454  -1.867   0.593  1.00  0.00     0.280 C 
BRANCH  14  15
HETATM   15  N1  UNK     1      -0.524  -2.730  -0.212  1.00  0.00    -0.064 N 
HETATM   16  C1  UNK     1      -1.224  -3.941  -0.777  1.00  0.00     0.265 C 
HETATM   17  C7  UNK     1      -0.209  -4.804  -1.520  1.00  0.00     0.300 C 
HETATM   18  N3  UNK     1       0.461  -4.040  -2.580  1.00  0.00     0.093 N 
HETATM   19  C8  UNK     1       1.151  -2.869  -2.024  1.00  0.00     0.300 C 
HETATM   20  C2  UNK     1       0.175  -1.950  -1.296  1.00  0.00     0.265 C 
HETATM   21  H1  UNK     1       0.204  -3.104   0.406  1.00  0.00     0.280 HD
BRANCH  18  22
HETATM   22  C14 UNK     1       1.400  -4.890  -3.311  1.00  0.00     0.298 C 
BRANCH  22  23
HETATM   23  C19 UNK     1       0.664  -5.769  -4.309  1.00  0.00     0.194 C 
BRANCH  23  24
HETATM   24  O4  UNK     1       1.614  -6.564  -5.006  1.00  0.00    -0.399 OA
HETATM   25  H32 UNK     1       1.120  -7.108  -5.643  1.00  0.00     0.209 HD
ENDBRANCH  23  24
ENDBRANCH  22  23
ENDBRANCH  18  22
ENDBRANCH  14  15
ENDBRANCH   5  14
BRANCH   6  26
HETATM   26  C6  UNK     1      -0.727   2.572   2.845  1.00  0.00     0.281 C 
BRANCH  26  27
HETATM   27  N2  UNK     1      -0.891   3.287   1.534  1.00  0.00    -0.064 N 
HETATM   28  C3  UNK     1       0.437   3.616   0.900  1.00  0.00     0.265 C 
HETATM   29  C9  UNK     1       0.195   4.274  -0.455  1.00  0.00     0.300 C 
HETATM   30  N4  UNK     1      -0.635   5.478  -0.318  1.00  0.00     0.093 N 
HETATM   31  C10 UNK     1      -1.932   5.151   0.288  1.00  0.00     0.300 C 
HETATM   32  C4  UNK     1      -1.752   4.518   1.665  1.00  0.00     0.265 C 
HETATM   33  H2  UNK     1      -1.393   2.677   0.879  1.00  0.00     0.280 HD
BRANCH  30  34
HETATM   34  C15 UNK     1      -0.823   6.122  -1.618  1.00  0.00     0.298 C 
BRANCH  34  35
HETATM   35  C20 UNK     1      -1.192   7.586  -1.443  1.00  0.00     0.194 C 
BRANCH  35  36
HETATM   36  O5  UNK     1      -1.349   8.175  -2.727  1.00  0.00    -0.399 OA
HETATM   37  H33 UNK     1      -1.573   9.110  -2.587  1.00  0.00     0.209 HD
ENDBRANCH  35  36
ENDBRANCH  34  35
ENDBRANCH  30  34
ENDBRANCH  26  27
ENDBRANCH   6  26
BRANCH  12  38
HETATM   38  C24 UNK     1       1.750  -4.925   2.624  1.00  0.00    -0.002 A 
HETATM   39  C25 UNK     1       2.994  -5.376   2.182  1.00  0.00     0.014 A 
HETATM   40  C27 UNK     1       3.187  -6.730   1.905  1.00  0.00     0.001 A 
HETATM   41  C29 UNK     1       2.136  -7.632   2.071  1.00  0.00     0.000 A 
HETATM   42  C28 UNK     1       0.893  -7.181   2.513  1.00  0.00     0.001 A 
HETATM   43  C26 UNK     1       0.699  -5.828   2.790  1.00  0.00     0.014 A 
ENDBRANCH  12  38
TORSDOF 11
