REMARK  10 active torsions:
REMARK  status: ('A' for Active; 'I' for Inactive)
REMARK    1  A    between atoms: C1_8  and  O1_1 
REMARK    2  A    between atoms: C5_12  and  O1_1 
REMARK    3  A    between atoms: C13_20  and  O2_2 
REMARK    4  A    between atoms: C3_10  and  O2_2 
REMARK    5  A    between atoms: C12_19  and  O3_3 
REMARK    6  A    between atoms: C8_15  and  O3_3 
REMARK    7  A    between atoms: C21_28  and  N1_6 
REMARK    8  A    between atoms: C2_9  and  C9_16 
REMARK    9  A    between atoms: C5_12  and  C8_15 
REMARK   10  A    between atoms: C10_17  and  C11_18 
ROOT
HETATM    1  N2  UNK     1       2.790  -0.783  -0.194  1.00  0.00    -0.191 NA
HETATM    2  C9  UNK     1       1.426   1.603  -2.277  1.00  0.00     0.035 C 
HETATM    3  C10 UNK     1       2.654   1.245  -1.815  1.00  0.00     0.055 C 
HETATM    4  C26 UNK     1       2.719   0.121  -0.918  1.00  0.00     0.100 C 
ENDROOT
BRANCH   3   5
HETATM    5  C11 UNK     1       3.886   1.926  -2.181  1.00  0.00    -0.015 A 
HETATM    6  C15 UNK     1       4.277   1.989  -3.518  1.00  0.00     0.015 A 
HETATM    7  C22 UNK     1       5.460   2.641  -3.869  1.00  0.00     0.037 A 
HETATM    8  C21 UNK     1       6.251   3.230  -2.883  1.00  0.00     0.102 A 
HETATM    9  C23 UNK     1       5.859   3.166  -1.545  1.00  0.00     0.037 A 
HETATM   10  C16 UNK     1       4.677   2.515  -1.194  1.00  0.00     0.015 A 
BRANCH   8  11
HETATM   11  N1  UNK     1       7.454   3.893  -3.240  1.00  0.00    -0.116 N 
HETATM   12  O4  UNK     1       8.152   4.415  -2.337  1.00  0.00    -0.532 OA
HETATM   13  O5  UNK     1       7.788   3.937  -4.449  1.00  0.00    -0.532 OA
ENDBRANCH   8  11
ENDBRANCH   3   5
BRANCH   2  14
HETATM   14  C2  UNK     1       0.158   0.940  -1.940  1.00  0.00    -0.032 A 
HETATM   15  C4  UNK     1      -0.577   1.362  -0.832  1.00  0.00     0.051 A 
HETATM   16  C3  UNK     1      -1.780   0.733  -0.511  1.00  0.00     0.102 A 
HETATM   17  C1  UNK     1      -2.249  -0.318  -1.299  1.00  0.00     0.102 A 
HETATM   18  C6  UNK     1      -1.514  -0.740  -2.408  1.00  0.00     0.040 A 
HETATM   19  C7  UNK     1      -0.311  -0.111  -2.728  1.00  0.00     0.014 A 
BRANCH  16  20
HETATM   20  O2  UNK     1      -2.488   1.154   0.573  1.00  0.00    -0.349 OA
BRANCH  20  21
HETATM   21  C13 UNK     1      -1.839   1.077   1.841  1.00  0.00     0.171 C 
HETATM   22  C24 UNK     1      -2.777   1.600   2.908  1.00  0.00     0.034 C 
ENDBRANCH  20  21
ENDBRANCH  16  20
BRANCH  17  23
HETATM   23  O1  UNK     1      -3.422  -0.940  -0.998  1.00  0.00    -0.346 OA
BRANCH  23  24
HETATM   24  C5  UNK     1      -3.362  -2.338  -0.721  1.00  0.00     0.202 C 
BRANCH  24  25
HETATM   25  C8  UNK     1      -4.450  -2.692   0.275  1.00  0.00     0.202 C 
BRANCH  25  26
HETATM   26  O3  UNK     1      -4.231  -1.968   1.479  1.00  0.00    -0.349 OA
BRANCH  26  27
HETATM   27  C12 UNK     1      -4.671  -2.551   2.638  1.00  0.00     0.068 A 
HETATM   28  C17 UNK     1      -4.010  -2.298   3.841  1.00  0.00     0.037 A 
HETATM   29  C19 UNK     1      -4.458  -2.891   5.021  1.00  0.00     0.009 A 
HETATM   30  C14 UNK     1      -5.566  -3.737   4.999  1.00  0.00    -0.062 A 
HETATM   31  C20 UNK     1      -6.227  -3.991   3.797  1.00  0.00     0.009 A 
HETATM   32  C25 UNK     1      -6.044  -4.371   6.262  1.00  0.00     0.048 C 
HETATM   33  C18 UNK     1      -5.779  -3.397   2.617  1.00  0.00     0.037 A 
ENDBRANCH  26  27
ENDBRANCH  25  26
ENDBRANCH  24  25
ENDBRANCH  23  24
ENDBRANCH  17  23
ENDBRANCH   2  14
TORSDOF 10
