REMARK  3 active torsions:
REMARK  status: ('A' for Active; 'I' for Inactive)
REMARK    1  A    between atoms: C5_10  and  N1_3 
REMARK    2  A    between atoms: C7_12  and  N2_4 
REMARK    3  A    between atoms: C5_10  and  C6_11 
ROOT
HETATM    1  N3  UNK     1       5.247   3.052  -4.287  1.00  0.00    -0.195 NA
HETATM    2  C7  UNK     1       3.390   3.351  -2.453  1.00  0.00     0.395 C 
HETATM    3  C14 UNK     1       4.426   3.182  -3.476  1.00  0.00     0.089 C 
ENDROOT
BRANCH   2   4
HETATM    4  N2  UNK     1       3.058   2.083  -1.807  1.00  0.00     0.104 N 
HETATM    5  C3  UNK     1       2.407   2.313  -0.511  1.00  0.00     0.303 C 
HETATM    6  C1  UNK     1       2.055   0.984   0.166  1.00  0.00     0.303 C 
HETATM    7  N1  UNK     1       1.198   0.166  -0.701  1.00  0.00     0.096 N 
HETATM    8  C2  UNK     1       1.851  -0.065  -1.995  1.00  0.00     0.303 C 
HETATM    9  C4  UNK     1       2.202   1.264  -2.673  1.00  0.00     0.303 C 
BRANCH   7  10
HETATM   10  C5  UNK     1       0.864  -1.101  -0.054  1.00  0.00     0.312 C 
BRANCH  10  11
HETATM   11  C6  UNK     1      -0.238  -0.954   0.937  1.00  0.00    -0.011 A 
HETATM   12  C8  UNK     1      -1.633  -1.123   0.510  1.00  0.00     0.006 A 
HETATM   13  C10 UNK     1      -2.645  -0.979   1.460  1.00  0.00     0.090 A 
HETATM   14  C11 UNK     1      -2.015  -1.424  -0.805  1.00  0.00     0.015 A 
HETATM   15  O1  UNK     1      -2.345  -0.678   2.804  1.00  0.00    -0.275 OA
HETATM   16  C13 UNK     1      -3.996  -1.123   1.140  1.00  0.00     0.045 A 
HETATM   17  C12 UNK     1      -1.038  -0.513   3.235  1.00  0.00     0.288 A 
HETATM   18  O2  UNK     1      -0.766  -0.250   4.402  1.00  0.00    -0.260 OA
HETATM   19  C9  UNK     1       0.018  -0.668   2.221  1.00  0.00     0.092 A 
HETATM   20  C15 UNK     1      -4.354  -1.421  -0.171  1.00  0.00    -0.059 A 
HETATM   21  C16 UNK     1      -3.365  -1.572  -1.142  1.00  0.00     0.007 A 
HETATM   22  C17 UNK     1      -5.791  -1.580  -0.537  1.00  0.00     0.048 C 
ENDBRANCH  10  11
ENDBRANCH   7  10
ENDBRANCH   2   4
TORSDOF 3
