REMARK  5 active torsions:
REMARK  status: ('A' for Active; 'I' for Inactive)
REMARK    1  A    between atoms: C2_11  and  N1_8 
REMARK       I    between atoms: C9_18  and  N1_8 
REMARK    2  A    between atoms: C10_19  and  N2_9 
REMARK       I    between atoms: C16_25  and  N2_9 
REMARK    3  A    between atoms: C1_10  and  C2_11 
REMARK    4  A    between atoms: C8_17  and  C9_18 
REMARK    5  A    between atoms: C13_22  and  C16_25 
ROOT
HETATM    1  S1  UNK     1      -2.839  -1.394   3.734  1.00  0.00    -0.083 SA
HETATM    2  C8  UNK     1      -3.674  -1.586   1.312  1.00  0.00     0.066 A 
HETATM    3  C10 UNK     1      -2.601  -1.221   2.060  1.00  0.00     0.092 A 
HETATM    4  C17 UNK     1      -4.747  -2.031   2.136  1.00  0.00     0.027 A 
HETATM    5  C21 UNK     1      -4.427  -1.978   3.475  1.00  0.00     0.053 A 
ENDROOT
BRANCH   3   6
HETATM    6  N2  UNK     1      -1.349  -0.732   1.672  1.00  0.00    -0.316 N 
HETATM    7  C16 UNK     1      -0.308  -0.383   2.521  1.00  0.00     0.262 C 
HETATM    8  O5  UNK     1      -0.271  -0.431   3.749  1.00  0.00    -0.267 OA
HETATM    9  H10 UNK     1      -1.181  -0.683   0.672  1.00  0.00     0.169 HD
BRANCH   7  10
HETATM   10  C13 UNK     1       0.865   0.095   1.780  1.00  0.00     0.108 A 
HETATM   11  C15 UNK     1       0.916   1.410   1.539  1.00  0.00     0.037 A 
HETATM   12  C12 UNK     1       2.040   1.979   0.810  1.00  0.00    -0.001 A 
HETATM   13  C14 UNK     1       3.054   1.134   0.372  1.00  0.00     0.089 A 
HETATM   14  C18 UNK     1       2.134   3.346   0.536  1.00  0.00     0.014 A 
HETATM   15  O3  UNK     1       2.995  -0.249   0.629  1.00  0.00    -0.274 OA
HETATM   16  C20 UNK     1       4.157   1.616  -0.331  1.00  0.00     0.038 A 
HETATM   17  C19 UNK     1       1.933  -0.822   1.323  1.00  0.00     0.304 A 
HETATM   18  O6  UNK     1       1.890  -2.028   1.542  1.00  0.00    -0.259 OA
HETATM   19  C23 UNK     1       4.244   2.980  -0.600  1.00  0.00     0.003 A 
HETATM   20  C22 UNK     1       3.235   3.843  -0.168  1.00  0.00     0.001 A 
ENDBRANCH   7  10
ENDBRANCH   3   6
BRANCH   2  21
HETATM   21  C9  UNK     1      -3.708  -1.527  -0.127  1.00  0.00     0.254 C 
HETATM   22  O4  UNK     1      -4.411  -2.294  -0.812  1.00  0.00    -0.268 OA
HETATM   23  N1  UNK     1      -2.926  -0.532  -0.733  1.00  0.00    -0.353 N 
HETATM   24  H6  UNK     1      -2.523   0.198  -0.154  1.00  0.00     0.163 HD
BRANCH  23  25
HETATM   25  C2  UNK     1      -2.878  -0.326  -2.163  1.00  0.00     0.161 C 
BRANCH  25  26
HETATM   26  C1  UNK     1      -1.550   0.217  -2.608  1.00  0.00    -0.038 A 
HETATM   27  C4  UNK     1      -0.533  -0.666  -2.960  1.00  0.00     0.048 A 
HETATM   28  C3  UNK     1       0.669  -0.120  -3.362  1.00  0.00     0.105 A 
HETATM   29  O1  UNK     1       1.775  -0.817  -3.740  1.00  0.00    -0.323 OA
HETATM   30  C5  UNK     1       0.864   1.241  -3.416  1.00  0.00     0.105 A 
HETATM   31  C11 UNK     1       2.688   0.259  -4.040  1.00  0.00     0.352 A 
HETATM   32  O2  UNK     1       2.117   1.567  -3.836  1.00  0.00    -0.323 OA
HETATM   33  C7  UNK     1      -0.132   2.131  -3.071  1.00  0.00     0.040 A 
HETATM   34  C6  UNK     1      -1.359   1.604  -2.661  1.00  0.00     0.012 A 
ENDBRANCH  25  26
ENDBRANCH  23  25
ENDBRANCH   2  21
TORSDOF 5
