REMARK  3 active torsions:
REMARK  status: ('A' for Active; 'I' for Inactive)
REMARK       I    between atoms: C11_18  and  N1_6 
REMARK    1  A    between atoms: C4_11  and  N1_6 
REMARK    2  A    between atoms: C11_18  and  C12_19 
REMARK    3  A    between atoms: C13_20  and  C15_22 
ROOT
HETATM    1  O4  UNK     1      -0.377   0.211  -1.606  1.00  0.00    -0.266 OA
HETATM    2  N1  UNK     1       0.187   0.208   0.655  1.00  0.00    -0.322 N 
HETATM    3  C11 UNK     1       0.417   0.483  -0.708  1.00  0.00     0.277 C 
HETATM    4  H5  UNK     1       0.926   0.477   1.302  1.00  0.00     0.169 HD
ENDROOT
BRANCH   2   5
HETATM    5  C4  UNK     1      -0.924  -0.396   1.243  1.00  0.00     0.037 A 
HETATM    6  C5  UNK     1      -1.991  -0.814   0.455  1.00  0.00     0.067 A 
HETATM    7  C2  UNK     1      -3.093  -1.417   1.064  1.00  0.00     0.092 A 
HETATM    8  C1  UNK     1      -3.164  -1.618   2.443  1.00  0.00     0.004 A 
HETATM    9  O1  UNK     1      -4.142  -1.819   0.214  1.00  0.00    -0.275 OA
HETATM   10  C3  UNK     1      -4.363  -2.262   2.999  1.00  0.00    -0.043 A 
HETATM   11  C6  UNK     1      -2.079  -1.191   3.220  1.00  0.00     0.017 A 
HETATM   12  C8  UNK     1      -5.345  -2.634   2.166  1.00  0.00     0.090 A 
HETATM   13  C9  UNK     1      -4.470  -2.492   4.478  1.00  0.00     0.049 C 
HETATM   14  C10 UNK     1      -5.284  -2.428   0.709  1.00  0.00     0.288 A 
HETATM   15  O3  UNK     1      -6.203  -2.782  -0.021  1.00  0.00    -0.260 OA
HETATM   16  C7  UNK     1      -0.968  -0.585   2.624  1.00  0.00     0.030 A 
ENDBRANCH   2   5
BRANCH   3  17
HETATM   17  C12 UNK     1       1.721   1.098  -1.011  1.00  0.00     0.155 A 
HETATM   18  N2  UNK     1       2.584   1.352  -0.023  1.00  0.00    -0.122 NA
HETATM   19  O2  UNK     1       3.689   1.919  -0.648  1.00  0.00    -0.211 OA
HETATM   20  C13 UNK     1       3.461   1.989  -1.984  1.00  0.00     0.120 A 
HETATM   21  C14 UNK     1       2.222   1.479  -2.268  1.00  0.00     0.080 A 
BRANCH  20  22
HETATM   22  C15 UNK     1       4.410   2.524  -2.891  1.00  0.00     0.041 A 
HETATM   23  S1  UNK     1       5.916   3.117  -2.331  1.00  0.00    -0.099 SA
HETATM   24  C18 UNK     1       6.403   3.535  -3.919  1.00  0.00     0.050 A 
HETATM   25  C17 UNK     1       5.439   3.228  -4.853  1.00  0.00     0.008 A 
HETATM   26  C16 UNK     1       4.284   2.643  -4.258  1.00  0.00     0.022 A 
ENDBRANCH  20  22
ENDBRANCH   3  17
TORSDOF 3
