REMARK  4 active torsions:
REMARK  status: ('A' for Active; 'I' for Inactive)
REMARK    1  A    between atoms: C1_7  and  S1_1 
REMARK    2  A    between atoms: N1_6  and  S1_1 
REMARK    3  A    between atoms: C2_8  and  N1_6 
REMARK    4  A    between atoms: C3_9  and  N1_6 
ROOT
HETATM    1  O3  UNK     1      -2.689  -0.621   2.204  1.00  0.00    -0.275 OA
HETATM    2  O4  UNK     1      -4.806  -1.473   2.390  1.00  0.00    -0.260 OA
HETATM    3  C1  UNK     1       0.806  -0.106  -0.027  1.00  0.00     0.080 A 
HETATM    4  C4  UNK     1      -0.256  -0.830  -0.576  1.00  0.00     0.039 A 
HETATM    5  C5  UNK     1      -1.431  -1.010   0.157  1.00  0.00    -0.001 A 
HETATM    6  C6  UNK     1       0.699   0.440   1.255  1.00  0.00     0.028 A 
HETATM    7  C9  UNK     1      -1.520  -0.459   1.433  1.00  0.00     0.089 A 
HETATM    8  C10 UNK     1      -0.469   0.265   1.993  1.00  0.00     0.040 A 
HETATM    9  C11 UNK     1      -2.565  -1.753  -0.366  1.00  0.00     0.020 A 
HETATM   10  C12 UNK     1      -3.669  -1.902   0.371  1.00  0.00     0.083 A 
HETATM   11  C13 UNK     1      -3.786  -1.328   1.725  1.00  0.00     0.288 A 
ENDROOT
BRANCH   3  12
HETATM   12  S1  UNK     1       2.274   0.117  -0.946  1.00  0.00     0.260 S 
HETATM   13  O1  UNK     1       3.359   0.308   0.020  1.00  0.00    -0.200 OA
HETATM   14  O2  UNK     1       2.370  -1.009  -1.879  1.00  0.00    -0.200 OA
BRANCH  12  15
HETATM   15  N1  UNK     1       2.115   1.579  -1.877  1.00  0.00    -0.307 N 
BRANCH  15  16
HETATM   16  C2  UNK     1       0.994   1.630  -2.850  1.00  0.00     0.131 C 
HETATM   17  C7  UNK     1       1.317   2.535  -4.021  1.00  0.00     0.027 C 
ENDBRANCH  15  16
BRANCH  15  18
HETATM   18  C3  UNK     1       2.270   2.859  -1.140  1.00  0.00     0.131 C 
HETATM   19  C8  UNK     1       3.718   3.301  -1.093  1.00  0.00     0.027 C 
ENDBRANCH  15  18
ENDBRANCH  12  15
ENDBRANCH   3  12
TORSDOF 4
