REMARK  3 active torsions:
REMARK  status: ('A' for Active; 'I' for Inactive)
REMARK    1  A    between atoms: C7_13  and  O2_3 
REMARK    2  A    between atoms: C11_17  and  N1_6 
REMARK       I    between atoms: C9_15  and  N1_6 
REMARK    3  A    between atoms: C3_9  and  C9_15 
ROOT
HETATM    1  O1  UNK     1       0.587   0.172  -2.547  1.00  0.00    -0.274 OA
HETATM    2  O3  UNK     1      -1.181  -1.067  -1.798  1.00  0.00    -0.259 OA
HETATM    3  C1  UNK     1       2.091   1.209  -0.942  1.00  0.00     0.002 A 
HETATM    4  C2  UNK     1       1.719   0.960  -2.260  1.00  0.00     0.089 A 
HETATM    5  C3  UNK     1       0.218  -0.104  -0.145  1.00  0.00     0.108 A 
HETATM    6  C4  UNK     1       1.292   0.643   0.134  1.00  0.00     0.037 A 
HETATM    7  C5  UNK     1       3.219   1.996  -0.698  1.00  0.00     0.051 A 
HETATM    8  C6  UNK     1       2.440   1.473  -3.336  1.00  0.00     0.041 A 
HETATM    9  C7  UNK     1       3.953   2.517  -1.768  1.00  0.00     0.069 A 
HETATM   10  C8  UNK     1      -0.197  -0.383  -1.538  1.00  0.00     0.304 A 
HETATM   11  C10 UNK     1       3.564   2.256  -3.083  1.00  0.00     0.039 A 
ENDROOT
BRANCH   5  12
HETATM   12  C9  UNK     1      -0.523  -0.630   1.008  1.00  0.00     0.262 C 
HETATM   13  O4  UNK     1       0.072  -0.876   2.055  1.00  0.00    -0.267 OA
HETATM   14  N1  UNK     1      -1.875  -0.788   0.734  1.00  0.00    -0.321 N 
HETATM   15  H5  UNK     1      -2.220  -0.518  -0.184  1.00  0.00     0.169 HD
BRANCH  14  16
HETATM   16  C11 UNK     1      -2.882  -1.269   1.605  1.00  0.00     0.056 A 
HETATM   17  C12 UNK     1      -4.198  -1.368   1.182  1.00  0.00     0.060 A 
HETATM   18 Cl1  UNK     1      -4.689  -0.916  -0.411  1.00  0.00    -0.082 Cl
HETATM   19  C14 UNK     1      -5.166  -1.846   2.066  1.00  0.00     0.026 A 
HETATM   20  C16 UNK     1      -4.806  -2.218   3.361  1.00  0.00     0.002 A 
HETATM   21  C15 UNK     1      -3.477  -2.113   3.772  1.00  0.00     0.002 A 
HETATM   22  C13 UNK     1      -2.509  -1.635   2.889  1.00  0.00     0.031 A 
ENDBRANCH  14  16
ENDBRANCH   5  12
BRANCH   9  23
HETATM   23  O2  UNK     1       5.053   3.282  -1.526  1.00  0.00    -0.356 OA
HETATM   24  C17 UNK     1       5.758   3.783  -2.660  1.00  0.00     0.210 C 
ENDBRANCH   9  23
TORSDOF 3
