REMARK  8 active torsions:
REMARK  status: ('A' for Active; 'I' for Inactive)
REMARK    1  A    between atoms: C18_26  and  O3_3 
REMARK    2  A    between atoms: C23_31  and  O3_3 
REMARK    3  A    between atoms: C26_34  and  O5_5 
REMARK    4  A    between atoms: C5_13  and  N1_6 
REMARK    5  A    between atoms: C6_14  and  N2_7 
REMARK    6  A    between atoms: C5_13  and  C7_15 
REMARK    7  A    between atoms: C6_14  and  C8_16 
REMARK    8  A    between atoms: C14_22  and  C20_28 
ROOT
HETATM    1  N1  UNK     1       2.142   0.319  -0.559  1.00  0.00     0.096 N 
HETATM    2  N2  UNK     1       0.490  -0.065   1.782  1.00  0.00     0.097 N 
HETATM    3  C1  UNK     1       2.736   0.085   0.763  1.00  0.00     0.303 C 
HETATM    4  C2  UNK     1       0.828  -0.328  -0.652  1.00  0.00     0.303 C 
HETATM    5  C3  UNK     1       1.805   0.582   1.874  1.00  0.00     0.303 C 
HETATM    6  C4  UNK     1      -0.104   0.167   0.460  1.00  0.00     0.303 C 
ENDROOT
BRANCH   1   7
HETATM    7  C5  UNK     1       3.030  -0.155  -1.619  1.00  0.00     0.312 C 
BRANCH   7   8
HETATM    8  C7  UNK     1       2.763   0.519  -2.920  1.00  0.00    -0.011 A 
HETATM    9  C11 UNK     1       1.882   0.012  -3.794  1.00  0.00     0.092 A 
HETATM   10  C15 UNK     1       1.585   0.642  -5.092  1.00  0.00     0.288 A 
HETATM   11  O2  UNK     1       2.268   1.811  -5.387  1.00  0.00    -0.275 OA
HETATM   12  O4  UNK     1       0.772   0.149  -5.867  1.00  0.00    -0.260 OA
HETATM   13  C12 UNK     1       3.200   2.368  -4.489  1.00  0.00     0.090 A 
HETATM   14  C9  UNK     1       3.472   1.759  -3.263  1.00  0.00     0.009 A 
HETATM   15  C17 UNK     1       3.829   3.547  -4.892  1.00  0.00     0.041 A 
HETATM   16  C13 UNK     1       4.413   2.374  -2.426  1.00  0.00     0.051 A 
HETATM   17  C18 UNK     1       5.052   3.557  -2.817  1.00  0.00     0.069 A 
HETATM   18  C19 UNK     1       4.760   4.142  -4.047  1.00  0.00     0.039 A 
BRANCH  17  19
HETATM   19  O3  UNK     1       5.964   4.139  -1.989  1.00  0.00    -0.351 OA
BRANCH  19  20
HETATM   20  C23 UNK     1       5.778   3.954  -0.587  1.00  0.00     0.171 C 
HETATM   21  C27 UNK     1       6.340   5.152   0.148  1.00  0.00     0.034 C 
ENDBRANCH  19  20
ENDBRANCH  17  19
ENDBRANCH   7   8
ENDBRANCH   1   7
BRANCH   2  22
HETATM   22  C6  UNK     1      -0.398   0.411   2.841  1.00  0.00     0.334 C 
BRANCH  22  23
HETATM   23  C8  UNK     1      -1.466  -0.606   3.082  1.00  0.00     0.095 A 
HETATM   24  C10 UNK     1      -1.467  -1.668   3.952  1.00  0.00     0.078 A 
HETATM   25  O1  UNK     1      -2.659  -2.315   3.822  1.00  0.00    -0.294 OA
HETATM   26  C16 UNK     1      -0.514  -2.212   4.926  1.00  0.00     0.079 C 
HETATM   27  C14 UNK     1      -3.311  -1.594   2.870  1.00  0.00     0.180 A 
HETATM   28  N3  UNK     1      -2.650  -0.564   2.392  1.00  0.00    -0.224 NA
BRANCH  27  29
HETATM   29  C20 UNK     1      -4.623  -2.071   2.533  1.00  0.00     0.017 A 
HETATM   30  C21 UNK     1      -5.140  -3.198   3.171  1.00  0.00     0.018 A 
HETATM   31  C24 UNK     1      -6.416  -3.661   2.845  1.00  0.00     0.037 A 
HETATM   32  C26 UNK     1      -7.173  -2.995   1.881  1.00  0.00     0.068 A 
HETATM   33  C25 UNK     1      -6.656  -1.867   1.243  1.00  0.00     0.037 A 
HETATM   34  C22 UNK     1      -5.381  -1.405   1.569  1.00  0.00     0.018 A 
BRANCH  32  35
HETATM   35  O5  UNK     1      -8.417  -3.447   1.563  1.00  0.00    -0.356 OA
HETATM   36  C28 UNK     1      -9.137  -2.719   0.569  1.00  0.00     0.210 C 
ENDBRANCH  32  35
ENDBRANCH  27  29
ENDBRANCH  22  23
ENDBRANCH   2  22
TORSDOF 8
