REMARK  2 active torsions:
REMARK  status: ('A' for Active; 'I' for Inactive)
REMARK    1  A    between atoms: C11_14  and  O3_3 
REMARK    2  A    between atoms: C1_4  and  C3_6 
ROOT
HETATM    1  O1  UNK     1      -0.482   0.032  -0.751  1.00  0.00    -0.340 OA
HETATM    2  O2  UNK     1       1.306   2.848   1.638  1.00  0.00    -0.292 OA
HETATM    3  C1  UNK     1      -0.562  -0.062   0.680  1.00  0.00     0.169 C 
HETATM    4  C2  UNK     1      -0.520   1.323   1.323  1.00  0.00     0.121 C 
HETATM    5  C4  UNK     1       1.296   1.666  -0.405  1.00  0.00     0.043 A 
HETATM    6  C5  UNK     1       0.762   2.009   0.929  1.00  0.00     0.165 C 
HETATM    7  C6  UNK     1       0.629   0.711  -1.180  1.00  0.00     0.086 A 
HETATM    8  C7  UNK     1       2.426   2.316  -0.906  1.00  0.00     0.021 A 
HETATM    9  C8  UNK     1       1.075   0.432  -2.472  1.00  0.00     0.074 A 
HETATM   10  C11 UNK     1       2.203   1.081  -2.974  1.00  0.00     0.068 A 
HETATM   11  C12 UNK     1       2.880   2.017  -2.191  1.00  0.00     0.037 A 
ENDROOT
BRANCH   3  12
HETATM   12  C3  UNK     1      -1.839  -0.792   1.041  1.00  0.00    -0.029 A 
HETATM   13  C10 UNK     1      -2.969  -0.660   0.236  1.00  0.00     0.010 A 
HETATM   14  C14 UNK     1      -4.145  -1.333   0.568  1.00  0.00     0.001 A 
HETATM   15  C15 UNK     1      -4.189  -2.138   1.706  1.00  0.00     0.000 A 
HETATM   16  C13 UNK     1      -3.058  -2.270   2.512  1.00  0.00     0.001 A 
HETATM   17  C9  UNK     1      -1.883  -1.597   2.179  1.00  0.00     0.010 A 
ENDBRANCH   3  12
BRANCH  10  18
HETATM   18  O3  UNK     1       2.645   0.801  -4.231  1.00  0.00    -0.361 OA
HETATM   19  H12 UNK     1       3.434   1.339  -4.415  1.00  0.00     0.217 HD
ENDBRANCH  10  18
TORSDOF 2
