REMARK  4 active torsions:
REMARK  status: ('A' for Active; 'I' for Inactive)
REMARK    1  A    between atoms: C1_6  and  N1_5 
REMARK       I    between atoms: C10_15  and  N1_5 
REMARK    2  A    between atoms: C1_6  and  C2_7 
REMARK    3  A    between atoms: C4_9  and  C9_14 
REMARK    4  A    between atoms: C10_15  and  C11_16 
ROOT
HETATM    1  O2  UNK     1      -0.412  -0.870  -2.763  1.00  0.00    -0.267 OA
HETATM    2  N1  UNK     1      -1.308  -0.220  -0.711  1.00  0.00    -0.348 N 
HETATM    3  C10 UNK     1      -0.323  -0.296  -1.680  1.00  0.00     0.258 C 
HETATM    4  H2  UNK     1      -1.145   0.336   0.122  1.00  0.00     0.163 HD
ENDROOT
BRANCH   3   5
HETATM    5  C11 UNK     1       0.909   0.404  -1.296  1.00  0.00     0.108 A 
HETATM    6  C13 UNK     1       1.632   0.919  -2.297  1.00  0.00     0.037 A 
HETATM    7  C12 UNK     1       2.870   1.631  -2.017  1.00  0.00     0.001 A 
HETATM    8  C14 UNK     1       3.284   1.766  -0.696  1.00  0.00     0.089 A 
HETATM    9  C17 UNK     1       3.657   2.184  -3.030  1.00  0.00     0.038 A 
HETATM   10  O1  UNK     1       2.518   1.222   0.353  1.00  0.00    -0.274 OA
HETATM   11  C18 UNK     1       4.459   2.436  -0.360  1.00  0.00     0.040 A 
HETATM   12  C15 UNK     1       1.330   0.536   0.116  1.00  0.00     0.304 A 
HETATM   13  O3  UNK     1       0.669   0.066   1.036  1.00  0.00    -0.259 OA
HETATM   14  C20 UNK     1       5.238   2.984  -1.377  1.00  0.00     0.026 A 
HETATM   15  C19 UNK     1       4.838   2.859  -2.709  1.00  0.00     0.035 A 
HETATM   16 Cl1  UNK     1       5.804   3.540  -3.961  1.00  0.00    -0.084 Cl
ENDBRANCH   3   5
BRANCH   2  17
HETATM   17  C1  UNK     1      -2.610  -0.830  -0.862  1.00  0.00     0.114 C 
HETATM   18  C3  UNK     1      -3.548   0.129  -1.599  1.00  0.00     0.037 C 
BRANCH  17  19
HETATM   19  C2  UNK     1      -3.181  -1.257   0.475  1.00  0.00    -0.036 A 
HETATM   20  C5  UNK     1      -3.425  -0.297   1.441  1.00  0.00     0.010 A 
HETATM   21  C7  UNK     1      -3.950  -0.690   2.671  1.00  0.00     0.007 A 
HETATM   22  C4  UNK     1      -4.223  -2.036   2.915  1.00  0.00    -0.059 A 
HETATM   23  C8  UNK     1      -3.970  -2.989   1.929  1.00  0.00     0.007 A 
HETATM   24  C6  UNK     1      -3.444  -2.596   0.698  1.00  0.00     0.010 A 
BRANCH  22  25
HETATM   25  C9  UNK     1      -4.785  -2.456   4.231  1.00  0.00     0.034 C 
HETATM   26  C16 UNK     1      -3.697  -2.795   5.247  1.00  0.00     0.010 C 
ENDBRANCH  22  25
ENDBRANCH  17  19
ENDBRANCH   2  17
TORSDOF 4
