REMARK  4 active torsions:
REMARK  status: ('A' for Active; 'I' for Inactive)
REMARK       I    between atoms: C13_18  and  N1_5 
REMARK    1  A    between atoms: C7_12  and  N1_5 
REMARK    2  A    between atoms: C1_6  and  C2_7 
REMARK    3  A    between atoms: C6_11  and  C7_12 
REMARK    4  A    between atoms: C13_18  and  C14_19 
ROOT
HETATM    1  O2  UNK     1       2.402   0.026   1.598  1.00  0.00    -0.267 OA
HETATM    2  N1  UNK     1       0.158   0.303   1.032  1.00  0.00    -0.348 N 
HETATM    3  C13 UNK     1       1.520   0.333   0.798  1.00  0.00     0.258 C 
HETATM    4  H18 UNK     1      -0.479   0.639   0.316  1.00  0.00     0.163 HD
ENDROOT
BRANCH   2   5
HETATM    5  C7  UNK     1      -0.416  -0.110   2.293  1.00  0.00     0.114 C 
HETATM    6  C12 UNK     1      -0.491   1.068   3.261  1.00  0.00     0.037 C 
BRANCH   5   7
HETATM    7  C6  UNK     1      -1.759  -0.780   2.092  1.00  0.00    -0.036 A 
HETATM    8  C10 UNK     1      -1.905  -2.114   2.432  1.00  0.00     0.010 A 
HETATM    9  C8  UNK     1      -3.141  -2.732   2.246  1.00  0.00     0.008 A 
HETATM   10  C2  UNK     1      -4.212  -2.006   1.724  1.00  0.00    -0.051 A 
HETATM   11  C9  UNK     1      -4.046  -0.663   1.387  1.00  0.00     0.008 A 
HETATM   12  C11 UNK     1      -2.810  -0.045   1.573  1.00  0.00     0.010 A 
BRANCH  10  13
HETATM   13  C1  UNK     1      -5.535  -2.667   1.525  1.00  0.00    -0.024 C 
HETATM   14  C3  UNK     1      -6.106  -3.206   2.873  1.00  0.00     0.019 C 
HETATM   15  C4  UNK     1      -5.422  -3.875   0.545  1.00  0.00     0.019 C 
HETATM   16  C5  UNK     1      -6.659  -1.754   0.933  1.00  0.00     0.019 C 
ENDBRANCH  10  13
ENDBRANCH   5   7
ENDBRANCH   2   5
BRANCH   3  17
HETATM   17  C14 UNK     1       1.857   0.785  -0.557  1.00  0.00     0.108 A 
HETATM   18  C15 UNK     1       3.024   1.424  -0.695  1.00  0.00     0.037 A 
HETATM   19  C16 UNK     1       3.445   1.909  -2.001  1.00  0.00     0.000 A 
HETATM   20  C17 UNK     1       2.615   1.696  -3.097  1.00  0.00     0.089 A 
HETATM   21  C19 UNK     1       4.654   2.583  -2.191  1.00  0.00     0.033 A 
HETATM   22  O1  UNK     1       1.388   1.022  -2.946  1.00  0.00    -0.274 OA
HETATM   23  C20 UNK     1       2.959   2.136  -4.374  1.00  0.00     0.039 A 
HETATM   24  C18 UNK     1       0.958   0.547  -1.710  1.00  0.00     0.304 A 
HETATM   25  O3  UNK     1      -0.112  -0.039  -1.587  1.00  0.00    -0.259 OA
HETATM   26  C22 UNK     1       4.167   2.806  -4.555  1.00  0.00     0.022 A 
HETATM   27  C21 UNK     1       5.013   3.029  -3.466  1.00  0.00     0.011 A 
HETATM   28 Br1  UNK     1       6.651   3.939  -3.719  1.00  0.00    -0.051 Br
ENDBRANCH   3  17
TORSDOF 4
