REMARK  4 active torsions:
REMARK  status: ('A' for Active; 'I' for Inactive)
REMARK    1  A    between atoms: C12_18  and  O2_4 
REMARK    2  A    between atoms: C15_21  and  O3_5 
REMARK    3  A    between atoms: C18_24  and  O4_6 
REMARK    4  A    between atoms: C3_9  and  C8_14 
ROOT
HETATM    1 Cl1  UNK     1       4.894   1.074  -1.746  1.00  0.00    -0.081 Cl
HETATM    2  O1  UNK     1      -0.807   2.017  -0.662  1.00  0.00    -0.335 OA
HETATM    3  C1  UNK     1      -0.095  -0.465  -2.131  1.00  0.00    -0.015 C 
HETATM    4  C2  UNK     1      -1.524   0.123  -2.029  1.00  0.00     0.057 C 
HETATM    5  C3  UNK     1      -1.783   0.959  -0.756  1.00  0.00     0.095 C 
HETATM    6  C4  UNK     1       0.909   0.569  -1.651  1.00  0.00    -0.015 A 
HETATM    7  C5  UNK     1       0.054  -1.756  -1.302  1.00  0.00     0.020 C 
HETATM    8  C6  UNK     1       0.135  -0.830  -3.618  1.00  0.00     0.020 C 
HETATM    9  C7  UNK     1       0.493   1.723  -0.974  1.00  0.00     0.080 A 
HETATM   10  C9  UNK     1      -3.124   1.705  -0.939  1.00  0.00     0.052 C 
HETATM   11  C10 UNK     1       2.289   0.392  -1.866  1.00  0.00     0.037 A 
HETATM   12  C11 UNK     1       1.424   2.687  -0.568  1.00  0.00     0.075 A 
HETATM   13  C14 UNK     1       3.217   1.348  -1.448  1.00  0.00     0.067 A 
HETATM   14  C15 UNK     1       2.783   2.501  -0.804  1.00  0.00     0.090 A 
ENDROOT
BRANCH   5  15
HETATM   15  C8  UNK     1      -1.898   0.160   0.547  1.00  0.00     0.011 A 
HETATM   16  C12 UNK     1      -1.517   0.725   1.763  1.00  0.00     0.077 A 
HETATM   17  C16 UNK     1      -1.628  -0.015   2.939  1.00  0.00     0.075 A 
HETATM   18  C18 UNK     1      -2.121  -1.319   2.899  1.00  0.00     0.090 A 
HETATM   19  C17 UNK     1      -2.502  -1.883   1.681  1.00  0.00     0.068 A 
HETATM   20  C13 UNK     1      -2.391  -1.143   0.504  1.00  0.00     0.039 A 
HETATM   21 Cl2  UNK     1      -3.115  -3.494   1.602  1.00  0.00    -0.081 Cl
BRANCH  16  22
HETATM   22  O2  UNK     1      -1.034   1.998   1.821  1.00  0.00    -0.360 OA
HETATM   23  H16 UNK     1      -1.304   2.497   1.034  1.00  0.00     0.217 HD
ENDBRANCH  16  22
BRANCH  18  24
HETATM   24  O4  UNK     1      -2.219  -2.020   4.064  1.00  0.00    -0.359 OA
HETATM   25  H18 UNK     1      -1.908  -1.463   4.798  1.00  0.00     0.217 HD
ENDBRANCH  18  24
ENDBRANCH   5  15
BRANCH  14  26
HETATM   26  O3  UNK     1       3.661   3.456  -0.388  1.00  0.00    -0.359 OA
HETATM   27  H17 UNK     1       4.559   3.170  -0.628  1.00  0.00     0.217 HD
ENDBRANCH  14  26
TORSDOF 4
