REMARK  7 active torsions:
REMARK  status: ('A' for Active; 'I' for Inactive)
REMARK    1  A    between atoms: C18_26  and  O3_4 
REMARK    2  A    between atoms: C22_30  and  O3_4 
REMARK    3  A    between atoms: C5_13  and  N1_6 
REMARK    4  A    between atoms: C6_14  and  N2_7 
REMARK    5  A    between atoms: C5_13  and  C7_15 
REMARK    6  A    between atoms: C6_14  and  C8_16 
REMARK    7  A    between atoms: C14_22  and  C20_28 
ROOT
HETATM    1  N1  UNK     1      -0.827  -1.032  -0.334  1.00  0.00     0.096 N 
HETATM    2  N2  UNK     1       0.518   0.509  -2.378  1.00  0.00     0.097 N 
HETATM    3  C1  UNK     1      -1.014  -1.328  -1.760  1.00  0.00     0.303 C 
HETATM    4  C2  UNK     1       0.503  -0.454  -0.102  1.00  0.00     0.303 C 
HETATM    5  C3  UNK     1      -0.811  -0.070  -2.610  1.00  0.00     0.303 C 
HETATM    6  C4  UNK     1       0.707   0.804  -0.952  1.00  0.00     0.303 C 
ENDROOT
BRANCH   1   7
HETATM    7  C5  UNK     1      -1.020  -2.233   0.475  1.00  0.00     0.312 C 
BRANCH   7   8
HETATM    8  C7  UNK     1      -1.380  -1.909   1.884  1.00  0.00    -0.011 A 
HETATM    9  C10 UNK     1      -0.435  -1.749   2.821  1.00  0.00     0.092 A 
HETATM   10  C15 UNK     1      -0.742  -1.429   4.225  1.00  0.00     0.288 A 
HETATM   11  O2  UNK     1      -2.082  -1.295   4.555  1.00  0.00    -0.275 OA
HETATM   12  O4  UNK     1       0.149  -1.290   5.055  1.00  0.00    -0.260 OA
HETATM   13  C12 UNK     1      -3.098  -1.459   3.592  1.00  0.00     0.090 A 
HETATM   14  C17 UNK     1      -4.412  -1.302   4.037  1.00  0.00     0.041 A 
HETATM   15  C9  UNK     1      -2.792  -1.762   2.265  1.00  0.00     0.009 A 
HETATM   16  C19 UNK     1      -5.457  -1.452   3.132  1.00  0.00     0.039 A 
HETATM   17  C18 UNK     1      -5.181  -1.756   1.800  1.00  0.00     0.069 A 
HETATM   18  C13 UNK     1      -3.859  -1.910   1.369  1.00  0.00     0.051 A 
BRANCH  17  19
HETATM   19  O3  UNK     1      -6.205  -1.904   0.913  1.00  0.00    -0.351 OA
BRANCH  19  20
HETATM   20  C22 UNK     1      -7.444  -2.386   1.428  1.00  0.00     0.171 C 
HETATM   21  C25 UNK     1      -8.167  -3.150   0.339  1.00  0.00     0.034 C 
ENDBRANCH  19  20
ENDBRANCH  17  19
ENDBRANCH   7   8
ENDBRANCH   1   7
BRANCH   2  22
HETATM   22  C6  UNK     1       0.710   1.711  -3.187  1.00  0.00     0.334 C 
BRANCH  22  23
HETATM   23  C8  UNK     1       2.173   1.950  -3.375  1.00  0.00     0.095 A 
HETATM   24  C11 UNK     1       3.003   1.495  -4.369  1.00  0.00     0.078 A 
HETATM   25  C16 UNK     1       2.830   0.658  -5.562  1.00  0.00     0.079 C 
HETATM   26  O1  UNK     1       4.255   1.971  -4.122  1.00  0.00    -0.293 OA
HETATM   27  C14 UNK     1       4.100   2.694  -2.979  1.00  0.00     0.187 A 
HETATM   28  N3  UNK     1       2.883   2.718  -2.487  1.00  0.00    -0.224 NA
BRANCH  27  29
HETATM   29  C20 UNK     1       5.182   3.373  -2.361  1.00  0.00     0.058 A 
HETATM   30  C21 UNK     1       5.144   4.129  -1.210  1.00  0.00     0.024 A 
HETATM   31  C23 UNK     1       6.422   4.665  -0.879  1.00  0.00     0.009 A 
HETATM   32  C24 UNK     1       7.388   4.299  -1.790  1.00  0.00     0.050 A 
HETATM   33  S1  UNK     1       6.754   3.313  -3.038  1.00  0.00    -0.098 SA
ENDBRANCH  27  29
ENDBRANCH  22  23
ENDBRANCH   2  22
TORSDOF 7
