REMARK  3 active torsions:
REMARK  status: ('A' for Active; 'I' for Inactive)
REMARK    1  A    between atoms: C4_8  and  O1_2 
REMARK    2  A    between atoms: C8_12  and  O1_2 
REMARK    3  A    between atoms: C8_12  and  C9_13 
ROOT
HETATM    1  O2  UNK     1      -3.228  -1.326  -0.232  1.00  0.00    -0.275 OA
HETATM    2  O3  UNK     1      -5.298  -2.290  -0.355  1.00  0.00    -0.260 OA
HETATM    3  C1  UNK     1      -2.148  -1.086   1.946  1.00  0.00     0.004 A 
HETATM    4  C2  UNK     1      -2.140  -0.910   0.562  1.00  0.00     0.092 A 
HETATM    5  C3  UNK     1      -3.320  -1.718   2.568  1.00  0.00    -0.043 A 
HETATM    6  C4  UNK     1       0.036   0.110   0.622  1.00  0.00     0.071 A 
HETATM    7  C5  UNK     1      -1.067  -0.320  -0.108  1.00  0.00     0.075 A 
HETATM    8  C6  UNK     1      -1.028  -0.646   2.664  1.00  0.00     0.017 A 
HETATM    9  C7  UNK     1       0.055  -0.053   2.006  1.00  0.00     0.038 A 
HETATM   10  C10 UNK     1      -4.340  -2.103   1.788  1.00  0.00     0.090 A 
HETATM   11  C11 UNK     1      -3.359  -1.921   4.054  1.00  0.00     0.049 C 
HETATM   12  C12 UNK     1      -4.346  -1.924   0.327  1.00  0.00     0.288 A 
ENDROOT
BRANCH   6  13
HETATM   13  O1  UNK     1       1.092   0.688  -0.012  1.00  0.00    -0.347 OA
BRANCH  13  14
HETATM   14  C8  UNK     1       1.004   0.823  -1.429  1.00  0.00     0.214 C 
BRANCH  14  15
HETATM   15  C9  UNK     1       2.269   1.449  -1.941  1.00  0.00    -0.034 A 
HETATM   16  C13 UNK     1       2.360   2.833  -2.042  1.00  0.00     0.011 A 
HETATM   17  C15 UNK     1       3.535   3.414  -2.519  1.00  0.00     0.024 A 
HETATM   18  C17 UNK     1       4.611   2.608  -2.891  1.00  0.00     0.034 A 
HETATM   19  C16 UNK     1       4.512   1.220  -2.787  1.00  0.00     0.024 A 
HETATM   20 Cl1  UNK     1       6.060   3.325  -3.480  1.00  0.00    -0.084 Cl
HETATM   21  C14 UNK     1       3.337   0.639  -2.310  1.00  0.00     0.011 A 
ENDBRANCH  14  15
ENDBRANCH  13  14
ENDBRANCH   6  13
TORSDOF 3
