REMARK  5 active torsions:
REMARK  status: ('A' for Active; 'I' for Inactive)
REMARK    1  A    between atoms: C12_19  and  O3_3 
REMARK    2  A    between atoms: C18_25  and  O3_3 
REMARK    3  A    between atoms: C17_24  and  O5_5 
REMARK    4  A    between atoms: C8_15  and  N1_6 
REMARK    5  A    between atoms: C1_8  and  C3_10 
ROOT
HETATM    1  O1  UNK     1      -0.133   1.841   1.987  1.00  0.00    -0.269 OA
HETATM    2  O2  UNK     1       1.367   2.237   0.231  1.00  0.00    -0.286 OA
HETATM    3  O4  UNK     1       1.701  -1.744  -0.542  1.00  0.00    -0.287 OA
HETATM    4  N2  UNK     1      -1.870  -1.837   4.568  1.00  0.00    -0.191 NA
HETATM    5  C1  UNK     1      -0.133  -0.994   1.563  1.00  0.00     0.109 C 
HETATM    6  C2  UNK     1       0.684  -0.019   0.743  1.00  0.00     0.065 A 
HETATM    7  C4  UNK     1      -0.772  -0.326   2.773  1.00  0.00     0.086 C 
HETATM    8  C5  UNK     1       0.650   1.308   0.970  1.00  0.00     0.204 A 
HETATM    9  C6  UNK     1       1.576  -0.546  -0.324  1.00  0.00     0.197 A 
HETATM   10  C7  UNK     1       2.310   0.453  -1.113  1.00  0.00     0.049 A 
HETATM   11  C8  UNK     1      -0.753   1.017   2.925  1.00  0.00     0.162 C 
HETATM   12  C10 UNK     1       2.165   1.799  -0.792  1.00  0.00     0.095 A 
HETATM   13  C13 UNK     1       3.143   0.064  -2.166  1.00  0.00     0.021 A 
HETATM   14  C15 UNK     1       2.852   2.769  -1.524  1.00  0.00     0.075 A 
HETATM   15  C17 UNK     1       3.684   2.385  -2.576  1.00  0.00     0.070 A 
HETATM   16  C19 UNK     1      -1.379  -1.161   3.765  1.00  0.00     0.100 C 
HETATM   17  C20 UNK     1       3.829   1.035  -2.896  1.00  0.00     0.038 A 
ENDROOT
BRANCH   5  18
HETATM   18  C3  UNK     1      -1.185  -1.643   0.712  1.00  0.00    -0.041 A 
HETATM   19  C11 UNK     1      -1.163  -3.020   0.522  1.00  0.00     0.008 A 
HETATM   20  C14 UNK     1      -2.141  -3.623  -0.268  1.00  0.00     0.003 A 
HETATM   21  C16 UNK     1      -3.134  -2.846  -0.864  1.00  0.00     0.037 A 
HETATM   22  C12 UNK     1      -3.150  -1.465  -0.669  1.00  0.00     0.069 A 
HETATM   23  C9  UNK     1      -2.172  -0.861   0.122  1.00  0.00     0.044 A 
BRANCH  22  24
HETATM   24  O3  UNK     1      -4.119  -0.706  -1.250  1.00  0.00    -0.347 OA
BRANCH  24  25
HETATM   25  C18 UNK     1      -3.692   0.310  -2.156  1.00  0.00     0.120 C 
HETATM   26  C21 UNK     1      -4.270   0.026  -3.535  1.00  0.00     0.040 C 
HETATM   27  C22 UNK     1      -4.129   1.667  -1.628  1.00  0.00     0.040 C 
ENDBRANCH  24  25
ENDBRANCH  22  24
ENDBRANCH   5  18
BRANCH  11  28
HETATM   28  N1  UNK     1      -1.312   1.699   3.971  1.00  0.00    -0.379 N 
HETATM   29  H10 UNK     1      -1.793   1.209   4.714  1.00  0.00     0.158 HD
HETATM   30  H11 UNK     1      -1.242   2.708   3.989  1.00  0.00     0.158 HD
ENDBRANCH  11  28
BRANCH  15  31
HETATM   31  O5  UNK     1       4.355   3.329  -3.291  1.00  0.00    -0.356 OA
HETATM   32  C23 UNK     1       5.189   2.868  -4.353  1.00  0.00     0.210 C 
ENDBRANCH  15  31
TORSDOF 5
