REMARK  3 active torsions:
REMARK  status: ('A' for Active; 'I' for Inactive)
REMARK    1  A    between atoms: C13_18  and  N1_5 
REMARK    2  A    between atoms: C14_19  and  N1_5 
REMARK    3  A    between atoms: C9_14  and  N1_5 
ROOT
HETATM    1  O1  UNK     1      -1.004   0.522  -2.970  1.00  0.00    -0.332 OA
HETATM    2  O2  UNK     1      -0.779  -0.741   1.725  1.00  0.00    -0.274 OA
HETATM    3  O3  UNK     1       2.484   0.617  -2.042  1.00  0.00    -0.289 OA
HETATM    4  O4  UNK     1      -0.720  -1.421   3.912  1.00  0.00    -0.260 OA
HETATM    5  C1  UNK     1       0.378   0.215  -3.168  1.00  0.00     0.125 C 
HETATM    6  C2  UNK     1       0.571   0.450  -0.625  1.00  0.00     0.044 C 
HETATM    7  C3  UNK     1      -0.829  -0.005  -0.596  1.00  0.00     0.048 A 
HETATM    8  C4  UNK     1       1.270   0.458  -1.946  1.00  0.00     0.196 C 
HETATM    9  C5  UNK     1      -1.553   0.082  -1.793  1.00  0.00     0.084 A 
HETATM   10  C6  UNK     1       0.840   1.141  -4.301  1.00  0.00     0.055 C 
HETATM   11  C7  UNK     1       0.523  -1.244  -3.619  1.00  0.00     0.055 C 
HETATM   12  C8  UNK     1      -1.498  -0.534   0.522  1.00  0.00     0.103 A 
HETATM   13  C9  UNK     1       1.238   0.973   0.414  1.00  0.00     0.101 C 
HETATM   14  C10 UNK     1      -2.848  -0.895   0.478  1.00  0.00    -0.001 A 
HETATM   15  C11 UNK     1      -2.910  -0.252  -1.846  1.00  0.00     0.039 A 
HETATM   16  C12 UNK     1      -3.558  -0.737  -0.712  1.00  0.00     0.017 A 
HETATM   17  C15 UNK     1      -3.485  -1.430   1.672  1.00  0.00     0.020 A 
HETATM   18  C18 UNK     1      -2.788  -1.598   2.797  1.00  0.00     0.083 A 
HETATM   19  C19 UNK     1      -1.358  -1.257   2.878  1.00  0.00     0.288 A 
ENDROOT
BRANCH  13  20
HETATM   20  N1  UNK     1       2.519   1.405   0.441  1.00  0.00    -0.390 N 
BRANCH  20  21
HETATM   21  C13 UNK     1       3.578   0.594   1.023  1.00  0.00     0.118 C 
HETATM   22  C16 UNK     1       3.323   0.336   2.499  1.00  0.00     0.026 C 
ENDBRANCH  20  21
BRANCH  20  23
HETATM   23  C14 UNK     1       2.856   2.785   0.124  1.00  0.00     0.118 C 
HETATM   24  C17 UNK     1       2.145   3.751   1.056  1.00  0.00     0.026 C 
ENDBRANCH  20  23
ENDBRANCH  13  20
TORSDOF 3
