REMARK  1 active torsions:
REMARK  status: ('A' for Active; 'I' for Inactive)
REMARK       I    between atoms: C9_14  and  N1_5 
REMARK    1  A    between atoms: C4_9  and  C9_14 
ROOT
HETATM    1 Br1  UNK     1       4.583   2.580  -0.902  1.00  0.00    -0.051 Br
HETATM    2  O1  UNK     1      -0.776  -0.111  -1.825  1.00  0.00    -0.274 OA
HETATM    3  O2  UNK     1      -2.631  -1.170  -1.013  1.00  0.00    -0.259 OA
HETATM    4  C1  UNK     1       0.959   0.620  -0.286  1.00  0.00     0.000 A 
HETATM    5  C2  UNK     1       0.465   0.509  -1.582  1.00  0.00     0.089 A 
HETATM    6  C3  UNK     1       0.172   0.085   0.814  1.00  0.00     0.037 A 
HETATM    7  C4  UNK     1      -1.007  -0.502   0.578  1.00  0.00     0.108 A 
HETATM    8  C5  UNK     1       2.194   1.242  -0.086  1.00  0.00     0.033 A 
HETATM    9  C6  UNK     1       1.169   1.001  -2.680  1.00  0.00     0.039 A 
HETATM   10  C7  UNK     1      -1.551  -0.632  -0.792  1.00  0.00     0.304 A 
HETATM   11  C8  UNK     1       2.911   1.740  -1.178  1.00  0.00     0.011 A 
HETATM   12  C10 UNK     1       2.399   1.619  -2.472  1.00  0.00     0.022 A 
ENDROOT
BRANCH   7  13
HETATM   13  C9  UNK     1      -1.725  -1.010   1.753  1.00  0.00     0.257 C 
HETATM   14  O3  UNK     1      -1.115  -1.404   2.745  1.00  0.00    -0.267 OA
HETATM   15  N1  UNK     1      -3.099  -0.986   1.594  1.00  0.00    -0.361 N 
HETATM   16  C11 UNK     1      -4.018  -1.439   2.614  1.00  0.00     0.149 C 
HETATM   17  H5  UNK     1      -3.510  -0.597   0.752  1.00  0.00     0.162 HD
ENDBRANCH   7  13
TORSDOF 1
