REMARK  5 active torsions:
REMARK  status: ('A' for Active; 'I' for Inactive)
REMARK    1  A    between atoms: C5_10  and  N1_4 
REMARK       I    between atoms: C6_11  and  N2_5 
REMARK    2  A    between atoms: C5_10  and  C7_12 
REMARK    3  A    between atoms: C6_11  and  C8_13 
REMARK    4  A    between atoms: C15_20  and  C20_25 
REMARK    5  A    between atoms: C20_25  and  C23_28 
ROOT
HETATM    1  O1  UNK     1      -1.001  -0.060  -3.688  1.00  0.00    -0.267 OA
HETATM    2  N1  UNK     1      -3.455  -1.547   0.390  1.00  0.00     0.095 N 
HETATM    3  N2  UNK     1      -1.733  -0.216  -1.485  1.00  0.00    -0.344 N 
HETATM    4  C1  UNK     1      -2.067  -1.233   0.754  1.00  0.00     0.292 C 
HETATM    5  C2  UNK     1      -3.547  -1.845  -1.045  1.00  0.00     0.292 C 
HETATM    6  C3  UNK     1      -1.541  -0.034  -0.040  1.00  0.00     0.156 C 
HETATM    7  C4  UNK     1      -3.077  -0.649  -1.870  1.00  0.00     0.156 C 
HETATM    8  C6  UNK     1      -0.813   0.103  -2.481  1.00  0.00     0.260 C 
ENDROOT
BRANCH   8   9
HETATM    9  C8  UNK     1       0.477   0.687  -2.063  1.00  0.00     0.108 A 
HETATM   10  C13 UNK     1       1.656  -0.153  -1.755  1.00  0.00     0.304 A 
HETATM   11  O2  UNK     1       2.817   0.515  -1.373  1.00  0.00    -0.273 OA
HETATM   12  O3  UNK     1       1.619  -1.376  -1.833  1.00  0.00    -0.259 OA
HETATM   13  C14 UNK     1       2.870   1.919  -1.281  1.00  0.00     0.096 A 
HETATM   14  C12 UNK     1       1.750   2.690  -1.574  1.00  0.00    -0.000 A 
HETATM   15  C15 UNK     1       4.076   2.497  -0.889  1.00  0.00    -0.020 A 
HETATM   16  C9  UNK     1       0.522   2.022  -1.978  1.00  0.00     0.037 A 
HETATM   17  C18 UNK     1       1.842   4.080  -1.471  1.00  0.00     0.014 A 
HETATM   18  C22 UNK     1       3.045   4.674  -1.079  1.00  0.00     0.002 A 
HETATM   19  C21 UNK     1       4.160   3.884  -0.789  1.00  0.00     0.010 A 
BRANCH  15  20
HETATM   20  C20 UNK     1       5.272   1.662  -0.576  1.00  0.00     0.067 C 
BRANCH  20  21
HETATM   21  C23 UNK     1       6.142   1.404  -1.779  1.00  0.00    -0.032 C 
HETATM   22  C24 UNK     1       6.382   0.190  -2.287  1.00  0.00     0.007 C 
ENDBRANCH  20  21
ENDBRANCH  15  20
ENDBRANCH   8   9
BRANCH   2  23
HETATM   23  C5  UNK     1      -3.952  -2.672   1.181  1.00  0.00     0.311 C 
BRANCH  23  24
HETATM   24  C7  UNK     1      -3.923  -2.380   2.654  1.00  0.00    -0.030 A 
HETATM   25  C10 UNK     1      -2.790  -2.693   3.395  1.00  0.00     0.009 A 
HETATM   26  C16 UNK     1      -2.764  -2.422   4.763  1.00  0.00     0.001 A 
HETATM   27  C19 UNK     1      -3.870  -1.839   5.380  1.00  0.00     0.000 A 
HETATM   28  C17 UNK     1      -5.004  -1.527   4.629  1.00  0.00     0.001 A 
HETATM   29  C11 UNK     1      -5.030  -1.799   3.261  1.00  0.00     0.009 A 
ENDBRANCH  23  24
ENDBRANCH   2  23
TORSDOF 5
