REMARK  6 active torsions:
REMARK  status: ('A' for Active; 'I' for Inactive)
REMARK    1  A    between atoms: C6_16  and  O1_3 
REMARK    2  A    between atoms: C8_18  and  O1_3 
REMARK       I    between atoms: C10_20  and  N1_9 
REMARK    3  A    between atoms: C3_13  and  N1_9 
REMARK       I    between atoms: C7_17  and  N2_10 
REMARK    4  A    between atoms: C2_12  and  C6_16 
REMARK    5  A    between atoms: C4_14  and  C7_17 
REMARK    6  A    between atoms: C10_20  and  C9_19 
ROOT
HETATM    1  S1  UNK     1      -2.524  -1.501  -0.292  1.00  0.00    -0.065 SA
HETATM    2  C1  UNK     1      -2.792  -1.332   2.257  1.00  0.00    -0.020 A 
HETATM    3  C2  UNK     1      -1.524  -0.758   1.954  1.00  0.00     0.080 A 
HETATM    4  C3  UNK     1      -1.276  -0.795   0.619  1.00  0.00     0.094 A 
HETATM    5  C4  UNK     1      -3.442  -1.777   1.127  1.00  0.00     0.081 A 
HETATM    6  C5  UNK     1      -3.348  -1.439   3.630  1.00  0.00     0.051 C 
ENDROOT
BRANCH   4   7
HETATM    7  N1  UNK     1      -0.170  -0.348  -0.111  1.00  0.00    -0.316 N 
HETATM    8  C10 UNK     1      -0.010  -0.432  -1.487  1.00  0.00     0.262 C 
HETATM    9  O5  UNK     1      -0.782  -0.900  -2.322  1.00  0.00    -0.267 OA
HETATM   10  H4  UNK     1       0.570   0.079   0.440  1.00  0.00     0.169 HD
BRANCH   8  11
HETATM   11  C9  UNK     1       1.272   0.133  -1.924  1.00  0.00     0.108 A 
HETATM   12  C12 UNK     1       1.273   1.437  -2.225  1.00  0.00     0.037 A 
HETATM   13  C11 UNK     1       2.497   2.087  -2.667  1.00  0.00     0.001 A 
HETATM   14  C19 UNK     1       2.543   3.445  -2.993  1.00  0.00     0.038 A 
HETATM   15  C13 UNK     1       3.660   1.331  -2.770  1.00  0.00     0.089 A 
HETATM   16  C21 UNK     1       3.745   4.022  -3.413  1.00  0.00     0.035 A 
HETATM   17  C22 UNK     1       4.903   3.248  -3.511  1.00  0.00     0.026 A 
HETATM   18 Cl1  UNK     1       3.798   5.696  -3.812  1.00  0.00    -0.084 Cl
HETATM   19  C20 UNK     1       4.865   1.893  -3.188  1.00  0.00     0.040 A 
HETATM   20  O2  UNK     1       3.654  -0.041  -2.451  1.00  0.00    -0.274 OA
HETATM   21  C16 UNK     1       2.498  -0.690  -2.025  1.00  0.00     0.304 A 
HETATM   22  O6  UNK     1       2.502  -1.885  -1.750  1.00  0.00    -0.259 OA
ENDBRANCH   8  11
ENDBRANCH   4   7
BRANCH   3  23
HETATM   23  C6  UNK     1      -0.605  -0.203   2.917  1.00  0.00     0.297 C 
HETATM   24  O3  UNK     1      -0.512  -0.596   4.089  1.00  0.00    -0.259 OA
BRANCH  23  25
HETATM   25  O1  UNK     1       0.177   0.817   2.420  1.00  0.00    -0.313 OA
BRANCH  25  26
HETATM   26  C8  UNK     1       1.479   0.973   2.995  1.00  0.00     0.124 C 
HETATM   27  C14 UNK     1       2.266  -0.315   2.808  1.00  0.00     0.040 C 
HETATM   28  C15 UNK     1       2.173   2.161   2.347  1.00  0.00     0.040 C 
ENDBRANCH  25  26
ENDBRANCH  23  25
ENDBRANCH   3  23
BRANCH   5  29
HETATM   29  C7  UNK     1      -4.719  -2.405   1.006  1.00  0.00     0.260 C 
HETATM   30  O4  UNK     1      -4.844  -3.647   1.062  1.00  0.00    -0.267 OA
HETATM   31  N2  UNK     1      -5.870  -1.587   0.818  1.00  0.00    -0.356 N 
HETATM   32  C17 UNK     1      -5.830  -0.126   0.765  1.00  0.00     0.152 C 
HETATM   33  C18 UNK     1      -7.194  -2.182   0.689  1.00  0.00     0.152 C 
ENDBRANCH   5  29
TORSDOF 6
