REMARK  7 active torsions:
REMARK  status: ('A' for Active; 'I' for Inactive)
REMARK    1  A    between atoms: C4_7  and  O1_1 
REMARK    2  A    between atoms: C1_4  and  N1_3 
REMARK       I    between atoms: C5_8  and  N1_3 
REMARK    3  A    between atoms: C1_4  and  C2_5 
REMARK    4  A    between atoms: C2_5  and  C4_7 
REMARK    5  A    between atoms: C3_6  and  C5_8 
REMARK    6  A    between atoms: C3_6  and  C6_9 
REMARK    7  A    between atoms: C7_10  and  C8_11 
ROOT
HETATM    1  C3  UNK     1       1.270   0.700  -0.638  1.00  0.00     0.043 C 
HETATM    2  C7  UNK     1       1.470   0.919   0.678  1.00  0.00     0.029 C 
ENDROOT
BRANCH   1   3
HETATM    3  C5  UNK     1       0.148  -0.245  -0.989  1.00  0.00     0.252 C 
HETATM    4  O2  UNK     1       0.330  -1.457  -1.085  1.00  0.00    -0.268 OA
HETATM    5  N1  UNK     1      -1.083   0.369  -1.182  1.00  0.00    -0.357 N 
HETATM    6  H5  UNK     1      -1.161   1.377  -1.075  1.00  0.00     0.162 HD
BRANCH   5   7
HETATM    7  C1  UNK     1      -2.269  -0.372  -1.515  1.00  0.00     0.125 C 
BRANCH   7   8
HETATM    8  C2  UNK     1      -3.040  -0.825  -0.281  1.00  0.00     0.046 C 
BRANCH   8   9
HETATM    9  C4  UNK     1      -4.288  -1.629  -0.627  1.00  0.00     0.168 C 
BRANCH   9  10
HETATM   10  O1  UNK     1      -4.946  -1.991   0.580  1.00  0.00    -0.396 OA
HETATM   11  C19 UNK     1      -6.110  -2.767   0.326  1.00  0.00     0.201 C 
ENDBRANCH   9  10
ENDBRANCH   8   9
ENDBRANCH   7   8
ENDBRANCH   5   7
ENDBRANCH   1   3
BRANCH   1  12
HETATM   12  C6  UNK     1       2.111   1.331  -1.675  1.00  0.00    -0.021 A 
HETATM   13  C10 UNK     1       2.317   0.669  -2.873  1.00  0.00     0.012 A 
HETATM   14  C14 UNK     1       3.112   1.265  -3.852  1.00  0.00     0.001 A 
HETATM   15  C15 UNK     1       3.687   2.514  -3.618  1.00  0.00     0.000 A 
HETATM   16  C13 UNK     1       3.468   3.167  -2.406  1.00  0.00     0.001 A 
HETATM   17  C9  UNK     1       2.674   2.571  -1.426  1.00  0.00     0.012 A 
ENDBRANCH   1  12
BRANCH   2  18
HETATM   18  C8  UNK     1       0.685   0.336   1.776  1.00  0.00    -0.035 A 
HETATM   19  C11 UNK     1      -0.425   1.015   2.256  1.00  0.00     0.011 A 
HETATM   20  C16 UNK     1      -1.170   0.462   3.297  1.00  0.00     0.001 A 
HETATM   21  C18 UNK     1      -0.797  -0.764   3.847  1.00  0.00     0.000 A 
HETATM   22  C17 UNK     1       0.321  -1.437   3.355  1.00  0.00     0.001 A 
HETATM   23  C12 UNK     1       1.067  -0.884   2.314  1.00  0.00     0.011 A 
ENDBRANCH   2  18
TORSDOF 7
