REMARK  6 active torsions:
REMARK  status: ('A' for Active; 'I' for Inactive)
REMARK    1  A    between atoms: C2_8  and  O1_4 
REMARK    2  A    between atoms: C4_10  and  O1_4 
REMARK    3  A    between atoms: C3_9  and  O2_5 
REMARK    4  A    between atoms: C1_7  and  C9_15 
REMARK    5  A    between atoms: C4_10  and  C8_14 
REMARK    6  A    between atoms: C10_16  and  C11_17 
ROOT
HETATM    1  N1  UNK     1       1.503   3.835  -0.401  1.00  0.00    -0.191 NA
HETATM    2  C9  UNK     1       2.180   0.604  -1.400  1.00  0.00     0.036 C 
HETATM    3  C10 UNK     1       2.752   1.834  -1.495  1.00  0.00     0.055 C 
HETATM    4  C23 UNK     1       2.053   2.935  -0.887  1.00  0.00     0.100 C 
ENDROOT
BRANCH   3   5
HETATM    5  C11 UNK     1       4.019   2.088  -2.164  1.00  0.00    -0.014 A 
HETATM    6  C14 UNK     1       4.039   2.410  -3.521  1.00  0.00     0.036 A 
HETATM    7  C19 UNK     1       5.253   2.655  -4.162  1.00  0.00     0.034 A 
HETATM    8 Cl1  UNK     1       5.280   3.055  -5.836  1.00  0.00    -0.084 Cl
HETATM    9  C21 UNK     1       6.448   2.577  -3.446  1.00  0.00     0.024 A 
HETATM   10  C20 UNK     1       6.428   2.254  -2.089  1.00  0.00     0.003 A 
HETATM   11  C15 UNK     1       5.213   2.009  -1.448  1.00  0.00     0.013 A 
ENDBRANCH   3   5
BRANCH   2  12
HETATM   12  C1  UNK     1       0.907   0.301  -0.729  1.00  0.00    -0.015 A 
HETATM   13  C5  UNK     1       0.966  -0.040   0.617  1.00  0.00     0.052 A 
HETATM   14  C3  UNK     1      -0.210  -0.337   1.304  1.00  0.00     0.102 A 
HETATM   15  C2  UNK     1      -1.436  -0.291   0.640  1.00  0.00     0.103 A 
HETATM   16  C7  UNK     1      -1.485   0.052  -0.711  1.00  0.00     0.059 A 
HETATM   17  C6  UNK     1      -0.309   0.350  -1.398  1.00  0.00     0.024 A 
HETATM   18 Br1  UNK     1      -0.446   0.810  -3.237  1.00  0.00    -0.050 Br
BRANCH  14  19
HETATM   19  O2  UNK     1      -0.150  -0.672   2.623  1.00  0.00    -0.353 OA
HETATM   20  C22 UNK     1      -0.246   0.394   3.567  1.00  0.00     0.210 C 
ENDBRANCH  14  19
BRANCH  15  21
HETATM   21  O1  UNK     1      -2.592  -0.579   1.301  1.00  0.00    -0.344 OA
BRANCH  21  22
HETATM   22  C4  UNK     1      -3.652  -1.148   0.535  1.00  0.00     0.214 C 
BRANCH  22  23
HETATM   23  C8  UNK     1      -4.495  -2.010   1.428  1.00  0.00    -0.034 A 
HETATM   24  C12 UNK     1      -4.183  -3.356   1.580  1.00  0.00     0.012 A 
HETATM   25  C16 UNK     1      -4.966  -4.157   2.411  1.00  0.00     0.043 A 
HETATM   26  C18 UNK     1      -6.056  -3.606   3.085  1.00  0.00     0.116 A 
HETATM   27  C17 UNK     1      -6.363  -2.254   2.928  1.00  0.00     0.043 A 
HETATM   28  F1  UNK     1      -6.809  -4.375   3.883  1.00  0.00    -0.206 F 
HETATM   29  C13 UNK     1      -5.579  -1.454   2.097  1.00  0.00     0.012 A 
ENDBRANCH  22  23
ENDBRANCH  21  22
ENDBRANCH  15  21
ENDBRANCH   2  12
TORSDOF 6
