REMARK  5 active torsions:
REMARK  status: ('A' for Active; 'I' for Inactive)
REMARK    1  A    between atoms: C10_17  and  O2_2 
REMARK    2  A    between atoms: C3_10  and  O2_2 
REMARK    3  A    between atoms: C11_18  and  O3_3 
REMARK    4  A    between atoms: C4_11  and  O3_3 
REMARK    5  A    between atoms: C5_12  and  O4_4 
ROOT
HETATM    1  O1  UNK     1      -1.368  -1.013   1.615  1.00  0.00    -0.272 OA
HETATM    2  O5  UNK     1      -3.058  -1.667   3.015  1.00  0.00    -0.260 OA
HETATM    3  C1  UNK     1      -1.874  -0.563  -0.723  1.00  0.00     0.004 A 
HETATM    4  C2  UNK     1      -0.956  -0.630   0.322  1.00  0.00     0.126 A 
HETATM    5  C3  UNK     1       0.391  -0.326   0.135  1.00  0.00     0.150 A 
HETATM    6  C4  UNK     1       0.827   0.055  -1.132  1.00  0.00     0.149 A 
HETATM    7  C5  UNK     1      -0.079   0.128  -2.192  1.00  0.00     0.105 A 
HETATM    8  C6  UNK     1      -1.428  -0.180  -1.990  1.00  0.00     0.054 A 
HETATM    9  C7  UNK     1      -3.264  -0.893  -0.457  1.00  0.00     0.020 A 
HETATM   10  C8  UNK     1      -3.646  -1.254   0.771  1.00  0.00     0.083 A 
HETATM   11  C9  UNK     1      -2.693  -1.333   1.893  1.00  0.00     0.288 A 
ENDROOT
BRANCH   5  12
HETATM   12  O2  UNK     1       1.269  -0.400   1.173  1.00  0.00    -0.273 OA
BRANCH  12  13
HETATM   13  C10 UNK     1       1.402   0.796   1.898  1.00  0.00     0.260 C 
HETATM   14  O6  UNK     1       0.811   1.842   1.666  1.00  0.00    -0.265 OA
HETATM   15  C13 UNK     1       2.386   0.612   3.014  1.00  0.00     0.126 C 
ENDBRANCH  12  13
ENDBRANCH   5  12
BRANCH   6  16
HETATM   16  O3  UNK     1       2.141   0.355  -1.339  1.00  0.00    -0.273 OA
BRANCH  16  17
HETATM   17  C11 UNK     1       2.456   1.709  -1.139  1.00  0.00     0.260 C 
HETATM   18  O7  UNK     1       1.669   2.587  -0.811  1.00  0.00    -0.265 OA
HETATM   19  C14 UNK     1       3.917   1.936  -1.390  1.00  0.00     0.126 C 
ENDBRANCH  16  17
ENDBRANCH   6  16
BRANCH   7  20
HETATM   20  O4  UNK     1       0.340   0.499  -3.434  1.00  0.00    -0.353 OA
HETATM   21  C12 UNK     1      -0.647   0.549  -4.462  1.00  0.00     0.210 C 
ENDBRANCH   7  20
TORSDOF 5
