REMARK  5 active torsions:
REMARK  status: ('A' for Active; 'I' for Inactive)
REMARK    1  A    between atoms: C2_11  and  O1_1 
REMARK    2  A    between atoms: C3_12  and  O1_1 
REMARK    3  A    between atoms: C1_10  and  N1_6 
REMARK    4  A    between atoms: C12_21  and  N4_9 
REMARK    5  A    between atoms: C1_10  and  C2_11 
ROOT
HETATM    1  O2  UNK     1      -2.986  -1.135   2.462  1.00  0.00    -0.275 OA
HETATM    2  O3  UNK     1      -5.055  -1.305   3.430  1.00  0.00    -0.260 OA
HETATM    3  C3  UNK     1      -0.020  -1.005   0.297  1.00  0.00     0.071 A 
HETATM    4  C4  UNK     1      -2.773  -1.462   0.060  1.00  0.00    -0.002 A 
HETATM    5  C5  UNK     1      -2.195  -1.188   1.296  1.00  0.00     0.092 A 
HETATM    6  C6  UNK     1      -0.827  -0.958   1.432  1.00  0.00     0.075 A 
HETATM    7  C7  UNK     1      -0.582  -1.278  -0.952  1.00  0.00     0.038 A 
HETATM    8  C8  UNK     1      -1.956  -1.507  -1.072  1.00  0.00     0.017 A 
HETATM    9  C9  UNK     1      -4.206  -1.693  -0.009  1.00  0.00     0.020 A 
HETATM   10  C11 UNK     1      -4.948  -1.640   1.100  1.00  0.00     0.083 A 
HETATM   11  C13 UNK     1      -4.360  -1.351   2.421  1.00  0.00     0.288 A 
ENDROOT
BRANCH   3  12
HETATM   12  O1  UNK     1       1.319  -0.783   0.405  1.00  0.00    -0.349 OA
BRANCH  12  13
HETATM   13  C2  UNK     1       1.751   0.089   1.449  1.00  0.00     0.197 C 
BRANCH  13  14
HETATM   14  C1  UNK     1       3.035   0.793   1.031  1.00  0.00     0.179 C 
BRANCH  14  15
HETATM   15  N1  UNK     1       2.856   1.625  -0.157  1.00  0.00    -0.258 N 
HETATM   16  C10 UNK     1       2.502   2.924  -0.195  1.00  0.00     0.232 A 
HETATM   17  N3  UNK     1       2.448   3.315  -1.447  1.00  0.00    -0.201 NA
HETATM   18  C12 UNK     1       2.789   2.179  -2.124  1.00  0.00     0.311 A 
HETATM   19  N2  UNK     1       3.050   1.110  -1.369  1.00  0.00    -0.127 NA
BRANCH  18  20
HETATM   20  N4  UNK     1       2.872   2.097  -3.515  1.00  0.00    -0.074 N 
HETATM   21  O4  UNK     1       2.621   3.117  -4.219  1.00  0.00    -0.529 OA
HETATM   22  O5  UNK     1       3.196   1.001  -4.059  1.00  0.00    -0.529 OA
ENDBRANCH  18  20
ENDBRANCH  14  15
ENDBRANCH  13  14
ENDBRANCH  12  13
ENDBRANCH   3  12
TORSDOF 5
