REMARK  7 active torsions:
REMARK  status: ('A' for Active; 'I' for Inactive)
REMARK    1  A    between atoms: C12_20  and  O2_2 
REMARK    2  A    between atoms: C13_21  and  O3_3 
REMARK    3  A    between atoms: C19_27  and  O3_3 
REMARK    4  A    between atoms: C12_20  and  C2_10 
REMARK    5  A    between atoms: C11_19  and  C6_14 
REMARK    6  A    between atoms: C13_21  and  C8_16 
REMARK    7  A    between atoms: C19_27  and  C22_30 
ROOT
HETATM    1  O1  UNK     1      -1.558  -2.213  -0.173  1.00  0.00    -0.292 OA
HETATM    2  N1  UNK     1      -0.215   0.690   3.320  1.00  0.00    -0.362 N 
HETATM    3  C1  UNK     1      -3.597  -0.754   2.446  1.00  0.00     0.008 C 
HETATM    4  C2  UNK     1      -3.095  -1.972   1.659  1.00  0.00     0.164 C 
HETATM    5  C3  UNK     1      -2.476  -0.266   3.378  1.00  0.00     0.063 C 
HETATM    6  C4  UNK     1      -0.849  -0.694   1.505  1.00  0.00     0.025 C 
HETATM    7  C5  UNK     1      -1.149  -0.104   2.681  1.00  0.00     0.020 C 
HETATM    8  C6  UNK     1       0.489  -0.441   0.813  1.00  0.00     0.104 C 
HETATM    9  C7  UNK     1      -1.822  -1.654   0.891  1.00  0.00     0.172 C 
HETATM   10  C8  UNK     1       1.482   0.291   1.719  1.00  0.00     0.052 C 
HETATM   11  C9  UNK     1      -4.105   0.386   1.549  1.00  0.00     0.011 C 
HETATM   12  C10 UNK     1       1.094   0.843   2.892  1.00  0.00     0.018 C 
HETATM   13  C14 UNK     1       1.979   1.630   3.821  1.00  0.00     0.069 C 
HETATM   14  H9  UNK     1      -0.476   1.110   4.204  1.00  0.00     0.165 HD
ENDROOT
BRANCH   8  15
HETATM   15  C11 UNK     1       0.285   0.332  -0.467  1.00  0.00     0.029 A 
HETATM   16  C15 UNK     1       0.681  -0.301  -1.750  1.00  0.00     0.194 A 
HETATM   17  O7  UNK     1       1.164  -1.425  -1.799  1.00  0.00    -0.287 OA
HETATM   18  C17 UNK     1       0.461   0.499  -2.969  1.00  0.00     0.049 A 
HETATM   19  C18 UNK     1      -0.093   1.774  -2.853  1.00  0.00     0.089 A 
HETATM   20  C20 UNK     1       0.800  -0.009  -4.225  1.00  0.00     0.025 A 
HETATM   21  O4  UNK     1      -0.445   2.322  -1.645  1.00  0.00    -0.321 OA
HETATM   22  C23 UNK     1      -0.310   2.548  -3.993  1.00  0.00     0.039 A 
HETATM   23  C16 UNK     1      -0.234   1.566  -0.518  1.00  0.00     0.154 A 
HETATM   24  C26 UNK     1       0.028   2.043  -5.248  1.00  0.00     0.009 A 
HETATM   25  C24 UNK     1       0.582   0.768  -5.364  1.00  0.00    -0.061 A 
HETATM   26  C28 UNK     1       0.941   0.233  -6.710  1.00  0.00     0.048 C 
ENDBRANCH   8  15
BRANCH  10  27
HETATM   27  C13 UNK     1       2.888   0.313   1.280  1.00  0.00     0.292 C 
HETATM   28  O6  UNK     1       3.687  -0.563   1.552  1.00  0.00    -0.259 OA
BRANCH  27  29
HETATM   29  O3  UNK     1       3.091   1.440   0.557  1.00  0.00    -0.313 OA
BRANCH  29  30
HETATM   30  C19 UNK     1       4.421   1.607   0.055  1.00  0.00     0.127 C 
HETATM   31  C25 UNK     1       5.391   1.627   1.229  1.00  0.00     0.040 C 
BRANCH  30  32
HETATM   32  C22 UNK     1       4.495   2.908  -0.747  1.00  0.00     0.027 C 
HETATM   33  C27 UNK     1       3.505   2.930  -1.904  1.00  0.00     0.007 C 
ENDBRANCH  30  32
ENDBRANCH  29  30
ENDBRANCH  27  29
ENDBRANCH  10  27
BRANCH   4  34
HETATM   34  C12 UNK     1      -4.188  -2.542   0.808  1.00  0.00     0.270 C 
HETATM   35  O5  UNK     1      -4.114  -2.671  -0.407  1.00  0.00    -0.264 OA
BRANCH  34  36
HETATM   36  O2  UNK     1      -5.249  -2.881   1.595  1.00  0.00    -0.326 OA
HETATM   37  C21 UNK     1      -6.371  -3.441   0.906  1.00  0.00     0.213 C 
ENDBRANCH  34  36
ENDBRANCH   4  34
TORSDOF 7
