REMARK  6 active torsions:
REMARK  status: ('A' for Active; 'I' for Inactive)
REMARK    1  A    between atoms: C16_22  and  O2_2 
REMARK    2  A    between atoms: C7_13  and  O2_2 
REMARK    3  A    between atoms: C15_21  and  O4_4 
REMARK    4  A    between atoms: C17_23  and  O5_5 
REMARK    5  A    between atoms: C10_16  and  C8_14 
REMARK    6  A    between atoms: C16_22  and  C17_23 
ROOT
HETATM    1  O1  UNK     1      -0.853  -0.124  -0.289  1.00  0.00    -0.306 OA
HETATM    2  O3  UNK     1      -1.481  -2.497  -2.841  1.00  0.00    -0.284 OA
HETATM    3  C1  UNK     1      -0.143  -0.545  -2.447  1.00  0.00     0.051 A 
HETATM    4  C2  UNK     1      -0.041   0.276  -1.326  1.00  0.00     0.093 A 
HETATM    5  C3  UNK     1      -1.517  -1.256  -0.746  1.00  0.00     0.127 A 
HETATM    6  C4  UNK     1      -1.110  -1.589  -2.132  1.00  0.00     0.218 A 
HETATM    7  C5  UNK     1       0.804   1.365  -1.313  1.00  0.00     0.075 A 
HETATM    8  C6  UNK     1       0.585  -0.323  -3.597  1.00  0.00     0.021 A 
HETATM    9  C7  UNK     1       1.554   1.613  -2.467  1.00  0.00     0.072 A 
HETATM   10  C8  UNK     1      -2.404  -1.953  -0.034  1.00  0.00     0.053 C 
HETATM   11  C9  UNK     1       1.445   0.777  -3.598  1.00  0.00     0.038 A 
ENDROOT
BRANCH  10  12
HETATM   12  C10 UNK     1      -2.834  -1.652   1.345  1.00  0.00    -0.033 A 
HETATM   13  C12 UNK     1      -3.907  -0.802   1.549  1.00  0.00     0.014 A 
HETATM   14  C14 UNK     1      -4.313  -0.518   2.853  1.00  0.00     0.037 A 
HETATM   15  C15 UNK     1      -3.641  -1.089   3.933  1.00  0.00     0.068 A 
HETATM   16  C13 UNK     1      -2.561  -1.944   3.710  1.00  0.00     0.037 A 
HETATM   17  C11 UNK     1      -2.155  -2.228   2.406  1.00  0.00     0.014 A 
BRANCH  15  18
HETATM   18  O4  UNK     1      -4.036  -0.811   5.206  1.00  0.00    -0.356 OA
HETATM   19  C18 UNK     1      -5.147   0.071   5.362  1.00  0.00     0.210 C 
ENDBRANCH  15  18
ENDBRANCH  10  12
BRANCH   9  20
HETATM   20  O2  UNK     1       2.403   2.678  -2.502  1.00  0.00    -0.341 OA
BRANCH  20  21
HETATM   21  C16 UNK     1       2.985   3.082  -1.264  1.00  0.00     0.286 C 
BRANCH  21  22
HETATM   22  C17 UNK     1       4.332   3.699  -1.538  1.00  0.00     0.282 C 
HETATM   23  O6  UNK     1       4.840   3.809  -2.645  1.00  0.00    -0.263 OA
BRANCH  22  24
HETATM   24  O5  UNK     1       4.881   4.109  -0.357  1.00  0.00    -0.325 OA
HETATM   25  C19 UNK     1       6.171   4.720  -0.457  1.00  0.00     0.213 C 
ENDBRANCH  22  24
ENDBRANCH  21  22
ENDBRANCH  20  21
ENDBRANCH   9  20
TORSDOF 6
