REMARK  3 active torsions:
REMARK  status: ('A' for Active; 'I' for Inactive)
REMARK    1  A    between atoms: C1_9  and  N1_8 
REMARK       I    between atoms: C7_15  and  N1_8 
REMARK    2  A    between atoms: C12_20  and  C2_10 
REMARK    3  A    between atoms: C4_12  and  C7_15 
ROOT
HETATM    1  O2  UNK     1       0.842   0.792   1.992  1.00  0.00    -0.267 OA
HETATM    2  N1  UNK     1      -0.696  -0.147   0.477  1.00  0.00    -0.322 N 
HETATM    3  C7  UNK     1       0.442   0.551   0.855  1.00  0.00     0.262 C 
HETATM    4  H2  UNK     1      -0.866  -0.275  -0.517  1.00  0.00     0.169 HD
ENDROOT
BRANCH   2   5
HETATM    5  C1  UNK     1      -1.663  -0.746   1.321  1.00  0.00     0.050 A 
HETATM    6  C2  UNK     1      -2.748  -1.412   0.776  1.00  0.00     0.076 A 
HETATM    7  C9  UNK     1      -3.689  -1.995   1.624  1.00  0.00     0.042 A 
HETATM    8  C15 UNK     1      -3.531  -1.905   3.007  1.00  0.00     0.035 A 
HETATM    9  C14 UNK     1      -2.433  -1.231   3.542  1.00  0.00     0.026 A 
HETATM   10 Cl1  UNK     1      -4.693  -2.621   4.056  1.00  0.00    -0.084 Cl
HETATM   11  C8  UNK     1      -1.492  -0.648   2.693  1.00  0.00     0.032 A 
BRANCH   6  12
HETATM   12  C12 UNK     1      -2.942  -1.524  -0.702  1.00  0.00     0.419 C 
HETATM   13  F1  UNK     1      -4.066  -2.214  -1.053  1.00  0.00    -0.166 F 
HETATM   14  F2  UNK     1      -3.051  -0.317  -1.329  1.00  0.00    -0.166 F 
HETATM   15  F3  UNK     1      -1.908  -2.167  -1.317  1.00  0.00    -0.166 F 
ENDBRANCH   6  12
ENDBRANCH   2   5
BRANCH   3  16
HETATM   16  C4  UNK     1       1.209   1.027  -0.303  1.00  0.00     0.108 A 
HETATM   17  C10 UNK     1       0.560   1.370  -1.588  1.00  0.00     0.304 A 
HETATM   18  O1  UNK     1       1.394   1.811  -2.612  1.00  0.00    -0.274 OA
HETATM   19  O3  UNK     1      -0.652   1.273  -1.749  1.00  0.00    -0.259 OA
HETATM   20  C5  UNK     1       2.787   1.927  -2.437  1.00  0.00     0.089 A 
HETATM   21  C13 UNK     1       3.540   2.378  -3.520  1.00  0.00     0.038 A 
HETATM   22  C3  UNK     1       3.377   1.600  -1.221  1.00  0.00    -0.001 A 
HETATM   23  C17 UNK     1       4.920   2.503  -3.378  1.00  0.00     0.003 A 
HETATM   24  C16 UNK     1       5.530   2.178  -2.164  1.00  0.00     0.001 A 
HETATM   25  C11 UNK     1       4.762   1.728  -1.087  1.00  0.00     0.014 A 
HETATM   26  C6  UNK     1       2.532   1.136  -0.131  1.00  0.00     0.037 A 
ENDBRANCH   3  16
TORSDOF 3
