REMARK  3 active torsions:
REMARK  status: ('A' for Active; 'I' for Inactive)
REMARK    1  A    between atoms: C1_7  and  N1_5 
REMARK    2  A    between atoms: C3_9  and  N1_5 
REMARK    3  A    between atoms: C6_12  and  N2_6 
ROOT
HETATM    1  O1  UNK     1      -2.164  -1.934   1.526  1.00  0.00    -0.273 OA
HETATM    2  O2  UNK     1      -0.881  -1.771   3.405  1.00  0.00    -0.257 OA
HETATM    3  C1  UNK     1      -0.850   0.406   0.518  1.00  0.00     0.085 A 
HETATM    4  C2  UNK     1      -1.909  -0.279  -0.266  1.00  0.00     0.027 A 
HETATM    5  C5  UNK     1      -2.523  -1.420   0.264  1.00  0.00     0.092 A 
HETATM    6  C6  UNK     1      -0.564  -0.139   1.712  1.00  0.00     0.205 A 
HETATM    7  C10 UNK     1      -2.352   0.144  -1.531  1.00  0.00     0.017 A 
HETATM    8  C12 UNK     1      -1.190  -1.331   2.304  1.00  0.00     0.324 A 
HETATM    9  C13 UNK     1      -3.527  -2.121  -0.412  1.00  0.00     0.038 A 
HETATM   10  C16 UNK     1      -3.357  -0.548  -2.220  1.00  0.00     0.001 A 
HETATM   11  C17 UNK     1      -3.944  -1.680  -1.661  1.00  0.00     0.003 A 
ENDROOT
BRANCH   3  12
HETATM   12  N1  UNK     1      -0.259   1.517  -0.028  1.00  0.00    -0.353 N 
HETATM   13  H1  UNK     1      -0.855   2.337  -0.082  1.00  0.00     0.166 HD
BRANCH  12  14
HETATM   14  C3  UNK     1       0.875   1.548  -0.838  1.00  0.00     0.033 A 
HETATM   15  C8  UNK     1       1.540   0.362  -1.181  1.00  0.00     0.036 A 
HETATM   16  C4  UNK     1       2.674   0.393  -1.993  1.00  0.00    -0.054 A 
HETATM   17  C14 UNK     1       3.357  -0.890  -2.336  1.00  0.00     0.049 C 
HETATM   18  C7  UNK     1       3.156   1.612  -2.471  1.00  0.00    -0.056 A 
HETATM   19  C11 UNK     1       2.503   2.799  -2.138  1.00  0.00     0.009 A 
HETATM   20  C15 UNK     1       4.368   1.671  -3.342  1.00  0.00     0.049 C 
HETATM   21  C9  UNK     1       1.369   2.767  -1.326  1.00  0.00     0.030 A 
ENDBRANCH  12  14
ENDBRANCH   3  12
BRANCH   6  22
HETATM   22  N2  UNK     1       0.449   0.492   2.497  1.00  0.00    -0.107 N 
HETATM   23  O3  UNK     1       0.987   1.495   2.016  1.00  0.00    -0.531 OA
HETATM   24  O4  UNK     1       0.707  -0.015   3.594  1.00  0.00    -0.531 OA
ENDBRANCH   6  22
TORSDOF 3
