REMARK  7 active torsions:
REMARK  status: ('A' for Active; 'I' for Inactive)
REMARK    1  A    between atoms: C9_19  and  O3_6 
REMARK    2  A    between atoms: C19_29  and  O5_8 
REMARK    3  A    between atoms: C21_31  and  O6_9 
REMARK    4  A    between atoms: C1_11  and  N1_10 
REMARK    5  A    between atoms: C1_11  and  C4_14 
REMARK    6  A    between atoms: C10_20  and  C15_25 
REMARK    7  A    between atoms: C13_23  and  C16_26 
ROOT
HETATM    1  O2  UNK     1       0.602   0.058   0.259  1.00  0.00    -0.303 OA
HETATM    2  O4  UNK     1       0.235  -2.228   3.604  1.00  0.00    -0.286 OA
HETATM    3  C4  UNK     1       0.404   2.044   1.515  1.00  0.00     0.038 A 
HETATM    4  C7  UNK     1       0.438   0.650   1.482  1.00  0.00     0.101 A 
HETATM    5  C8  UNK     1       0.308  -0.077   2.660  1.00  0.00     0.050 A 
HETATM    6  C9  UNK     1       0.239   2.707   2.731  1.00  0.00     0.076 A 
HETATM    7  C10 UNK     1       0.531  -2.150   1.245  1.00  0.00     0.064 A 
HETATM    8  C11 UNK     1       0.348  -1.544   2.595  1.00  0.00     0.198 A 
HETATM    9  C12 UNK     1       0.142   0.582   3.881  1.00  0.00     0.021 A 
HETATM   10  C13 UNK     1       0.645  -1.328   0.179  1.00  0.00     0.174 A 
HETATM   11  C14 UNK     1       0.108   1.976   3.913  1.00  0.00     0.038 A 
ENDROOT
BRANCH   7  12
HETATM   12  C15 UNK     1       0.581  -3.600   1.115  1.00  0.00    -0.016 A 
HETATM   13  C17 UNK     1       1.804  -4.264   1.205  1.00  0.00     0.052 A 
HETATM   14  C19 UNK     1       1.851  -5.653   1.082  1.00  0.00     0.102 A 
HETATM   15  C21 UNK     1       0.677  -6.375   0.869  1.00  0.00     0.101 A 
HETATM   16  C20 UNK     1      -0.545  -5.708   0.780  1.00  0.00     0.040 A 
HETATM   17  C18 UNK     1      -0.593  -4.320   0.903  1.00  0.00     0.015 A 
BRANCH  14  18
HETATM   18  O5  UNK     1       3.051  -6.293   1.169  1.00  0.00    -0.353 OA
HETATM   19  C22 UNK     1       3.467  -6.716   2.466  1.00  0.00     0.210 C 
ENDBRANCH  14  18
BRANCH  15  20
HETATM   20  O6  UNK     1       0.711  -7.731   0.746  1.00  0.00    -0.353 OA
HETATM   21  C23 UNK     1       0.883  -8.259  -0.567  1.00  0.00     0.210 C 
ENDBRANCH  15  20
ENDBRANCH   7  12
BRANCH  10  22
HETATM   22  C16 UNK     1       0.833  -1.789  -1.240  1.00  0.00     0.440 C 
HETATM   23  F1  UNK     1       0.872  -3.133  -1.304  1.00  0.00    -0.164 F 
HETATM   24  F2  UNK     1      -0.180  -1.363  -2.019  1.00  0.00    -0.164 F 
HETATM   25  F3  UNK     1       1.983  -1.311  -1.752  1.00  0.00    -0.164 F 
ENDBRANCH  10  22
BRANCH   3  26
HETATM   26  C1  UNK     1       0.544   2.835   0.253  1.00  0.00     0.317 C 
BRANCH  26  27
HETATM   27  N1  UNK     1      -0.433   3.919   0.168  1.00  0.00     0.097 N 
HETATM   28  C2  UNK     1      -1.803   3.390   0.205  1.00  0.00     0.299 C 
HETATM   29  C5  UNK     1      -2.804   4.537   0.103  1.00  0.00     0.198 C 
HETATM   30  O1  UNK     1      -2.588   5.281  -1.097  1.00  0.00    -0.388 OA
HETATM   31  C6  UNK     1      -1.268   5.826  -1.126  1.00  0.00     0.198 C 
HETATM   32  C3  UNK     1      -0.231   4.709  -1.054  1.00  0.00     0.299 C 
ENDBRANCH  26  27
ENDBRANCH   3  26
BRANCH   6  33
HETATM   33  O3  UNK     1       0.204   4.068   2.786  1.00  0.00    -0.360 OA
HETATM   34  H15 UNK     1       0.441   4.455   1.928  1.00  0.00     0.217 HD
ENDBRANCH   6  33
TORSDOF 7
