REMARK  4 active torsions:
REMARK  status: ('A' for Active; 'I' for Inactive)
REMARK    1  A    between atoms: C3_11  and  N1_7 
REMARK       I    between atoms: C7_15  and  N1_7 
REMARK    2  A    between atoms: C15_23  and  N2_8 
REMARK    3  A    between atoms: C1_9  and  C3_11 
REMARK    4  A    between atoms: C7_15  and  C8_16 
ROOT
HETATM    1  O2  UNK     1       1.846  -0.292   0.771  1.00  0.00    -0.274 OA
HETATM    2  O4  UNK     1       0.174  -1.651   1.532  1.00  0.00    -0.259 OA
HETATM    3  C8  UNK     1      -0.210  -0.546  -0.529  1.00  0.00     0.108 A 
HETATM    4  C9  UNK     1       0.249   0.290  -1.468  1.00  0.00     0.037 A 
HETATM    5  C10 UNK     1       1.564   0.895  -1.332  1.00  0.00     0.001 A 
HETATM    6  C11 UNK     1       0.590  -0.885   0.669  1.00  0.00     0.304 A 
HETATM    7  C12 UNK     1       2.334   0.589  -0.214  1.00  0.00     0.089 A 
HETATM    8  C13 UNK     1       2.083   1.774  -2.286  1.00  0.00     0.050 A 
HETATM    9  C14 UNK     1       3.602   1.134  -0.024  1.00  0.00     0.041 A 
HETATM   10  C15 UNK     1       3.353   2.328  -2.110  1.00  0.00     0.103 A 
HETATM   11  C16 UNK     1       4.111   2.009  -0.981  1.00  0.00     0.039 A 
ENDROOT
BRANCH   3  12
HETATM   12  C7  UNK     1      -1.548  -1.105  -0.755  1.00  0.00     0.258 C 
HETATM   13  O3  UNK     1      -1.972  -1.286  -1.895  1.00  0.00    -0.267 OA
HETATM   14  N1  UNK     1      -2.223  -1.379   0.421  1.00  0.00    -0.350 N 
HETATM   15  H12 UNK     1      -1.771  -1.216   1.315  1.00  0.00     0.163 HD
BRANCH  14  16
HETATM   16  C3  UNK     1      -3.558  -1.933   0.453  1.00  0.00     0.109 C 
HETATM   17  C6  UNK     1      -3.495  -3.454   0.427  1.00  0.00     0.035 C 
BRANCH  16  18
HETATM   18  C1  UNK     1      -4.314  -1.433   1.668  1.00  0.00     0.143 C 
HETATM   19  O1  UNK     1      -3.648  -1.862   2.868  1.00  0.00    -0.384 OA
HETATM   20  C5  UNK     1      -3.658  -0.776   3.806  1.00  0.00     0.168 C 
HETATM   21  C4  UNK     1      -4.565   0.293   3.234  1.00  0.00     0.029 C 
HETATM   22  C2  UNK     1      -4.398   0.081   1.750  1.00  0.00     0.036 C 
ENDBRANCH  16  18
ENDBRANCH  14  16
ENDBRANCH   3  12
BRANCH  10  23
HETATM   23  N2  UNK     1       3.877   3.220  -3.083  1.00  0.00    -0.116 N 
HETATM   24  O5  UNK     1       5.020   3.708  -2.909  1.00  0.00    -0.532 OA
HETATM   25  O6  UNK     1       3.182   3.495  -4.091  1.00  0.00    -0.532 OA
ENDBRANCH  10  23
TORSDOF 4
