REMARK  5 active torsions:
REMARK  status: ('A' for Active; 'I' for Inactive)
REMARK    1  A    between atoms: C15_20  and  N1_4 
REMARK    2  A    between atoms: C4_9  and  N1_4 
REMARK    3  A    between atoms: C15_20  and  N2_5 
REMARK    4  A    between atoms: C8_13  and  N2_5 
REMARK    5  A    between atoms: C10_15  and  C5_10 
ROOT
HETATM    1  S1  UNK     1      -0.844  -0.209   4.387  1.00  0.00    -0.041 SA
HETATM    2  C15 UNK     1      -0.259  -0.123   2.809  1.00  0.00     0.176 C 
ENDROOT
BRANCH   2   3
HETATM    3  N1  UNK     1       0.873   0.672   2.586  1.00  0.00    -0.333 N 
HETATM    4  H4  UNK     1       1.165   1.194   3.410  1.00  0.00     0.168 HD
BRANCH   3   5
HETATM    5  C4  UNK     1       1.541   1.035   1.416  1.00  0.00     0.036 A 
HETATM    6  C6  UNK     1       1.503   0.203   0.302  1.00  0.00     0.067 A 
HETATM    7  C2  UNK     1       2.178   0.587  -0.858  1.00  0.00     0.092 A 
HETATM    8  C1  UNK     1       2.894   1.782  -0.943  1.00  0.00     0.004 A 
HETATM    9  O1  UNK     1       2.102  -0.297  -1.953  1.00  0.00    -0.275 OA
HETATM   10  C3  UNK     1       3.574   2.107  -2.205  1.00  0.00    -0.043 A 
HETATM   11  C7  UNK     1       2.920   2.607   0.189  1.00  0.00     0.017 A 
HETATM   12  C11 UNK     1       3.485   1.247  -3.230  1.00  0.00     0.090 A 
HETATM   13  C12 UNK     1       4.352   3.384  -2.328  1.00  0.00     0.049 C 
HETATM   14  C16 UNK     1       2.733  -0.017  -3.155  1.00  0.00     0.288 A 
HETATM   15  O2  UNK     1       2.674  -0.779  -4.114  1.00  0.00    -0.260 OA
HETATM   16  C9  UNK     1       2.248   2.235   1.360  1.00  0.00     0.030 A 
ENDBRANCH   3   5
ENDBRANCH   2   3
BRANCH   2  17
HETATM   17  N2  UNK     1      -0.849  -0.662   1.680  1.00  0.00    -0.332 N 
HETATM   18  H6  UNK     1      -0.671  -0.119   0.844  1.00  0.00     0.168 HD
BRANCH  17  19
HETATM   19  C8  UNK     1      -1.984  -1.496   1.530  1.00  0.00     0.045 A 
HETATM   20  C14 UNK     1      -2.205  -2.471   2.490  1.00  0.00     0.030 A 
HETATM   21  C20 UNK     1      -3.315  -3.308   2.372  1.00  0.00     0.002 A 
HETATM   22  C19 UNK     1      -4.189  -3.158   1.295  1.00  0.00     0.001 A 
HETATM   23  C13 UNK     1      -3.953  -2.172   0.337  1.00  0.00     0.014 A 
HETATM   24  C5  UNK     1      -2.843  -1.336   0.456  1.00  0.00     0.001 A 
BRANCH  24  25
HETATM   25  C10 UNK     1      -2.625  -0.320  -0.557  1.00  0.00    -0.024 A 
HETATM   26  C17 UNK     1      -3.179   0.948  -0.399  1.00  0.00     0.012 A 
HETATM   27  C21 UNK     1      -2.971   1.923  -1.374  1.00  0.00     0.001 A 
HETATM   28  C23 UNK     1      -2.209   1.628  -2.504  1.00  0.00     0.000 A 
HETATM   29  C22 UNK     1      -1.655   0.357  -2.660  1.00  0.00     0.001 A 
HETATM   30  C18 UNK     1      -1.864  -0.618  -1.685  1.00  0.00     0.012 A 
ENDBRANCH  24  25
ENDBRANCH  17  19
ENDBRANCH   2  17
TORSDOF 5
