REMARK  6 active torsions:
REMARK  status: ('A' for Active; 'I' for Inactive)
REMARK    1  A    between atoms: C2_8  and  O1_2 
REMARK    2  A    between atoms: C3_9  and  O1_2 
REMARK    3  A    between atoms: C16_22  and  N1_5 
REMARK    4  A    between atoms: C1_7  and  C6_12 
REMARK    5  A    between atoms: C2_8  and  C4_10 
REMARK    6  A    between atoms: C5_11  and  C9_15 
ROOT
HETATM    1  N2  UNK     1      -6.269  -2.318  -0.333  1.00  0.00    -0.191 NA
HETATM    2  C6  UNK     1      -3.209  -1.167  -1.480  1.00  0.00     0.034 C 
HETATM    3  C9  UNK     1      -3.819  -1.477  -0.307  1.00  0.00     0.055 C 
HETATM    4  C22 UNK     1      -5.171  -1.941  -0.323  1.00  0.00     0.100 C 
ENDROOT
BRANCH   3   5
HETATM    5  C5  UNK     1      -3.137  -1.362   0.996  1.00  0.00    -0.015 A 
HETATM    6  C14 UNK     1      -2.433  -2.447   1.490  1.00  0.00     0.015 A 
HETATM    7  C17 UNK     1      -1.789  -2.338   2.722  1.00  0.00     0.037 A 
HETATM    8  C16 UNK     1      -1.859  -1.145   3.442  1.00  0.00     0.102 A 
HETATM    9  C18 UNK     1      -2.572  -0.062   2.930  1.00  0.00     0.037 A 
HETATM   10  C15 UNK     1      -3.216  -0.171   1.698  1.00  0.00     0.015 A 
BRANCH   8  11
HETATM   11  N1  UNK     1      -1.203  -1.034   4.697  1.00  0.00    -0.116 N 
HETATM   12  O2  UNK     1      -0.566  -2.021   5.140  1.00  0.00    -0.532 OA
HETATM   13  O3  UNK     1      -1.277   0.048   5.328  1.00  0.00    -0.532 OA
ENDBRANCH   8  11
ENDBRANCH   3   5
BRANCH   2  14
HETATM   14  C1  UNK     1      -1.856  -0.663  -1.655  1.00  0.00    -0.035 A 
HETATM   15  C7  UNK     1      -1.620   0.711  -1.663  1.00  0.00     0.014 A 
HETATM   16  C10 UNK     1      -0.322   1.195  -1.830  1.00  0.00     0.037 A 
HETATM   17  C3  UNK     1       0.739   0.303  -1.989  1.00  0.00     0.069 A 
HETATM   18  C11 UNK     1       0.502  -1.071  -1.981  1.00  0.00     0.037 A 
HETATM   19  C8  UNK     1      -0.795  -1.555  -1.814  1.00  0.00     0.014 A 
BRANCH  17  20
HETATM   20  O1  UNK     1       2.005   0.774  -2.152  1.00  0.00    -0.347 OA
BRANCH  20  21
HETATM   21  C2  UNK     1       2.177   2.191  -2.150  1.00  0.00     0.217 C 
BRANCH  21  22
HETATM   22  C4  UNK     1       3.626   2.510  -2.372  1.00  0.00     0.004 A 
HETATM   23  C12 UNK     1       4.482   2.632  -1.283  1.00  0.00     0.124 A 
HETATM   24  F1  UNK     1       4.028   2.469  -0.033  1.00  0.00    -0.205 F 
HETATM   25  C19 UNK     1       5.829   2.929  -1.494  1.00  0.00     0.043 A 
HETATM   26  C21 UNK     1       6.311   3.101  -2.791  1.00  0.00     0.003 A 
HETATM   27  C20 UNK     1       5.446   2.976  -3.879  1.00  0.00     0.001 A 
HETATM   28  C13 UNK     1       4.099   2.680  -3.668  1.00  0.00     0.012 A 
ENDBRANCH  21  22
ENDBRANCH  20  21
ENDBRANCH  17  20
ENDBRANCH   2  14
TORSDOF 6
