REMARK  7 active torsions:
REMARK  status: ('A' for Active; 'I' for Inactive)
REMARK    1  A    between atoms: C3_9  and  O1_1 
REMARK    2  A    between atoms: C6_12  and  O1_1 
REMARK    3  A    between atoms: C8_14  and  O3_3 
REMARK    4  A    between atoms: C1_7  and  C2_8 
REMARK    5  A    between atoms: C2_8  and  C3_9 
REMARK    6  A    between atoms: C3_9  and  C8_14 
REMARK    7  A    between atoms: C14_20  and  C7_13 
ROOT
HETATM    1  O2  UNK     1      -3.157  -1.090   0.308  1.00  0.00    -0.274 OA
HETATM    2  O6  UNK     1      -5.033  -2.229   0.949  1.00  0.00    -0.260 OA
HETATM    3  C6  UNK     1       0.092   0.539  -0.122  1.00  0.00     0.086 A 
HETATM    4  C7  UNK     1      -1.201   0.100  -0.365  1.00  0.00     0.077 A 
HETATM    5  C9  UNK     1      -1.845  -0.670   0.605  1.00  0.00     0.106 A 
HETATM    6  C10 UNK     1      -1.233  -1.014   1.811  1.00  0.00     0.005 A 
HETATM    7  C11 UNK     1       0.732   0.216   1.068  1.00  0.00     0.039 A 
HETATM    8  C12 UNK     1       0.073  -0.557   2.031  1.00  0.00     0.017 A 
HETATM    9  C13 UNK     1      -1.986  -1.828   2.775  1.00  0.00    -0.043 A 
HETATM   10  C15 UNK     1      -3.232  -2.213   2.466  1.00  0.00     0.090 A 
HETATM   11  C16 UNK     1      -1.355  -2.215   4.081  1.00  0.00     0.049 C 
HETATM   12  C17 UNK     1      -3.891  -1.859   1.198  1.00  0.00     0.288 A 
ENDROOT
BRANCH   3  13
HETATM   13  O1  UNK     1       0.761   1.296  -1.049  1.00  0.00    -0.335 OA
BRANCH  13  14
HETATM   14  C3  UNK     1       2.175   1.164  -1.085  1.00  0.00     0.228 C 
BRANCH  14  15
HETATM   15  C2  UNK     1       2.674   1.468  -2.501  1.00  0.00     0.046 C 
BRANCH  15  16
HETATM   16  C1  UNK     1       2.143   0.510  -3.586  1.00  0.00    -0.020 C 
HETATM   17  C4  UNK     1       2.520  -0.946  -3.310  1.00  0.00     0.009 C 
HETATM   18  C5  UNK     1       2.680   0.931  -4.957  1.00  0.00     0.009 C 
ENDBRANCH  15  16
ENDBRANCH  14  15
BRANCH  14  19
HETATM   19  C8  UNK     1       2.760   2.142  -0.084  1.00  0.00     0.288 C 
HETATM   20  O4  UNK     1       2.103   2.934   0.579  1.00  0.00    -0.262 OA
BRANCH  19  21
HETATM   21  O3  UNK     1       4.115   1.981  -0.022  1.00  0.00    -0.324 OA
HETATM   22  C19 UNK     1       4.795   2.828   0.909  1.00  0.00     0.213 C 
ENDBRANCH  19  21
ENDBRANCH  14  19
ENDBRANCH  13  14
ENDBRANCH   3  13
BRANCH   4  23
HETATM   23  C14 UNK     1      -1.872   0.440  -1.615  1.00  0.00     0.161 C 
HETATM   24  O5  UNK     1      -1.784  -0.295  -2.616  1.00  0.00    -0.293 OA
HETATM   25  C18 UNK     1      -2.701   1.714  -1.716  1.00  0.00     0.097 C 
ENDBRANCH   4  23
TORSDOF 7
