REMARK  3 active torsions:
REMARK  status: ('A' for Active; 'I' for Inactive)
REMARK    1  A    between atoms: C7_10  and  N1_3 
REMARK    2  A    between atoms: C1_4  and  C3_6 
REMARK    3  A    between atoms: C2_5  and  C6_9 
ROOT
HETATM    1  C1  UNK     1       0.712   0.485  -0.200  1.00  0.00    -0.036 A 
HETATM    2  C4  UNK     1       0.715   0.268  -1.568  1.00  0.00     0.014 A 
HETATM    3  C5  UNK     1       1.690   1.254   0.411  1.00  0.00     0.014 A 
HETATM    4  C7  UNK     1       2.715   1.611  -1.748  1.00  0.00     0.102 A 
HETATM    5  C8  UNK     1       1.723   0.835  -2.347  1.00  0.00     0.037 A 
HETATM    6  C9  UNK     1       2.698   1.821  -0.369  1.00  0.00     0.037 A 
ENDROOT
BRANCH   1   7
HETATM    7  C3  UNK     1      -0.354  -0.112   0.623  1.00  0.00     0.012 C 
HETATM    8  C6  UNK     1      -1.550  -0.543   0.158  1.00  0.00     0.012 C 
BRANCH   8   9
HETATM    9  C2  UNK     1      -2.596  -1.151   0.967  1.00  0.00    -0.036 A 
HETATM   10  C10 UNK     1      -2.283  -1.708   2.207  1.00  0.00     0.011 A 
HETATM   11  C12 UNK     1      -3.285  -2.291   2.982  1.00  0.00     0.001 A 
HETATM   12  C14 UNK     1      -4.600  -2.317   2.518  1.00  0.00     0.000 A 
HETATM   13  C13 UNK     1      -4.913  -1.759   1.278  1.00  0.00     0.001 A 
HETATM   14  C11 UNK     1      -3.911  -1.176   0.503  1.00  0.00     0.011 A 
ENDBRANCH   8   9
ENDBRANCH   1   7
BRANCH   4  15
HETATM   15  N1  UNK     1       3.741   2.188  -2.541  1.00  0.00    -0.116 N 
HETATM   16  O1  UNK     1       3.738   1.987  -3.780  1.00  0.00    -0.532 OA
HETATM   17  O2  UNK     1       4.624   2.884  -1.983  1.00  0.00    -0.532 OA
ENDBRANCH   4  15
TORSDOF 3
