REMARK  2 active torsions:
REMARK  status: ('A' for Active; 'I' for Inactive)
REMARK    1  A    between atoms: C12_14  and  C16_18 
REMARK    2  A    between atoms: C16_18  and  C19_21 
ROOT
HETATM    1  N1  UNK     1      -1.086  -0.665  -1.175  1.00  0.00    -0.375 N 
HETATM    2  C1  UNK     1      -1.185   0.364  -2.246  1.00  0.00     0.029 C 
HETATM    3  C2  UNK     1      -0.417   1.644  -1.821  1.00  0.00     0.070 C 
HETATM    4  C3  UNK     1       0.987   1.343  -1.341  1.00  0.00    -0.032 A 
HETATM    5  C4  UNK     1       1.149   0.180  -0.556  1.00  0.00    -0.002 A 
HETATM    6  C5  UNK     1      -0.046  -0.650  -0.228  1.00  0.00     0.045 C 
HETATM    7  C6  UNK     1      -0.605  -0.206  -3.555  1.00  0.00     0.038 C 
HETATM    8  C7  UNK     1      -2.651   0.791  -2.480  1.00  0.00     0.038 C 
HETATM    9  C8  UNK     1       2.097   2.196  -1.627  1.00  0.00    -0.019 A 
HETATM   10  C9  UNK     1      -2.099  -1.728  -1.164  1.00  0.00     0.150 C 
HETATM   11  C10 UNK     1       2.438  -0.180  -0.145  1.00  0.00     0.015 A 
HETATM   12  C11 UNK     1       3.382   1.809  -1.172  1.00  0.00    -0.025 A 
HETATM   13  C12 UNK     1      -0.079  -1.295   0.955  1.00  0.00     0.085 C 
HETATM   14  C13 UNK     1       3.536   0.621  -0.450  1.00  0.00     0.013 A 
HETATM   15  C14 UNK     1       2.006   3.417  -2.338  1.00  0.00     0.013 A 
HETATM   16  C15 UNK     1       4.504   2.610  -1.443  1.00  0.00     0.012 A 
HETATM   17  C17 UNK     1       3.130   4.205  -2.599  1.00  0.00     0.001 A 
HETATM   18  C18 UNK     1       4.380   3.800  -2.154  1.00  0.00     0.001 A 
ENDROOT
BRANCH  13  19
HETATM   19  C16 UNK     1      -1.254  -2.126   1.306  1.00  0.00     0.184 C 
HETATM   20  O1  UNK     1      -1.328  -3.320   1.036  1.00  0.00    -0.288 OA
BRANCH  19  21
HETATM   21  C19 UNK     1      -2.360  -1.468   2.042  1.00  0.00     0.015 A 
HETATM   22  C20 UNK     1      -2.248  -0.130   2.364  1.00  0.00     0.022 A 
HETATM   23  C22 UNK     1      -3.289   0.488   3.056  1.00  0.00    -0.061 A 
HETATM   24  C24 UNK     1      -4.421  -0.245   3.413  1.00  0.00     0.007 A 
HETATM   25  C25 UNK     1      -3.193   1.933   3.414  1.00  0.00     0.048 C 
HETATM   26  C23 UNK     1      -4.512  -1.596   3.077  1.00  0.00     0.002 A 
HETATM   27  C21 UNK     1      -3.471  -2.214   2.385  1.00  0.00     0.015 A 
ENDBRANCH  19  21
ENDBRANCH  13  19
TORSDOF 2
