REMARK  6 active torsions:
REMARK  status: ('A' for Active; 'I' for Inactive)
REMARK    1  A    between atoms: C21_26  and  O4_4 
REMARK    2  A    between atoms: C24_29  and  O4_4 
REMARK    3  A    between atoms: C11_16  and  N1_5 
REMARK       I    between atoms: C14_19  and  N1_5 
REMARK    4  A    between atoms: C1_6  and  C11_16 
REMARK    5  A    between atoms: C11_16  and  C12_17 
REMARK    6  A    between atoms: C14_19  and  C15_20 
ROOT
HETATM    1  O1  UNK     1       1.968  -0.703   1.585  1.00  0.00    -0.267 OA
HETATM    2  N1  UNK     1       1.215   1.086   0.294  1.00  0.00    -0.351 N 
HETATM    3  C14 UNK     1       1.071  -0.064   1.047  1.00  0.00     0.258 C 
HETATM    4  H19 UNK     1       0.389   1.565  -0.053  1.00  0.00     0.163 HD
ENDROOT
BRANCH   3   5
HETATM    5  C15 UNK     1      -0.334  -0.495   1.166  1.00  0.00     0.108 A 
HETATM    6  C16 UNK     1      -0.660  -1.147   2.289  1.00  0.00     0.037 A 
HETATM    7  C18 UNK     1      -2.022  -1.612   2.498  1.00  0.00     0.002 A 
HETATM    8  C19 UNK     1      -2.974  -1.369   1.513  1.00  0.00     0.123 A 
HETATM    9  C20 UNK     1      -2.406  -2.294   3.654  1.00  0.00     0.014 A 
HETATM   10  O2  UNK     1      -2.626  -0.684   0.334  1.00  0.00    -0.271 OA
HETATM   11  C21 UNK     1      -4.296  -1.789   1.652  1.00  0.00     0.103 A 
HETATM   12  C17 UNK     1      -1.331  -0.225   0.106  1.00  0.00     0.304 A 
HETATM   13  O3  UNK     1      -1.037   0.371  -0.925  1.00  0.00    -0.259 OA
HETATM   14  C23 UNK     1      -4.671  -2.469   2.808  1.00  0.00     0.040 A 
HETATM   15  C22 UNK     1      -3.729  -2.721   3.808  1.00  0.00     0.004 A 
BRANCH  11  16
HETATM   16  O4  UNK     1      -5.217  -1.545   0.682  1.00  0.00    -0.349 OA
BRANCH  16  17
HETATM   17  C24 UNK     1      -6.280  -2.488   0.542  1.00  0.00     0.171 C 
HETATM   18  C25 UNK     1      -6.735  -2.508  -0.901  1.00  0.00     0.034 C 
ENDBRANCH  16  17
ENDBRANCH  11  16
ENDBRANCH   3   5
BRANCH   2  19
HETATM   19  C11 UNK     1       2.494   1.701   0.040  1.00  0.00     0.093 C 
BRANCH  19  20
HETATM   20  C1  UNK     1       2.781   1.683  -1.464  1.00  0.00    -0.019 C 
HETATM   21  C5  UNK     1       1.740   2.541  -2.220  1.00  0.00     0.016 C 
HETATM   22  C2  UNK     1       2.025   2.525  -3.732  1.00  0.00    -0.013 C 
HETATM   23  C8  UNK     1       3.433   3.089  -3.987  1.00  0.00     0.009 C 
HETATM   24  C9  UNK     1       1.959   1.076  -4.244  1.00  0.00     0.009 C 
HETATM   25  C3  UNK     1       4.484   2.235  -3.259  1.00  0.00    -0.013 C 
HETATM   26  C10 UNK     1       4.405   0.788  -3.773  1.00  0.00     0.009 C 
HETATM   27  C6  UNK     1       4.191   2.252  -1.748  1.00  0.00     0.016 C 
HETATM   28  C4  UNK     1       3.003   0.212  -3.517  1.00  0.00    -0.013 C 
HETATM   29  C7  UNK     1       2.715   0.235  -2.005  1.00  0.00     0.016 C 
ENDBRANCH  19  20
BRANCH  19  30
HETATM   30  C12 UNK     1       2.547   3.133   0.581  1.00  0.00     0.021 C 
HETATM   31  C13 UNK     1       2.281   3.200   2.080  1.00  0.00     0.007 C 
ENDBRANCH  19  30
ENDBRANCH   2  19
TORSDOF 6
