REMARK  6 active torsions:
REMARK  status: ('A' for Active; 'I' for Inactive)
REMARK    1  A    between atoms: C11_17  and  S1_1 
REMARK    2  A    between atoms: C17_23  and  S1_1 
REMARK       I    between atoms: C10_16  and  N1_4 
REMARK    3  A    between atoms: C2_8  and  N1_4 
REMARK    4  A    between atoms: C1_7  and  C7_13 
REMARK    5  A    between atoms: C8_14  and  C9_15 
REMARK    6  A    between atoms: C10_16  and  C11_17 
ROOT
HETATM    1  C1  UNK     1      -2.297  -1.105   0.351  1.00  0.00    -0.036 A 
HETATM    2  C2  UNK     1       0.036  -0.136  -0.788  1.00  0.00     0.034 A 
HETATM    3  C3  UNK     1      -1.114  -1.169   1.069  1.00  0.00     0.013 A 
HETATM    4  C4  UNK     1      -2.338  -0.567  -0.925  1.00  0.00     0.013 A 
HETATM    5  C5  UNK     1       0.060  -0.681   0.496  1.00  0.00     0.030 A 
HETATM    6  C6  UNK     1      -1.163  -0.079  -1.498  1.00  0.00     0.030 A 
ENDROOT
BRANCH   2   7
HETATM    7  N1  UNK     1       1.210   0.350  -1.362  1.00  0.00    -0.327 N 
HETATM    8  C10 UNK     1       2.499   0.377  -0.809  1.00  0.00     0.231 C 
HETATM    9  O1  UNK     1       2.829  -0.015   0.307  1.00  0.00    -0.272 OA
HETATM   10  H6  UNK     1       1.107   0.733  -2.299  1.00  0.00     0.169 HD
BRANCH   8  11
HETATM   11  C11 UNK     1       3.522   0.987  -1.743  1.00  0.00     0.184 C 
BRANCH  11  12
HETATM   12  S1  UNK     1       3.608   2.767  -1.432  1.00  0.00    -0.092 SA
BRANCH  12  13
HETATM   13  C17 UNK     1       4.868   3.234  -2.647  1.00  0.00     0.159 A 
HETATM   14  S2  UNK     1       5.372   4.828  -2.815  1.00  0.00    -0.045 SA
HETATM   15  C18 UNK     1       6.408   4.216  -4.037  1.00  0.00     0.096 A 
HETATM   16  N3  UNK     1       6.319   2.918  -4.236  1.00  0.00    -0.146 NA
HETATM   17  C19 UNK     1       7.307   5.131  -4.769  1.00  0.00     0.081 C 
HETATM   18  N2  UNK     1       5.389   2.332  -3.394  1.00  0.00    -0.135 NA
ENDBRANCH  12  13
ENDBRANCH  11  12
ENDBRANCH   8  11
ENDBRANCH   2   7
BRANCH   1  19
HETATM   19  C7  UNK     1      -3.538  -1.620   0.957  1.00  0.00     0.012 C 
HETATM   20  C9  UNK     1      -3.739  -1.810   2.282  1.00  0.00     0.012 C 
BRANCH  20  21
HETATM   21  C8  UNK     1      -4.970  -2.300   2.882  1.00  0.00    -0.036 A 
HETATM   22  C12 UNK     1      -5.895  -2.998   2.105  1.00  0.00     0.011 A 
HETATM   23  C14 UNK     1      -7.076  -3.467   2.681  1.00  0.00     0.001 A 
HETATM   24  C16 UNK     1      -7.332  -3.238   4.032  1.00  0.00     0.000 A 
HETATM   25  C15 UNK     1      -6.408  -2.540   4.809  1.00  0.00     0.001 A 
HETATM   26  C13 UNK     1      -5.227  -2.070   4.234  1.00  0.00     0.011 A 
ENDBRANCH  20  21
ENDBRANCH   1  19
TORSDOF 6
