REMARK  1 active torsions:
REMARK  status: ('A' for Active; 'I' for Inactive)
REMARK       I    between atoms: C5_11  and  N1_6 
REMARK    1  A    between atoms: C5_11  and  C6_12 
ROOT
HETATM    1 Br1  UNK     1       2.644   2.569  -4.785  1.00  0.00    -0.051 Br
HETATM    2  O2  UNK     1       2.232   0.274   0.816  1.00  0.00    -0.274 OA
HETATM    3  O4  UNK     1       0.970  -0.376   2.606  1.00  0.00    -0.259 OA
HETATM    4  C6  UNK     1      -0.203   0.488   0.738  1.00  0.00     0.108 A 
HETATM    5  C7  UNK     1      -0.145   0.998  -0.499  1.00  0.00     0.037 A 
HETATM    6  C8  UNK     1       1.139   1.176  -1.159  1.00  0.00     0.000 A 
HETATM    7  C9  UNK     1       2.299   0.809  -0.485  1.00  0.00     0.089 A 
HETATM    8  C10 UNK     1       1.019   0.091   1.473  1.00  0.00     0.304 A 
HETATM    9  C11 UNK     1       1.246   1.703  -2.449  1.00  0.00     0.033 A 
HETATM   10  C12 UNK     1       3.559   0.953  -1.062  1.00  0.00     0.039 A 
HETATM   11  C13 UNK     1       2.504   1.854  -3.040  1.00  0.00     0.011 A 
HETATM   12  C14 UNK     1       3.658   1.480  -2.348  1.00  0.00     0.022 A 
ENDROOT
BRANCH   4  13
HETATM   13  C5  UNK     1      -1.550   0.346   1.323  1.00  0.00     0.260 C 
HETATM   14  O3  UNK     1      -1.993   1.298   1.969  1.00  0.00    -0.267 OA
HETATM   15  N1  UNK     1      -2.232  -0.848   1.111  1.00  0.00    -0.344 N 
HETATM   16  C1  UNK     1      -1.705  -2.062   0.473  1.00  0.00     0.152 C 
HETATM   17  C2  UNK     1      -3.570  -1.021   1.680  1.00  0.00     0.152 C 
HETATM   18  C3  UNK     1      -2.718  -2.612  -0.522  1.00  0.00     0.187 C 
HETATM   19  O1  UNK     1      -3.977  -2.832   0.122  1.00  0.00    -0.388 OA
HETATM   20  C4  UNK     1      -4.512  -1.612   0.640  1.00  0.00     0.187 C 
ENDBRANCH   4  13
TORSDOF 1
