REMARK  4 active torsions:
REMARK  status: ('A' for Active; 'I' for Inactive)
REMARK    1  A    between atoms: C13_13  and  C3_3 
REMARK    2  A    between atoms: C14_14  and  C4_4 
REMARK    3  A    between atoms: C15_15  and  C17_17 
REMARK    4  A    between atoms: C16_16  and  C18_18 
ROOT
HETATM    1  C1  UNK     1       0.691   0.528  -0.073  1.00  0.00    -0.026 A 
HETATM    2  C2  UNK     1      -0.413  -0.163   0.558  1.00  0.00    -0.026 A 
HETATM    3  C3  UNK     1       2.817   1.862  -1.290  1.00  0.00    -0.036 A 
HETATM    4  C4  UNK     1      -2.540  -1.497   1.774  1.00  0.00    -0.036 A 
HETATM    5  C5  UNK     1       1.593   1.256   0.703  1.00  0.00     0.013 A 
HETATM    6  C6  UNK     1      -0.280  -0.647   1.860  1.00  0.00     0.013 A 
HETATM    7  C7  UNK     1       0.852   0.467  -1.457  1.00  0.00     0.013 A 
HETATM    8  C8  UNK     1      -1.609  -0.346  -0.135  1.00  0.00     0.013 A 
HETATM    9  C9  UNK     1       2.656   1.923   0.094  1.00  0.00     0.012 A 
HETATM   10  C10 UNK     1      -1.344  -1.314   2.468  1.00  0.00     0.012 A 
HETATM   11  C11 UNK     1       1.915   1.133  -2.065  1.00  0.00     0.012 A 
HETATM   12  C12 UNK     1      -2.673  -1.013   0.473  1.00  0.00     0.012 A 
ENDROOT
BRANCH   3  13
HETATM   13  C13 UNK     1       3.926   2.558  -1.924  1.00  0.00     0.012 C 
HETATM   14  C15 UNK     1       4.418   2.283  -3.155  1.00  0.00     0.012 C 
BRANCH  14  15
HETATM   15  C17 UNK     1       5.528   3.000  -3.806  1.00  0.00    -0.036 A 
HETATM   16  C19 UNK     1       5.869   4.268  -3.364  1.00  0.00     0.011 A 
HETATM   17  C23 UNK     1       6.922   4.945  -3.980  1.00  0.00     0.001 A 
HETATM   18  C27 UNK     1       7.619   4.346  -5.029  1.00  0.00     0.000 A 
HETATM   19  C25 UNK     1       7.263   3.069  -5.463  1.00  0.00     0.001 A 
HETATM   20  C21 UNK     1       6.210   2.391  -4.847  1.00  0.00     0.011 A 
ENDBRANCH  14  15
ENDBRANCH   3  13
BRANCH   4  21
HETATM   21  C14 UNK     1      -3.649  -2.193   2.408  1.00  0.00     0.012 C 
HETATM   22  C16 UNK     1      -4.945  -2.108   2.025  1.00  0.00     0.012 C 
BRANCH  22  23
HETATM   23  C18 UNK     1      -6.066  -2.828   2.655  1.00  0.00    -0.036 A 
HETATM   24  C20 UNK     1      -5.807  -3.954   3.419  1.00  0.00     0.011 A 
HETATM   25  C24 UNK     1      -6.868  -4.633   4.016  1.00  0.00     0.001 A 
HETATM   26  C28 UNK     1      -8.175  -4.178   3.841  1.00  0.00     0.000 A 
HETATM   27  C26 UNK     1      -8.420  -3.043   3.068  1.00  0.00     0.001 A 
HETATM   28  C22 UNK     1      -7.358  -2.363   2.471  1.00  0.00     0.011 A 
ENDBRANCH  22  23
ENDBRANCH   4  21
TORSDOF 4
