REMARK  7 active torsions:
REMARK  status: ('A' for Active; 'I' for Inactive)
REMARK    1  A    between atoms: C19_27  and  O2_5 
REMARK    2  A    between atoms: C23_31  and  O2_5 
REMARK    3  A    between atoms: C5_13  and  N1_7 
REMARK    4  A    between atoms: C6_14  and  N2_8 
REMARK    5  A    between atoms: C5_13  and  C7_15 
REMARK    6  A    between atoms: C6_14  and  C8_16 
REMARK    7  A    between atoms: C15_23  and  C22_30 
ROOT
HETATM    1  N1  UNK     1      -0.352  -0.275   0.639  1.00  0.00     0.096 N 
HETATM    2  N2  UNK     1       1.250   1.859  -0.475  1.00  0.00     0.096 N 
HETATM    3  C1  UNK     1       0.424   0.625   1.501  1.00  0.00     0.303 C 
HETATM    4  C2  UNK     1       0.295  -0.412  -0.671  1.00  0.00     0.303 C 
HETATM    5  C3  UNK     1       0.605   1.995   0.837  1.00  0.00     0.303 C 
HETATM    6  C4  UNK     1       0.475   0.957  -1.336  1.00  0.00     0.303 C 
ENDROOT
BRANCH   1   7
HETATM    7  C5  UNK     1      -0.522  -1.581   1.273  1.00  0.00     0.312 C 
BRANCH   7   8
HETATM    8  C7  UNK     1      -1.612  -1.575   2.288  1.00  0.00    -0.011 A 
HETATM    9  C10 UNK     1      -1.361  -1.279   3.572  1.00  0.00     0.092 A 
HETATM   10  C16 UNK     1      -2.405  -1.261   4.611  1.00  0.00     0.288 A 
HETATM   11  O1  UNK     1      -3.693  -1.570   4.204  1.00  0.00    -0.275 OA
HETATM   12  O3  UNK     1      -2.138  -0.986   5.775  1.00  0.00    -0.260 OA
HETATM   13  C13 UNK     1      -3.988  -1.885   2.863  1.00  0.00     0.090 A 
HETATM   14  C18 UNK     1      -5.320  -2.181   2.568  1.00  0.00     0.041 A 
HETATM   15  C9  UNK     1      -2.988  -1.899   1.889  1.00  0.00     0.009 A 
HETATM   16  C21 UNK     1      -5.671  -2.501   1.261  1.00  0.00     0.039 A 
HETATM   17  C19 UNK     1      -4.694  -2.523   0.268  1.00  0.00     0.069 A 
HETATM   18  C14 UNK     1      -3.362  -2.224   0.578  1.00  0.00     0.051 A 
BRANCH  17  19
HETATM   19  O2  UNK     1      -5.037  -2.837  -1.013  1.00  0.00    -0.351 OA
BRANCH  19  20
HETATM   20  C23 UNK     1      -4.261  -2.247  -2.055  1.00  0.00     0.171 C 
HETATM   21  C24 UNK     1      -5.131  -2.081  -3.283  1.00  0.00     0.034 C 
ENDBRANCH  19  20
ENDBRANCH  17  19
ENDBRANCH   7   8
ENDBRANCH   1   7
BRANCH   2  22
HETATM   22  C6  UNK     1       1.418   3.165  -1.108  1.00  0.00     0.311 C 
BRANCH  22  23
HETATM   23  C8  UNK     1       2.471   3.135  -2.184  1.00  0.00    -0.029 A 
HETATM   24  C11 UNK     1       3.688   2.494  -1.952  1.00  0.00     0.025 A 
HETATM   25  C15 UNK     1       4.662   2.465  -2.949  1.00  0.00     0.048 A 
HETATM   26  C20 UNK     1       4.420   3.078  -4.179  1.00  0.00     0.016 A 
HETATM   27  C17 UNK     1       3.203   3.719  -4.411  1.00  0.00     0.001 A 
HETATM   28  C12 UNK     1       2.229   3.747  -3.414  1.00  0.00     0.009 A 
BRANCH  25  29
HETATM   29  C22 UNK     1       5.963   1.779  -2.701  1.00  0.00     0.417 C 
HETATM   30  F1  UNK     1       6.820   1.829  -3.764  1.00  0.00    -0.166 F 
HETATM   31  F2  UNK     1       6.666   2.301  -1.653  1.00  0.00    -0.166 F 
HETATM   32  F3  UNK     1       5.811   0.453  -2.416  1.00  0.00    -0.166 F 
ENDBRANCH  25  29
ENDBRANCH  22  23
ENDBRANCH   2  22
TORSDOF 7
