REMARK  2 active torsions:
REMARK  status: ('A' for Active; 'I' for Inactive)
REMARK    1  A    between atoms: C10_13  and  O3_3 
REMARK    2  A    between atoms: C2_5  and  C6_9 
ROOT
HETATM    1  O1  UNK     1       0.459  -0.803   1.653  1.00  0.00    -0.308 OA
HETATM    2  O2  UNK     1      -0.469   0.197  -2.182  1.00  0.00    -0.287 OA
HETATM    3  C1  UNK     1       0.187  -1.506  -0.654  1.00  0.00     0.024 A 
HETATM    4  C2  UNK     1       0.471  -1.748   0.642  1.00  0.00     0.096 A 
HETATM    5  C3  UNK     1      -0.203   0.887   0.048  1.00  0.00     0.049 A 
HETATM    6  C4  UNK     1       0.123   0.487   1.340  1.00  0.00     0.093 A 
HETATM    7  C5  UNK     1      -0.186  -0.112  -1.031  1.00  0.00     0.193 A 
HETATM    8  C7  UNK     1      -0.540   2.217  -0.213  1.00  0.00     0.021 A 
HETATM    9  C8  UNK     1       0.117   1.415   2.382  1.00  0.00     0.074 A 
HETATM   10  C9  UNK     1       0.218  -2.499  -1.779  1.00  0.00     0.055 C 
HETATM   11  C10 UNK     1      -0.218   2.744   2.125  1.00  0.00     0.068 A 
HETATM   12  C11 UNK     1      -0.546   3.145   0.830  1.00  0.00     0.037 A 
ENDROOT
BRANCH   4  13
HETATM   13  C6  UNK     1       0.841  -3.081   1.140  1.00  0.00    -0.002 A 
HETATM   14  C12 UNK     1       2.181  -3.468   1.167  1.00  0.00     0.014 A 
HETATM   15  C14 UNK     1       2.533  -4.732   1.639  1.00  0.00     0.001 A 
HETATM   16  C16 UNK     1       1.545  -5.610   2.085  1.00  0.00     0.000 A 
HETATM   17  C15 UNK     1       0.205  -5.223   2.058  1.00  0.00     0.001 A 
HETATM   18  C13 UNK     1      -0.147  -3.959   1.586  1.00  0.00     0.014 A 
ENDBRANCH   4  13
BRANCH  11  19
HETATM   19  O3  UNK     1      -0.227   3.651   3.141  1.00  0.00    -0.361 OA
HETATM   20  H12 UNK     1       0.023   3.203   3.966  1.00  0.00     0.217 HD
ENDBRANCH  11  19
TORSDOF 2
