REMARK  8 active torsions:
REMARK  status: ('A' for Active; 'I' for Inactive)
REMARK    1  A    between atoms: C16_22  and  O1_1 
REMARK    2  A    between atoms: C6_12  and  O1_1 
REMARK    3  A    between atoms: C18_24  and  O2_2 
REMARK    4  A    between atoms: C7_13  and  O2_2 
REMARK       I    between atoms: C10_16  and  N1_6 
REMARK    5  A    between atoms: C3_9  and  N1_6 
REMARK    6  A    between atoms: C1_7  and  C2_8 
REMARK    7  A    between atoms: C1_7  and  C3_9 
REMARK    8  A    between atoms: C10_16  and  C9_15 
ROOT
HETATM    1  O4  UNK     1      -0.289   2.266   1.775  1.00  0.00    -0.267 OA
HETATM    2  N1  UNK     1       1.171   0.532   2.318  1.00  0.00    -0.356 N 
HETATM    3  C10 UNK     1      -0.048   1.074   1.954  1.00  0.00     0.257 C 
HETATM    4  H7  UNK     1       1.269  -0.471   2.444  1.00  0.00     0.162 HD
ENDROOT
BRANCH   2   5
HETATM    5  C3  UNK     1       2.354   1.332   2.541  1.00  0.00     0.127 C 
BRANCH   5   6
HETATM    6  C1  UNK     1       3.500   0.958   1.604  1.00  0.00     0.058 C 
BRANCH   6   7
HETATM    7  C2  UNK     1       3.159   1.157   0.148  1.00  0.00    -0.054 A 
HETATM    8  C4  UNK     1       2.588   0.114  -0.565  1.00  0.00     0.046 A 
HETATM    9  C6  UNK     1       2.273   0.298  -1.912  1.00  0.00     0.102 A 
HETATM   10  C7  UNK     1       2.532   1.523  -2.528  1.00  0.00     0.102 A 
HETATM   11  C8  UNK     1       3.106   2.563  -1.797  1.00  0.00     0.040 A 
HETATM   12  C5  UNK     1       3.422   2.379  -0.451  1.00  0.00     0.010 A 
BRANCH   9  13
HETATM   13  O1  UNK     1       1.712  -0.725  -2.614  1.00  0.00    -0.349 OA
BRANCH  13  14
HETATM   14  C16 UNK     1       0.460  -1.223  -2.146  1.00  0.00     0.171 C 
HETATM   15  C21 UNK     1      -0.340  -1.734  -3.326  1.00  0.00     0.034 C 
ENDBRANCH  13  14
ENDBRANCH   9  13
BRANCH  10  16
HETATM   16  O2  UNK     1       2.228   1.715  -3.841  1.00  0.00    -0.349 OA
BRANCH  16  17
HETATM   17  C18 UNK     1       1.302   2.756  -4.147  1.00  0.00     0.171 C 
HETATM   18  C22 UNK     1       0.551   2.393  -5.411  1.00  0.00     0.034 C 
ENDBRANCH  16  17
ENDBRANCH  10  16
ENDBRANCH   6   7
ENDBRANCH   5   6
ENDBRANCH   2   5
BRANCH   3  19
HETATM   19  C9  UNK     1      -1.095   0.059   1.784  1.00  0.00     0.108 A 
HETATM   20  C12 UNK     1      -2.051   0.340   0.890  1.00  0.00     0.037 A 
HETATM   21  C11 UNK     1      -3.132  -0.604   0.651  1.00  0.00    -0.001 A 
HETATM   22  C13 UNK     1      -3.154  -1.797   1.367  1.00  0.00     0.089 A 
HETATM   23  C15 UNK     1      -4.150  -0.352  -0.272  1.00  0.00     0.014 A 
HETATM   24  O3  UNK     1      -2.145  -2.087   2.306  1.00  0.00    -0.274 OA
HETATM   25  C17 UNK     1      -4.161  -2.742   1.186  1.00  0.00     0.038 A 
HETATM   26  C14 UNK     1      -1.098  -1.204   2.556  1.00  0.00     0.304 A 
HETATM   27  O5  UNK     1      -0.225  -1.464   3.376  1.00  0.00    -0.259 OA
HETATM   28  C20 UNK     1      -5.173  -2.484   0.263  1.00  0.00     0.003 A 
HETATM   29  C19 UNK     1      -5.167  -1.292  -0.464  1.00  0.00     0.001 A 
ENDBRANCH   3  19
TORSDOF 8
