REMARK  5 active torsions:
REMARK  status: ('A' for Active; 'I' for Inactive)
REMARK    1  A    between atoms: C1_9  and  O1_2 
REMARK    2  A    between atoms: C18_26  and  O6_7 
REMARK    3  A    between atoms: C1_9  and  C3_11 
REMARK    4  A    between atoms: C3_11  and  C7_15 
REMARK    5  A    between atoms: C12_20  and  C7_15 
ROOT
HETATM    1  C3  UNK     1       0.434   1.360  -0.469  1.00  0.00     0.137 C 
ENDROOT
BRANCH   1   2
HETATM    2  C1  UNK     1       1.221   1.686  -1.730  1.00  0.00     0.175 A 
HETATM    3  C2  UNK     1       2.700   1.817  -1.494  1.00  0.00     0.014 A 
HETATM    4  C4  UNK     1       3.383   0.873  -2.262  1.00  0.00     0.046 A 
HETATM    5  C6  UNK     1       3.387   2.695  -0.674  1.00  0.00     0.032 A 
HETATM    6  N1  UNK     1       2.461   0.118  -2.999  1.00  0.00    -0.319 N 
HETATM    7  C8  UNK     1       4.763   0.773  -2.236  1.00  0.00     0.032 A 
HETATM    8  C5  UNK     1       1.144   0.533  -2.751  1.00  0.00     0.264 A 
HETATM    9  C9  UNK     1       2.846  -0.941  -3.902  1.00  0.00     0.159 C 
HETATM   10  O2  UNK     1       0.113   0.100  -3.245  1.00  0.00    -0.269 OA
HETATM   11  C11 UNK     1       5.463   1.655  -1.409  1.00  0.00     0.021 A 
HETATM   12  C10 UNK     1       4.781   2.608  -0.635  1.00  0.00     0.011 A 
HETATM   13 Br1  UNK     1       5.762   3.788   0.472  1.00  0.00    -0.051 Br
BRANCH   2  14
HETATM   14  O1  UNK     1       0.725   2.860  -2.344  1.00  0.00    -0.375 OA
HETATM   15  H8  UNK     1      -0.191   2.703  -2.627  1.00  0.00     0.211 HD
ENDBRANCH   2  14
ENDBRANCH   1   2
BRANCH   1  16
HETATM   16  C7  UNK     1      -1.050   1.222  -0.737  1.00  0.00     0.169 C 
HETATM   17  O3  UNK     1      -1.647   1.841  -1.613  1.00  0.00    -0.292 OA
BRANCH  16  18
HETATM   18  C12 UNK     1      -1.786   0.279   0.128  1.00  0.00     0.086 A 
HETATM   19  C13 UNK     1      -1.312   0.122   1.369  1.00  0.00     0.035 A 
HETATM   20  C14 UNK     1      -1.969  -0.787   2.296  1.00  0.00     0.002 A 
HETATM   21  C16 UNK     1      -3.093  -1.486   1.869  1.00  0.00     0.123 A 
HETATM   22  C17 UNK     1      -1.510  -0.981   3.601  1.00  0.00     0.014 A 
HETATM   23  O4  UNK     1      -3.587  -1.317   0.561  1.00  0.00    -0.271 OA
HETATM   24  C18 UNK     1      -3.769  -2.371   2.707  1.00  0.00     0.102 A 
HETATM   25  C15 UNK     1      -2.980  -0.454  -0.348  1.00  0.00     0.302 A 
HETATM   26  O5  UNK     1      -3.418  -0.313  -1.485  1.00  0.00    -0.259 OA
HETATM   27  C20 UNK     1      -3.304  -2.559   4.006  1.00  0.00     0.040 A 
HETATM   28  C19 UNK     1      -2.177  -1.865   4.453  1.00  0.00     0.004 A 
BRANCH  24  29
HETATM   29  O6  UNK     1      -4.867  -3.049   2.276  1.00  0.00    -0.353 OA
HETATM   30  C21 UNK     1      -4.648  -4.322   1.668  1.00  0.00     0.210 C 
ENDBRANCH  24  29
ENDBRANCH  16  18
ENDBRANCH   1  16
TORSDOF 5
