REMARK  7 active torsions:
REMARK  status: ('A' for Active; 'I' for Inactive)
REMARK    1  A    between atoms: C12_19  and  O3_3 
REMARK    2  A    between atoms: C19_26  and  O3_3 
REMARK    3  A    between atoms: C22_29  and  O6_6 
REMARK    4  A    between atoms: C24_31  and  O6_6 
REMARK    5  A    between atoms: C1_8  and  C10_17 
REMARK    6  A    between atoms: C12_19  and  C6_13 
REMARK    7  A    between atoms: C19_26  and  C22_29 
ROOT
HETATM    1  O1  UNK     1      -2.898  -3.083  -0.257  1.00  0.00    -0.293 OA
HETATM    2  N1  UNK     1      -2.174   0.572   2.667  1.00  0.00    -0.362 N 
HETATM    3  C1  UNK     1      -0.946  -1.417   1.059  1.00  0.00     0.104 C 
HETATM    4  C2  UNK     1      -2.455  -1.206   1.127  1.00  0.00     0.024 C 
HETATM    5  C3  UNK     1      -2.989  -0.228   1.889  1.00  0.00     0.020 C 
HETATM    6  C4  UNK     1      -4.466   0.056   1.954  1.00  0.00     0.058 C 
HETATM    7  C5  UNK     1      -5.210  -0.492   0.742  1.00  0.00     0.014 C 
HETATM    8  C6  UNK     1      -0.181  -0.557   2.070  1.00  0.00     0.052 C 
HETATM    9  C7  UNK     1      -4.855  -1.948   0.504  1.00  0.00     0.084 C 
HETATM   10  C8  UNK     1      -3.359  -2.140   0.385  1.00  0.00     0.158 C 
HETATM   11  C9  UNK     1      -0.806   0.393   2.805  1.00  0.00     0.018 C 
HETATM   12  C13 UNK     1      -0.162   1.297   3.822  1.00  0.00     0.069 C 
HETATM   13  H8  UNK     1      -2.616   1.287   3.233  1.00  0.00     0.165 HD
ENDROOT
BRANCH   3  14
HETATM   14  C10 UNK     1      -0.447  -1.149  -0.335  1.00  0.00     0.029 A 
HETATM   15  C11 UNK     1      -0.610   0.215  -0.898  1.00  0.00     0.194 A 
HETATM   16  O4  UNK     1      -1.135   1.122  -0.264  1.00  0.00    -0.287 OA
HETATM   17  C15 UNK     1      -0.105   0.422  -2.268  1.00  0.00     0.049 A 
HETATM   18  C16 UNK     1       0.483  -0.648  -2.943  1.00  0.00     0.089 A 
HETATM   19  C17 UNK     1      -0.212   1.671  -2.886  1.00  0.00     0.025 A 
HETATM   20  O2  UNK     1       0.615  -1.894  -2.384  1.00  0.00    -0.321 OA
HETATM   21  C18 UNK     1       0.968  -0.474  -4.239  1.00  0.00     0.039 A 
HETATM   22  C14 UNK     1       0.139  -2.072  -1.108  1.00  0.00     0.154 A 
HETATM   23  C21 UNK     1       0.863   0.771  -4.858  1.00  0.00     0.009 A 
HETATM   24  C20 UNK     1       0.274   1.841  -4.183  1.00  0.00    -0.061 A 
HETATM   25  C23 UNK     1       0.165   3.172  -4.850  1.00  0.00     0.048 C 
ENDBRANCH   3  14
BRANCH   8  26
HETATM   26  C12 UNK     1       1.260  -0.834   2.195  1.00  0.00     0.292 C 
HETATM   27  O5  UNK     1       1.719  -1.649   2.974  1.00  0.00    -0.259 OA
BRANCH  26  28
HETATM   28  O3  UNK     1       1.925  -0.045   1.317  1.00  0.00    -0.316 OA
BRANCH  28  29
HETATM   29  C19 UNK     1       3.348  -0.201   1.319  1.00  0.00     0.205 C 
BRANCH  29  30
HETATM   30  C22 UNK     1       3.950   0.739   0.293  1.00  0.00     0.195 C 
BRANCH  30  31
HETATM   31  O6  UNK     1       3.592   2.076   0.623  1.00  0.00    -0.385 OA
BRANCH  31  32
HETATM   32  C24 UNK     1       4.132   3.004  -0.308  1.00  0.00     0.113 C 
HETATM   33  C25 UNK     1       3.597   2.688  -1.697  1.00  0.00     0.039 C 
HETATM   34  C26 UNK     1       3.774   4.417   0.129  1.00  0.00     0.039 C 
ENDBRANCH  31  32
ENDBRANCH  30  31
ENDBRANCH  29  30
ENDBRANCH  28  29
ENDBRANCH  26  28
ENDBRANCH   8  26
TORSDOF 7
