REMARK  4 active torsions:
REMARK  status: ('A' for Active; 'I' for Inactive)
REMARK       I    between atoms: C5_9  and  N1_3 
REMARK    1  A    between atoms: C8_12  and  N1_3 
REMARK    2  A    between atoms: C1_5  and  C2_6 
REMARK    3  A    between atoms: C1_5  and  C5_9 
REMARK    4  A    between atoms: C3_7  and  C4_8 
ROOT
HETATM    1  C1  UNK     1      -0.169   0.063   0.464  1.00  0.00     0.043 C 
HETATM    2  C3  UNK     1      -0.473  -0.226   1.756  1.00  0.00     0.029 C 
ENDROOT
BRANCH   1   3
HETATM    3  C2  UNK     1      -1.086  -0.262  -0.648  1.00  0.00    -0.021 A 
HETATM    4  C6  UNK     1      -2.031   0.671  -1.038  1.00  0.00     0.012 A 
HETATM    5  C11 UNK     1      -2.897   0.364  -2.088  1.00  0.00     0.001 A 
HETATM    6  C14 UNK     1      -2.803  -0.870  -2.731  1.00  0.00     0.000 A 
HETATM    7  C12 UNK     1      -1.844  -1.798  -2.324  1.00  0.00     0.001 A 
HETATM    8  C7  UNK     1      -0.979  -1.491  -1.274  1.00  0.00     0.012 A 
ENDBRANCH   1   3
BRANCH   1   9
HETATM    9  C5  UNK     1       1.177   0.707   0.217  1.00  0.00     0.258 C 
HETATM   10  O2  UNK     1       1.917   0.974   1.160  1.00  0.00    -0.267 OA
HETATM   11  N1  UNK     1       1.426   0.941  -1.129  1.00  0.00    -0.305 N 
HETATM   12  H4  UNK     1       0.741   0.682  -1.833  1.00  0.00     0.170 HD
BRANCH  11  13
HETATM   13  C8  UNK     1       2.570   1.528  -1.686  1.00  0.00     0.160 A 
HETATM   14  C13 UNK     1       3.656   1.975  -0.936  1.00  0.00     0.087 A 
HETATM   15  C15 UNK     1       4.511   2.460  -1.890  1.00  0.00     0.078 A 
HETATM   16  O1  UNK     1       3.958   2.306  -3.120  1.00  0.00    -0.216 OA
HETATM   17  C19 UNK     1       5.840   3.082  -1.841  1.00  0.00     0.079 C 
HETATM   18  N2  UNK     1       2.711   1.708  -2.991  1.00  0.00    -0.110 NA
ENDBRANCH  11  13
ENDBRANCH   1   9
BRANCH   2  19
HETATM   19  C4  UNK     1      -1.680  -0.881   2.237  1.00  0.00    -0.035 A 
HETATM   20  C10 UNK     1      -1.714  -2.269   2.372  1.00  0.00     0.011 A 
HETATM   21  C17 UNK     1      -2.871  -2.897   2.833  1.00  0.00     0.001 A 
HETATM   22  C18 UNK     1      -3.994  -2.137   3.160  1.00  0.00     0.000 A 
HETATM   23  C16 UNK     1      -3.960  -0.749   3.026  1.00  0.00     0.001 A 
HETATM   24  C9  UNK     1      -2.803  -0.121   2.564  1.00  0.00     0.011 A 
ENDBRANCH   2  19
TORSDOF 4
