REMARK  7 active torsions:
REMARK  status: ('A' for Active; 'I' for Inactive)
REMARK    1  A    between atoms: C23_30  and  O3_3 
REMARK    2  A    between atoms: C27_34  and  O3_3 
REMARK    3  A    between atoms: C5_12  and  N1_6 
REMARK    4  A    between atoms: C6_13  and  N2_7 
REMARK    5  A    between atoms: C5_12  and  C7_14 
REMARK    6  A    between atoms: C6_13  and  C8_15 
REMARK    7  A    between atoms: C17_24  and  C24_31 
ROOT
HETATM    1  N1  UNK     1       1.197   1.178  -0.433  1.00  0.00     0.096 N 
HETATM    2  N2  UNK     1      -0.636  -0.877   0.449  1.00  0.00     0.096 N 
HETATM    3  C1  UNK     1       1.045   0.852   0.990  1.00  0.00     0.303 C 
HETATM    4  C2  UNK     1      -0.051   0.907  -1.157  1.00  0.00     0.303 C 
HETATM    5  C3  UNK     1       0.613  -0.606   1.174  1.00  0.00     0.303 C 
HETATM    6  C4  UNK     1      -0.482  -0.552  -0.974  1.00  0.00     0.303 C 
ENDROOT
BRANCH   2   7
HETATM    7  C6  UNK     1      -1.046  -2.269   0.623  1.00  0.00     0.312 C 
BRANCH   7   8
HETATM    8  C8  UNK     1      -2.492  -2.469   0.330  1.00  0.00    -0.011 A 
HETATM    9  C10 UNK     1      -3.484  -2.333   1.406  1.00  0.00     0.009 A 
HETATM   10  C15 UNK     1      -4.832  -2.527   1.100  1.00  0.00     0.090 A 
HETATM   11  C16 UNK     1      -3.157  -2.017   2.731  1.00  0.00     0.051 A 
HETATM   12  O2  UNK     1      -5.243  -2.847  -0.209  1.00  0.00    -0.275 OA
HETATM   13  C22 UNK     1      -5.838  -2.417   2.062  1.00  0.00     0.041 A 
HETATM   14  C19 UNK     1      -4.331  -2.982  -1.243  1.00  0.00     0.288 A 
HETATM   15  C12 UNK     1      -2.912  -2.775  -0.905  1.00  0.00     0.092 A 
HETATM   16  O5  UNK     1      -4.677  -3.258  -2.387  1.00  0.00    -0.260 OA
HETATM   17  C25 UNK     1      -5.492  -2.102   3.372  1.00  0.00     0.039 A 
HETATM   18  C23 UNK     1      -4.154  -1.902   3.706  1.00  0.00     0.069 A 
BRANCH  18  19
HETATM   19  O3  UNK     1      -3.815  -1.593   4.988  1.00  0.00    -0.351 OA
BRANCH  19  20
HETATM   20  C27 UNK     1      -4.773  -0.866   5.755  1.00  0.00     0.171 C 
HETATM   21  C28 UNK     1      -4.045  -0.016   6.775  1.00  0.00     0.034 C 
ENDBRANCH  19  20
ENDBRANCH  18  19
ENDBRANCH   7   8
ENDBRANCH   2   7
BRANCH   1  22
HETATM   22  C5  UNK     1       1.605   2.571  -0.606  1.00  0.00     0.312 C 
BRANCH  22  23
HETATM   23  C7  UNK     1       2.221   2.814  -1.940  1.00  0.00    -0.011 A 
HETATM   24  C11 UNK     1       1.474   3.178  -2.992  1.00  0.00     0.092 A 
HETATM   25  C18 UNK     1       2.036   3.429  -4.329  1.00  0.00     0.288 A 
HETATM   26  O1  UNK     1       3.407   3.274  -4.467  1.00  0.00    -0.275 OA
HETATM   27  O4  UNK     1       1.321   3.762  -5.268  1.00  0.00    -0.260 OA
HETATM   28  C13 UNK     1       4.219   2.893  -3.380  1.00  0.00     0.090 A 
HETATM   29  C9  UNK     1       3.671   2.657  -2.118  1.00  0.00     0.007 A 
HETATM   30  C20 UNK     1       5.585   2.767  -3.635  1.00  0.00     0.039 A 
HETATM   31  C14 UNK     1       4.545   2.282  -1.090  1.00  0.00     0.022 A 
HETATM   32  C17 UNK     1       5.918   2.151  -1.330  1.00  0.00    -0.058 A 
HETATM   33  C21 UNK     1       6.437   2.393  -2.601  1.00  0.00     0.010 A 
BRANCH  32  34
HETATM   34  C24 UNK     1       6.831   1.750  -0.220  1.00  0.00     0.034 C 
HETATM   35  C26 UNK     1       6.997   0.236  -0.124  1.00  0.00     0.010 C 
ENDBRANCH  32  34
ENDBRANCH  22  23
ENDBRANCH   1  22
TORSDOF 7
