REMARK  1 active torsions:
REMARK  status: ('A' for Active; 'I' for Inactive)
REMARK       I    between atoms: C6_12  and  N1_5 
REMARK    1  A    between atoms: C6_12  and  C8_14 
ROOT
HETATM    1 Br1  UNK     1       6.131   1.259  -1.708  1.00  0.00    -0.051 Br
HETATM    2  O2  UNK     1       0.192   2.436  -1.316  1.00  0.00    -0.274 OA
HETATM    3  O3  UNK     1      -1.964   1.711  -1.104  1.00  0.00    -0.259 OA
HETATM    4  C8  UNK     1      -0.282   0.043  -1.134  1.00  0.00     0.108 A 
HETATM    5  C9  UNK     1       1.021  -0.249  -1.218  1.00  0.00     0.037 A 
HETATM    6  C10 UNK     1       2.004   0.815  -1.359  1.00  0.00     0.000 A 
HETATM    7  C11 UNK     1      -0.771   1.440  -1.181  1.00  0.00     0.304 A 
HETATM    8  C12 UNK     1       1.565   2.134  -1.405  1.00  0.00     0.089 A 
HETATM    9  C13 UNK     1       3.374   0.556  -1.450  1.00  0.00     0.033 A 
HETATM   10  C14 UNK     1       2.454   3.199  -1.538  1.00  0.00     0.039 A 
HETATM   11  C15 UNK     1       4.278   1.614  -1.584  1.00  0.00     0.011 A 
HETATM   12  C16 UNK     1       3.819   2.932  -1.628  1.00  0.00     0.022 A 
ENDROOT
BRANCH   4  13
HETATM   13  C6  UNK     1      -1.202  -1.106  -0.993  1.00  0.00     0.260 C 
HETATM   14  O1  UNK     1      -1.639  -1.617  -2.025  1.00  0.00    -0.267 OA
HETATM   15  N1  UNK     1      -1.507  -1.534   0.305  1.00  0.00    -0.346 N 
HETATM   16  C2  UNK     1      -2.412  -2.673   0.466  1.00  0.00     0.128 C 
HETATM   17  C4  UNK     1      -0.975  -0.886   1.510  1.00  0.00     0.156 C 
HETATM   18  C1  UNK     1      -3.788  -2.233   0.951  1.00  0.00     0.050 C 
HETATM   19  C3  UNK     1      -3.870  -2.000   2.461  1.00  0.00     0.273 C 
HETATM   20  N2  UNK     1      -2.995  -0.934   2.973  1.00  0.00     0.085 N 
HETATM   21  C5  UNK     1      -1.571  -1.289   2.861  1.00  0.00     0.291 C 
HETATM   22  C7  UNK     1      -3.332  -0.673   4.378  1.00  0.00     0.309 C 
ENDBRANCH   4  13
TORSDOF 1
