REMARK  2 active torsions:
REMARK  status: ('A' for Active; 'I' for Inactive)
REMARK       I    between atoms: C11_15  and  N1_4 
REMARK    1  A    between atoms: C2_6  and  N1_4 
REMARK    2  A    between atoms: C11_15  and  C5_9 
ROOT
HETATM    1  O2  UNK     1      -1.150   0.224  -2.324  1.00  0.00    -0.267 OA
HETATM    2  N1  UNK     1      -0.814  -0.522  -0.115  1.00  0.00    -0.322 N 
HETATM    3  C11 UNK     1      -0.457   0.068  -1.320  1.00  0.00     0.262 C 
HETATM    4  H1  UNK     1      -0.160  -0.408   0.652  1.00  0.00     0.169 HD
ENDROOT
BRANCH   3   5
HETATM    5  C5  UNK     1       0.933   0.539  -1.315  1.00  0.00     0.108 A 
HETATM    6  C15 UNK     1       1.984  -0.123  -0.509  1.00  0.00     0.304 A 
HETATM    7  O1  UNK     1       3.265   0.417  -0.588  1.00  0.00    -0.274 OA
HETATM    8  O3  UNK     1       1.744  -1.099   0.193  1.00  0.00    -0.259 OA
HETATM    9  C10 UNK     1       3.551   1.537  -1.393  1.00  0.00     0.089 A 
HETATM   10  C4  UNK     1       2.549   2.144  -2.142  1.00  0.00    -0.001 A 
HETATM   11  C18 UNK     1       4.864   2.005  -1.407  1.00  0.00     0.038 A 
HETATM   12  C17 UNK     1       2.872   3.253  -2.927  1.00  0.00     0.014 A 
HETATM   13  C9  UNK     1       1.200   1.604  -2.081  1.00  0.00     0.037 A 
HETATM   14  C19 UNK     1       4.185   3.734  -2.952  1.00  0.00     0.001 A 
HETATM   15  C20 UNK     1       5.178   3.111  -2.193  1.00  0.00     0.003 A 
ENDBRANCH   3   5
BRANCH   2  16
HETATM   16  C2  UNK     1      -2.067  -1.083   0.234  1.00  0.00     0.046 A 
HETATM   17  C1  UNK     1      -2.519  -1.079   1.555  1.00  0.00     0.001 A 
HETATM   18  C3  UNK     1      -3.779  -1.655   1.844  1.00  0.00    -0.024 A 
HETATM   19  C7  UNK     1      -1.762  -0.523   2.599  1.00  0.00     0.014 A 
HETATM   20  C12 UNK     1      -4.245  -1.658   3.168  1.00  0.00     0.012 A 
HETATM   21  C8  UNK     1      -4.536  -2.211   0.799  1.00  0.00     0.012 A 
HETATM   22  C16 UNK     1      -3.480  -1.101   4.194  1.00  0.00     0.001 A 
HETATM   23  C14 UNK     1      -2.241  -0.535   3.909  1.00  0.00     0.001 A 
HETATM   24  C13 UNK     1      -4.057  -2.200  -0.511  1.00  0.00     0.003 A 
HETATM   25  C6  UNK     1      -2.818  -1.633  -0.795  1.00  0.00     0.030 A 
ENDBRANCH   2  16
TORSDOF 2
