REMARK  6 active torsions:
REMARK  status: ('A' for Active; 'I' for Inactive)
REMARK    1  A    between atoms: C21_28  and  O3_3 
REMARK    2  A    between atoms: C23_30  and  O3_3 
REMARK       I    between atoms: C11_18  and  N1_5 
REMARK    3  A    between atoms: C8_15  and  N2_6 
REMARK    4  A    between atoms: C13_20  and  N3_7 
REMARK    5  A    between atoms: C11_18  and  C8_15 
REMARK    6  A    between atoms: C13_20  and  C14_21 
ROOT
HETATM    1  N2  UNK     1      -1.300  -1.556   0.722  1.00  0.00     0.100 N 
HETATM    2  N3  UNK     1       0.875  -0.513  -0.872  1.00  0.00     0.096 N 
HETATM    3  C6  UNK     1      -1.546  -0.628  -0.389  1.00  0.00     0.303 C 
HETATM    4  C7  UNK     1       0.026  -1.316   1.305  1.00  0.00     0.303 C 
HETATM    5  C9  UNK     1      -0.451  -0.751  -1.455  1.00  0.00     0.303 C 
HETATM    6  C10 UNK     1       1.121  -1.440   0.240  1.00  0.00     0.303 C 
ENDROOT
BRANCH   2   7
HETATM    7  C13 UNK     1       1.918  -0.634  -1.889  1.00  0.00     0.312 C 
BRANCH   7   8
HETATM    8  C14 UNK     1       2.037   0.595  -2.722  1.00  0.00    -0.011 A 
HETATM    9  C15 UNK     1       2.948   1.672  -2.313  1.00  0.00     0.009 A 
HETATM   10  C17 UNK     1       3.038   2.812  -3.114  1.00  0.00     0.090 A 
HETATM   11  C18 UNK     1       3.740   1.626  -1.158  1.00  0.00     0.051 A 
HETATM   12  O2  UNK     1       2.275   2.936  -4.292  1.00  0.00    -0.275 OA
HETATM   13  C20 UNK     1       3.878   3.881  -2.799  1.00  0.00     0.041 A 
HETATM   14  C19 UNK     1       1.408   1.935  -4.704  1.00  0.00     0.288 A 
HETATM   15  C16 UNK     1       1.324   0.740  -3.848  1.00  0.00     0.092 A 
HETATM   16  O4  UNK     1       0.740   2.033  -5.727  1.00  0.00    -0.260 OA
HETATM   17  C22 UNK     1       4.656   3.816  -1.648  1.00  0.00     0.039 A 
HETATM   18  C21 UNK     1       4.588   2.690  -0.829  1.00  0.00     0.069 A 
BRANCH  18  19
HETATM   19  O3  UNK     1       5.350   2.625   0.298  1.00  0.00    -0.351 OA
BRANCH  19  20
HETATM   20  C23 UNK     1       4.829   1.870   1.390  1.00  0.00     0.171 C 
HETATM   21  C24 UNK     1       5.348   2.455   2.686  1.00  0.00     0.034 C 
ENDBRANCH  19  20
ENDBRANCH  18  19
ENDBRANCH   7   8
ENDBRANCH   2   7
BRANCH   1  22
HETATM   22  C8  UNK     1      -2.343  -1.437   1.738  1.00  0.00     0.374 C 
BRANCH  22  23
HETATM   23  C11 UNK     1      -3.588  -2.191   1.342  1.00  0.00     0.248 C 
HETATM   24  O1  UNK     1      -3.590  -2.835   0.290  1.00  0.00    -0.271 OA
HETATM   25  N1  UNK     1      -4.676  -2.116   2.218  1.00  0.00    -0.346 N 
HETATM   26  C1  UNK     1      -4.747  -1.217   3.393  1.00  0.00     0.083 C 
HETATM   27  C3  UNK     1      -5.906  -2.842   1.880  1.00  0.00     0.126 C 
HETATM   28  C2  UNK     1      -5.373  -1.930   4.602  1.00  0.00     0.025 C 
HETATM   29  C12 UNK     1      -5.479   0.081   3.043  1.00  0.00     0.032 C 
HETATM   30  C4  UNK     1      -6.683  -2.634   4.263  1.00  0.00     0.004 C 
HETATM   31  C5  UNK     1      -6.488  -3.576   3.082  1.00  0.00     0.020 C 
ENDBRANCH  22  23
ENDBRANCH   1  22
TORSDOF 6
