REMARK  4 active torsions:
REMARK  status: ('A' for Active; 'I' for Inactive)
REMARK    1  A    between atoms: C7_12  and  O2_2 
REMARK    2  A    between atoms: C13_18  and  O4_4 
REMARK    3  A    between atoms: C15_20  and  O5_5 
REMARK    4  A    between atoms: C2_7  and  C4_9 
ROOT
HETATM    1  O1  UNK     1       0.387  -1.317   1.719  1.00  0.00    -0.309 OA
HETATM    2  O3  UNK     1       0.826  -3.522  -1.678  1.00  0.00    -0.287 OA
HETATM    3  C1  UNK     1       0.879  -3.458   0.683  1.00  0.00     0.081 A 
HETATM    4  C2  UNK     1       0.225  -0.756   0.462  1.00  0.00     0.090 A 
HETATM    5  C3  UNK     1       0.713  -2.647   1.805  1.00  0.00     0.093 A 
HETATM    6  C5  UNK     1       0.699  -2.869  -0.652  1.00  0.00     0.190 A 
HETATM    7  C6  UNK     1       0.352  -1.433  -0.690  1.00  0.00     0.094 A 
HETATM    8  C7  UNK     1       1.210  -4.807   0.830  1.00  0.00     0.082 A 
HETATM    9  C8  UNK     1       0.877  -3.182   3.082  1.00  0.00     0.038 A 
HETATM   10  C11 UNK     1       1.374  -5.340   2.109  1.00  0.00     0.037 A 
HETATM   11  C12 UNK     1       1.208  -4.529   3.233  1.00  0.00     0.006 A 
ENDROOT
BRANCH   4  12
HETATM   12  C4  UNK     1      -0.128   0.677   0.486  1.00  0.00     0.001 A 
HETATM   13  C10 UNK     1      -0.922   1.221  -0.527  1.00  0.00     0.017 A 
HETATM   14  C14 UNK     1      -1.255   2.575  -0.505  1.00  0.00     0.040 A 
HETATM   15  C15 UNK     1      -0.796   3.390   0.530  1.00  0.00     0.098 A 
HETATM   16  C13 UNK     1      -0.004   2.850   1.543  1.00  0.00     0.099 A 
HETATM   17  C9  UNK     1       0.329   1.496   1.521  1.00  0.00     0.053 A 
BRANCH  15  18
HETATM   18  O5  UNK     1      -1.129   4.711   0.541  1.00  0.00    -0.358 OA
HETATM   19  H10 UNK     1      -1.680   4.905  -0.236  1.00  0.00     0.217 HD
ENDBRANCH  15  18
BRANCH  16  20
HETATM   20  O4  UNK     1       0.448   3.636   2.560  1.00  0.00    -0.358 OA
HETATM   21  H9  UNK     1       0.122   4.541   2.416  1.00  0.00     0.217 HD
ENDBRANCH  16  20
ENDBRANCH   4  12
BRANCH   8  22
HETATM   22  O2  UNK     1       1.383  -5.640  -0.234  1.00  0.00    -0.360 OA
HETATM   23  H8  UNK     1       1.247  -5.162  -1.066  1.00  0.00     0.217 HD
ENDBRANCH   8  22
TORSDOF 4
