REMARK  4 active torsions:
REMARK  status: ('A' for Active; 'I' for Inactive)
REMARK    1  A    between atoms: C10_16  and  O2_2 
REMARK    2  A    between atoms: C14_20  and  O3_3 
REMARK       I    between atoms: C6_12  and  N1_6 
REMARK    3  A    between atoms: C9_15  and  N1_6 
REMARK    4  A    between atoms: C3_9  and  C6_12 
ROOT
HETATM    1  O1  UNK     1       1.139   1.398  -2.673  1.00  0.00    -0.274 OA
HETATM    2  O5  UNK     1      -0.969   0.754  -2.071  1.00  0.00    -0.259 OA
HETATM    3  C1  UNK     1       2.896   1.479  -0.995  1.00  0.00    -0.001 A 
HETATM    4  C2  UNK     1       2.476   1.651  -2.310  1.00  0.00     0.092 A 
HETATM    5  C3  UNK     1       0.662   0.794  -0.352  1.00  0.00     0.108 A 
HETATM    6  C4  UNK     1       1.931   1.032  -0.001  1.00  0.00     0.037 A 
HETATM    7  C5  UNK     1       4.230   1.740  -0.673  1.00  0.00     0.017 A 
HETATM    8  C7  UNK     1       3.349   2.077  -3.309  1.00  0.00     0.074 A 
HETATM    9  C8  UNK     1       0.193   0.971  -1.745  1.00  0.00     0.304 A 
HETATM   10  C10 UNK     1       4.678   2.336  -2.980  1.00  0.00     0.068 A 
HETATM   11  C11 UNK     1       5.118   2.167  -1.665  1.00  0.00     0.037 A 
ENDROOT
BRANCH   5  12
HETATM   12  C6  UNK     1      -0.235   0.348   0.720  1.00  0.00     0.262 C 
HETATM   13  O4  UNK     1      -0.033   0.715   1.877  1.00  0.00    -0.267 OA
HETATM   14  N1  UNK     1      -1.246  -0.477   0.248  1.00  0.00    -0.323 N 
HETATM   15  H4  UNK     1      -1.261  -0.705  -0.743  1.00  0.00     0.169 HD
BRANCH  14  16
HETATM   16  C9  UNK     1      -2.282  -1.088   0.996  1.00  0.00     0.035 A 
HETATM   17  C12 UNK     1      -2.347  -0.876   2.362  1.00  0.00     0.032 A 
HETATM   18  C15 UNK     1      -3.368  -1.478   3.098  1.00  0.00     0.039 A 
HETATM   19  C14 UNK     1      -4.308  -2.285   2.456  1.00  0.00     0.068 A 
HETATM   20  C16 UNK     1      -4.227  -2.488   1.078  1.00  0.00     0.039 A 
HETATM   21  C13 UNK     1      -3.207  -1.885   0.343  1.00  0.00     0.032 A 
BRANCH  19  22
HETATM   22  O3  UNK     1      -5.303  -2.872   3.174  1.00  0.00    -0.356 OA
HETATM   23  C17 UNK     1      -6.231  -3.684   2.455  1.00  0.00     0.210 C 
ENDBRANCH  19  22
ENDBRANCH  14  16
ENDBRANCH   5  12
BRANCH  10  24
HETATM   24  O2  UNK     1       5.548   2.751  -3.940  1.00  0.00    -0.361 OA
HETATM   25  H10 UNK     1       5.076   2.813  -4.788  1.00  0.00     0.217 HD
ENDBRANCH  10  24
TORSDOF 4
