REMARK  8 active torsions:
REMARK  status: ('A' for Active; 'I' for Inactive)
REMARK    1  A    between atoms: C12_19  and  O2_2 
REMARK    2  A    between atoms: C6_13  and  O2_2 
REMARK    3  A    between atoms: C17_24  and  O5_5 
REMARK    4  A    between atoms: C10_17  and  N1_6 
REMARK    5  A    between atoms: C1_8  and  C3_10 
REMARK    6  A    between atoms: C11_18  and  C14_21 
REMARK    7  A    between atoms: C11_18  and  C12_19 
REMARK    8  A    between atoms: C14_21  and  C18_25 
ROOT
HETATM    1  O1  UNK     1       2.566   2.702   0.013  1.00  0.00    -0.269 OA
HETATM    2  O3  UNK     1       2.676   1.886  -2.181  1.00  0.00    -0.286 OA
HETATM    3  O4  UNK     1      -0.807  -0.167  -1.721  1.00  0.00    -0.287 OA
HETATM    4  N2  UNK     1      -0.522   2.892   3.706  1.00  0.00    -0.191 NA
HETATM    5  C1  UNK     1       0.157   1.263   0.599  1.00  0.00     0.111 C 
HETATM    6  C2  UNK     1       0.857   1.224  -0.742  1.00  0.00     0.066 A 
HETATM    7  C4  UNK     1       0.747   2.323   1.519  1.00  0.00     0.086 C 
HETATM    8  C5  UNK     1       1.993   1.909  -0.975  1.00  0.00     0.204 A 
HETATM    9  C7  UNK     1       0.254   0.431  -1.847  1.00  0.00     0.197 A 
HETATM   10  C9  UNK     1       1.002   0.400  -3.111  1.00  0.00     0.049 A 
HETATM   11  C10 UNK     1       1.891   2.970   1.202  1.00  0.00     0.162 C 
HETATM   12  C13 UNK     1       2.181   1.132  -3.211  1.00  0.00     0.092 A 
HETATM   13  C19 UNK     1       0.541  -0.348  -4.198  1.00  0.00     0.018 A 
HETATM   14  C20 UNK     1       2.910   1.121  -4.401  1.00  0.00     0.038 A 
HETATM   15  C21 UNK     1       0.046   2.637   2.727  1.00  0.00     0.100 C 
HETATM   16  C22 UNK     1       1.272  -0.358  -5.387  1.00  0.00     0.001 A 
HETATM   17  C23 UNK     1       2.455   0.375  -5.488  1.00  0.00     0.003 A 
ENDROOT
BRANCH   5  18
HETATM   18  C3  UNK     1       0.209  -0.084   1.258  1.00  0.00    -0.011 A 
HETATM   19  C6  UNK     1      -0.963  -0.776   1.541  1.00  0.00     0.078 A 
HETATM   20  C15 UNK     1      -0.897  -2.027   2.156  1.00  0.00     0.074 A 
HETATM   21  C17 UNK     1       0.342  -2.578   2.484  1.00  0.00     0.070 A 
HETATM   22  C16 UNK     1       1.514  -1.878   2.197  1.00  0.00     0.037 A 
HETATM   23  C8  UNK     1       1.448  -0.628   1.582  1.00  0.00     0.014 A 
BRANCH  19  24
HETATM   24  O2  UNK     1      -2.181  -0.252   1.228  1.00  0.00    -0.350 OA
BRANCH  24  25
HETATM   25  C12 UNK     1      -3.225  -1.175   0.923  1.00  0.00     0.175 C 
BRANCH  25  26
HETATM   26  C11 UNK     1      -4.196  -0.517  -0.047  1.00  0.00     0.027 C 
BRANCH  26  27
HETATM   27  C14 UNK     1      -5.335  -1.458  -0.430  1.00  0.00     0.002 C 
BRANCH  27  28
HETATM   28  C18 UNK     1      -6.282  -0.805  -1.437  1.00  0.00    -0.004 C 
HETATM   29  C24 UNK     1      -7.399  -1.751  -1.847  1.00  0.00     0.005 C 
ENDBRANCH  27  28
ENDBRANCH  26  27
ENDBRANCH  25  26
ENDBRANCH  24  25
ENDBRANCH  19  24
BRANCH  21  30
HETATM   30  O5  UNK     1       0.407  -3.798   3.084  1.00  0.00    -0.356 OA
HETATM   31  C25 UNK     1       1.706  -4.301   3.392  1.00  0.00     0.210 C 
ENDBRANCH  21  30
ENDBRANCH   5  18
BRANCH  11  32
HETATM   32  N1  UNK     1       2.496   3.922   1.976  1.00  0.00    -0.379 N 
HETATM   33  H15 UNK     1       2.101   4.200   2.864  1.00  0.00     0.158 HD
HETATM   34  H16 UNK     1       3.354   4.346   1.645  1.00  0.00     0.158 HD
ENDBRANCH  11  32
TORSDOF 8
