REMARK  9 active torsions:
REMARK  status: ('A' for Active; 'I' for Inactive)
REMARK    1  A    between atoms: C15_23  and  O1_3 
REMARK    2  A    between atoms: C18_26  and  O1_3 
REMARK    3  A    between atoms: C13_21  and  N1_8 
REMARK       I    between atoms: C16_24  and  N1_8 
REMARK    4  A    between atoms: C1_9  and  C2_10 
REMARK    5  A    between atoms: C1_9  and  C3_11 
REMARK    6  A    between atoms: C5_13  and  C8_16 
REMARK    7  A    between atoms: C12_20  and  C15_23 
REMARK    8  A    between atoms: C16_24  and  C17_25 
REMARK    9  A    between atoms: C18_26  and  C22_30 
ROOT
HETATM    1  S1  UNK     1       0.672   0.339   2.728  1.00  0.00    -0.082 SA
HETATM    2  C8  UNK     1      -1.588  -0.766   2.209  1.00  0.00    -0.000 A 
HETATM    3  C12 UNK     1      -1.089  -0.284   0.965  1.00  0.00     0.085 A 
HETATM    4  C13 UNK     1       0.132   0.338   1.103  1.00  0.00     0.094 A 
HETATM    5  C14 UNK     1      -0.730  -0.494   3.251  1.00  0.00     0.065 A 
ENDROOT
BRANCH   4   6
HETATM    6  N1  UNK     1       0.971   0.946   0.165  1.00  0.00    -0.316 N 
HETATM    7  C16 UNK     1       2.194   1.547   0.429  1.00  0.00     0.262 C 
HETATM    8  O4  UNK     1       2.775   1.664   1.507  1.00  0.00    -0.267 OA
HETATM    9  H15 UNK     1       0.627   0.940  -0.791  1.00  0.00     0.169 HD
BRANCH   7  10
HETATM   10  C17 UNK     1       2.812   2.088  -0.788  1.00  0.00     0.108 A 
HETATM   11  C20 UNK     1       4.010   1.588  -1.115  1.00  0.00     0.037 A 
HETATM   12  C19 UNK     1       4.702   2.062  -2.304  1.00  0.00     0.001 A 
HETATM   13  C21 UNK     1       4.097   3.037  -3.091  1.00  0.00     0.089 A 
HETATM   14  C24 UNK     1       5.953   1.570  -2.684  1.00  0.00     0.038 A 
HETATM   15  O2  UNK     1       2.836   3.559  -2.741  1.00  0.00    -0.274 OA
HETATM   16  C25 UNK     1       4.707   3.534  -4.241  1.00  0.00     0.040 A 
HETATM   17  C23 UNK     1       2.151   3.126  -1.610  1.00  0.00     0.304 A 
HETATM   18  O5  UNK     1       1.053   3.585  -1.313  1.00  0.00    -0.259 OA
HETATM   19  C28 UNK     1       5.954   3.038  -4.613  1.00  0.00     0.026 A 
HETATM   20  C27 UNK     1       6.576   2.058  -3.836  1.00  0.00     0.035 A 
HETATM   21 Cl1  UNK     1       8.118   1.448  -4.300  1.00  0.00    -0.084 Cl
ENDBRANCH   7  10
ENDBRANCH   4   6
BRANCH   3  22
HETATM   22  C15 UNK     1      -1.751  -0.410  -0.311  1.00  0.00     0.297 C 
HETATM   23  O3  UNK     1      -2.849  -0.963  -0.467  1.00  0.00    -0.259 OA
BRANCH  22  24
HETATM   24  O1  UNK     1      -1.050   0.144  -1.360  1.00  0.00    -0.317 OA
BRANCH  24  25
HETATM   25  C18 UNK     1      -1.651   0.053  -2.657  1.00  0.00     0.178 C 
BRANCH  25  26
HETATM   26  C22 UNK     1      -0.732   0.717  -3.672  1.00  0.00     0.022 C 
HETATM   27  C26 UNK     1       0.625   0.040  -3.732  1.00  0.00     0.007 C 
ENDBRANCH  25  26
ENDBRANCH  24  25
ENDBRANCH  22  24
ENDBRANCH   3  22
BRANCH   2  28
HETATM   28  C5  UNK     1      -2.825  -1.462   2.451  1.00  0.00    -0.024 A 
HETATM   29  C10 UNK     1      -3.983  -0.745   2.753  1.00  0.00     0.013 A 
HETATM   30  C7  UNK     1      -5.181  -1.420   2.985  1.00  0.00     0.008 A 
HETATM   31  C2  UNK     1      -5.222  -2.812   2.917  1.00  0.00    -0.054 A 
HETATM   32  C6  UNK     1      -4.064  -3.530   2.615  1.00  0.00     0.008 A 
HETATM   33  C9  UNK     1      -2.866  -2.855   2.382  1.00  0.00     0.013 A 
BRANCH  31  34
HETATM   34  C1  UNK     1      -6.502  -3.534   3.167  1.00  0.00     0.014 C 
HETATM   35  C4  UNK     1      -6.408  -4.447   4.408  1.00  0.00     0.015 C 
BRANCH  34  36
HETATM   36  C3  UNK     1      -7.001  -4.387   1.968  1.00  0.00     0.004 C 
HETATM   37  C11 UNK     1      -7.252  -3.552   0.717  1.00  0.00     0.006 C 
ENDBRANCH  34  36
ENDBRANCH  31  34
ENDBRANCH   2  28
TORSDOF 9
