REMARK  4 active torsions:
REMARK  status: ('A' for Active; 'I' for Inactive)
REMARK    1  A    between atoms: C5_8  and  O1_1 
REMARK    2  A    between atoms: C8_11  and  O1_1 
REMARK    3  A    between atoms: C3_6  and  C5_8 
REMARK    4  A    between atoms: C3_6  and  C7_10 
ROOT
HETATM    1  O2  UNK     1      -1.766  -0.936  -0.917  1.00  0.00    -0.274 OA
HETATM    2  O3  UNK     1      -3.890  -1.710  -1.121  1.00  0.00    -0.259 OA
HETATM    3  C1  UNK     1      -0.868  -0.381   1.275  1.00  0.00     0.005 A 
HETATM    4  C2  UNK     1      -2.152  -0.785   1.884  1.00  0.00    -0.037 A 
HETATM    5  C4  UNK     1      -0.719  -0.472  -0.105  1.00  0.00     0.092 A 
HETATM    6  C6  UNK     1      -3.162  -1.197   1.089  1.00  0.00     0.020 A 
HETATM    7  C8  UNK     1       1.535   0.363  -0.017  1.00  0.00     0.071 A 
HETATM    8  C9  UNK     1       0.461  -0.111  -0.761  1.00  0.00     0.075 A 
HETATM    9  C10 UNK     1       0.228   0.106   2.006  1.00  0.00     0.017 A 
HETATM   10  C11 UNK     1       1.418   0.473   1.366  1.00  0.00     0.038 A 
HETATM   11  C12 UNK     1      -2.243  -0.723   3.389  1.00  0.00     0.050 C 
HETATM   12  C13 UNK     1      -2.992  -1.305  -0.389  1.00  0.00     0.294 A 
HETATM   13  C15 UNK     1      -4.540  -1.576   1.572  1.00  0.00     0.055 C 
ENDROOT
BRANCH   7  14
HETATM   14  O1  UNK     1       2.692   0.720  -0.636  1.00  0.00    -0.351 OA
BRANCH  14  15
HETATM   15  C5  UNK     1       2.590   1.215  -1.971  1.00  0.00     0.175 C 
BRANCH  15  16
HETATM   16  C3  UNK     1       3.734   2.187  -2.223  1.00  0.00     0.026 C 
BRANCH  16  17
HETATM   17  C7  UNK     1       3.677   2.770  -3.633  1.00  0.00    -0.002 C 
HETATM   18  C14 UNK     1       4.796   3.772  -3.866  1.00  0.00     0.005 C 
ENDBRANCH  16  17
ENDBRANCH  15  16
ENDBRANCH  14  15
ENDBRANCH   7  14
TORSDOF 4
