REMARK  3 active torsions:
REMARK  status: ('A' for Active; 'I' for Inactive)
REMARK    1  A    between atoms: C10_16  and  N1_5 
REMARK    2  A    between atoms: C5_11  and  N1_5 
REMARK    3  A    between atoms: C12_18  and  N2_6 
ROOT
HETATM    1  O1  UNK     1       2.975   1.019  -1.825  1.00  0.00    -0.273 OA
HETATM    2  O2  UNK     1       4.154   1.361   0.098  1.00  0.00    -0.257 OA
HETATM    3  C10 UNK     1       0.567   1.094  -0.271  1.00  0.00     0.081 A 
HETATM    4  C11 UNK     1       0.528   0.874  -1.740  1.00  0.00     0.027 A 
HETATM    5  C12 UNK     1       1.790   1.247   0.263  1.00  0.00     0.205 A 
HETATM    6  C13 UNK     1       1.728   0.846  -2.459  1.00  0.00     0.092 A 
HETATM    7  C14 UNK     1      -0.653   0.685  -2.477  1.00  0.00     0.017 A 
HETATM    8  C15 UNK     1       3.071   1.218  -0.458  1.00  0.00     0.324 A 
HETATM    9  C16 UNK     1       1.776   0.645  -3.842  1.00  0.00     0.038 A 
HETATM   10  C17 UNK     1      -0.621   0.482  -3.864  1.00  0.00     0.001 A 
HETATM   11  C18 UNK     1       0.592   0.462  -4.545  1.00  0.00     0.003 A 
ENDROOT
BRANCH   3  12
HETATM   12  N1  UNK     1      -0.609   1.124   0.401  1.00  0.00    -0.382 N 
HETATM   13  H18 UNK     1      -0.626   1.716   1.226  1.00  0.00     0.160 HD
BRANCH  12  14
HETATM   14  C5  UNK     1      -1.524   0.001   0.461  1.00  0.00     0.083 C 
HETATM   15  C3  UNK     1      -1.014  -1.005   1.496  1.00  0.00     0.034 C 
HETATM   16  C1  UNK     1      -1.957  -2.211   1.696  1.00  0.00    -0.045 C 
HETATM   17  C2  UNK     1      -3.411  -1.730   1.934  1.00  0.00     0.013 C 
HETATM   18  C7  UNK     1      -1.863  -3.176   0.501  1.00  0.00     0.015 C 
HETATM   19  C8  UNK     1      -1.497  -2.996   2.944  1.00  0.00     0.015 C 
HETATM   20  C4  UNK     1      -3.940  -0.628   1.000  1.00  0.00    -0.016 C 
HETATM   21  C6  UNK     1      -2.921   0.505   0.827  1.00  0.00     0.029 C 
HETATM   22  C9  UNK     1      -4.445  -1.154  -0.344  1.00  0.00     0.010 C 
ENDBRANCH  12  14
ENDBRANCH   3  12
BRANCH   5  23
HETATM   23  N2  UNK     1       1.869   1.460   1.673  1.00  0.00    -0.107 N 
HETATM   24  O3  UNK     1       0.802   1.488   2.297  1.00  0.00    -0.531 OA
HETATM   25  O4  UNK     1       2.997   1.600   2.158  1.00  0.00    -0.531 OA
ENDBRANCH   5  23
TORSDOF 3
