REMARK  3 active torsions:
REMARK  status: ('A' for Active; 'I' for Inactive)
REMARK    1  A    between atoms: C13_19  and  O3_3 
REMARK    2  A    between atoms: C1_7  and  C10_16 
REMARK    3  A    between atoms: C13_19  and  C6_12 
ROOT
HETATM    1  O1  UNK     1       1.379  -1.603   1.838  1.00  0.00    -0.293 OA
HETATM    2  N1  UNK     1      -3.135  -0.237   1.393  1.00  0.00    -0.362 N 
HETATM    3  C1  UNK     1      -0.694  -0.732   0.032  1.00  0.00     0.104 C 
HETATM    4  C2  UNK     1      -0.845  -0.825   1.547  1.00  0.00     0.024 C 
HETATM    5  C3  UNK     1      -2.023  -0.556   2.148  1.00  0.00     0.020 C 
HETATM    6  C4  UNK     1      -2.215  -0.584   3.642  1.00  0.00     0.058 C 
HETATM    7  C5  UNK     1      -0.897  -0.446   4.394  1.00  0.00     0.014 C 
HETATM    8  C6  UNK     1      -2.030  -0.515  -0.682  1.00  0.00     0.052 C 
HETATM    9  C7  UNK     1       0.132  -1.429   3.866  1.00  0.00     0.084 C 
HETATM   10  C8  UNK     1       0.317  -1.285   2.371  1.00  0.00     0.158 C 
HETATM   11  C9  UNK     1      -3.165  -0.256   0.007  1.00  0.00     0.018 C 
HETATM   12  C12 UNK     1      -4.514   0.020  -0.601  1.00  0.00     0.069 C 
HETATM   13  H8  UNK     1      -4.001  -0.045   1.882  1.00  0.00     0.165 HD
ENDROOT
BRANCH   3  14
HETATM   14  C10 UNK     1       0.272   0.364  -0.329  1.00  0.00     0.029 A 
HETATM   15  C11 UNK     1       1.520   0.002  -1.047  1.00  0.00     0.194 A 
HETATM   16  O4  UNK     1       1.783  -1.154  -1.353  1.00  0.00    -0.287 OA
HETATM   17  C15 UNK     1       2.431   1.113  -1.376  1.00  0.00     0.048 A 
HETATM   18  C16 UNK     1       2.080   2.411  -1.004  1.00  0.00     0.089 A 
HETATM   19  C17 UNK     1       3.631   0.875  -2.051  1.00  0.00     0.018 A 
HETATM   20  O2  UNK     1       0.915   2.703  -0.340  1.00  0.00    -0.321 OA
HETATM   21  C18 UNK     1       2.927   3.478  -1.305  1.00  0.00     0.038 A 
HETATM   22  C14 UNK     1       0.076   1.657  -0.040  1.00  0.00     0.154 A 
HETATM   23  C20 UNK     1       4.125   3.243  -1.979  1.00  0.00     0.003 A 
HETATM   24  C19 UNK     1       4.476   1.945  -2.351  1.00  0.00     0.001 A 
ENDBRANCH   3  14
BRANCH   8  25
HETATM   25  C13 UNK     1      -2.020  -0.653  -2.148  1.00  0.00     0.291 C 
HETATM   26  O5  UNK     1      -1.845   0.283  -2.906  1.00  0.00    -0.260 OA
BRANCH  25  27
HETATM   27  O3  UNK     1      -2.233  -1.955  -2.456  1.00  0.00    -0.323 OA
HETATM   28  C21 UNK     1      -2.251  -2.251  -3.856  1.00  0.00     0.213 C 
ENDBRANCH  25  27
ENDBRANCH   8  25
TORSDOF 3
