REMARK  5 active torsions:
REMARK  status: ('A' for Active; 'I' for Inactive)
REMARK    1  A    between atoms: C2_9  and  O1_1 
REMARK    2  A    between atoms: C3_10  and  O1_1 
REMARK       I    between atoms: C9_16  and  N1_6 
REMARK    3  A    between atoms: N1_6  and  N2_7 
REMARK       I    between atoms: C19_26  and  N2_7 
REMARK    4  A    between atoms: C3_10  and  C9_16 
REMARK    5  A    between atoms: C13_20  and  C19_26 
ROOT
HETATM    1  O3  UNK     1      -0.484  -1.407  -0.477  1.00  0.00    -0.269 OA
HETATM    2  N1  UNK     1       0.127   0.646   0.414  1.00  0.00    -0.265 N 
HETATM    3  C9  UNK     1      -0.597  -0.531   0.378  1.00  0.00     0.265 C 
HETATM    4  H13 UNK     1      -0.015   1.376   1.104  1.00  0.00     0.190 HD
ENDROOT
BRANCH   2   5
HETATM    5  N2  UNK     1       1.054   0.889  -0.568  1.00  0.00    -0.263 N 
HETATM    6  C19 UNK     1       2.158   1.660  -0.273  1.00  0.00     0.276 C 
HETATM    7  O4  UNK     1       2.416   2.177   0.812  1.00  0.00    -0.266 OA
HETATM    8  H16 UNK     1       0.851   0.507  -1.487  1.00  0.00     0.190 HD
BRANCH   6   9
HETATM    9  C13 UNK     1       3.054   1.828  -1.423  1.00  0.00     0.110 A 
HETATM   10  C16 UNK     1       3.751   2.969  -1.468  1.00  0.00     0.037 A 
HETATM   11  C12 UNK     1       4.666   3.227  -2.570  1.00  0.00    -0.001 A 
HETATM   12  C14 UNK     1       4.802   2.269  -3.570  1.00  0.00     0.089 A 
HETATM   13  C18 UNK     1       5.413   4.404  -2.657  1.00  0.00     0.014 A 
HETATM   14  O2  UNK     1       4.065   1.069  -3.516  1.00  0.00    -0.274 OA
HETATM   15  C21 UNK     1       5.660   2.454  -4.652  1.00  0.00     0.038 A 
HETATM   16  C20 UNK     1       3.183   0.795  -2.476  1.00  0.00     0.304 A 
HETATM   17  O5  UNK     1       2.545  -0.252  -2.438  1.00  0.00    -0.259 OA
HETATM   18  C23 UNK     1       6.402   3.631  -4.732  1.00  0.00     0.003 A 
HETATM   19  C22 UNK     1       6.279   4.604  -3.737  1.00  0.00     0.001 A 
ENDBRANCH   6   9
ENDBRANCH   2   5
BRANCH   3  20
HETATM   20  C3  UNK     1      -1.561  -0.652   1.549  1.00  0.00     0.218 C 
HETATM   21  C10 UNK     1      -0.817  -0.650   2.875  1.00  0.00     0.050 C 
BRANCH  20  22
HETATM   22  O1  UNK     1      -2.274  -1.873   1.443  1.00  0.00    -0.336 OA
BRANCH  22  23
HETATM   23  C2  UNK     1      -3.639  -1.788   1.330  1.00  0.00     0.081 A 
HETATM   24  C1  UNK     1      -4.483  -2.381   2.279  1.00  0.00     0.007 A 
HETATM   25  C4  UNK     1      -5.884  -2.267   2.119  1.00  0.00    -0.023 A 
HETATM   26  C6  UNK     1      -3.973  -3.084   3.382  1.00  0.00     0.015 A 
HETATM   27  C7  UNK     1      -6.395  -1.563   1.015  1.00  0.00     0.012 A 
HETATM   28  C8  UNK     1      -6.735  -2.859   3.067  1.00  0.00     0.012 A 
HETATM   29  C11 UNK     1      -5.535  -0.981   0.083  1.00  0.00     0.004 A 
HETATM   30  C5  UNK     1      -4.157  -1.094   0.240  1.00  0.00     0.038 A 
HETATM   31  C17 UNK     1      -6.211  -3.554   4.157  1.00  0.00     0.001 A 
HETATM   32  C15 UNK     1      -4.832  -3.667   4.315  1.00  0.00     0.001 A 
ENDBRANCH  22  23
ENDBRANCH  20  22
ENDBRANCH   3  20
TORSDOF 5
