REMARK  3 active torsions:
REMARK  status: ('A' for Active; 'I' for Inactive)
REMARK    1  A    between atoms: C21_29  and  O4_6 
REMARK    2  A    between atoms: C1_9  and  C8_16 
REMARK    3  A    between atoms: C6_14  and  C9_17 
ROOT
HETATM    1  O1  UNK     1      -0.249   3.334   0.543  1.00  0.00    -0.293 OA
HETATM    2  N1  UNK     1       0.029  -0.794  -1.930  1.00  0.00    -0.357 N 
HETATM    3  N2  UNK     1      -2.549   0.630  -1.335  1.00  0.00    -0.375 N 
HETATM    4  C1  UNK     1       2.229   2.212  -1.811  1.00  0.00     0.031 C 
HETATM    5  C2  UNK     1       1.903   0.716  -1.803  1.00  0.00     0.067 C 
HETATM    6  C3  UNK     1      -0.268   1.287  -0.690  1.00  0.00     0.037 C 
HETATM    7  C4  UNK     1       1.833   2.816  -0.471  1.00  0.00     0.093 C 
HETATM    8  C5  UNK     1       0.455   0.425  -1.437  1.00  0.00     0.022 C 
HETATM    9  C6  UNK     1      -1.687   1.044  -0.241  1.00  0.00     0.160 C 
HETATM   10  C7  UNK     1       0.377   2.550  -0.171  1.00  0.00     0.160 C 
HETATM   11  C10 UNK     1      -1.260  -1.282  -2.224  1.00  0.00     0.059 A 
HETATM   12  C11 UNK     1      -2.457  -0.581  -2.005  1.00  0.00     0.055 A 
HETATM   13  C16 UNK     1      -1.324  -2.555  -2.840  1.00  0.00     0.032 A 
HETATM   14  C17 UNK     1      -3.667  -1.158  -2.454  1.00  0.00     0.031 A 
HETATM   15  C22 UNK     1      -2.531  -3.113  -3.257  1.00  0.00     0.002 A 
HETATM   16  C23 UNK     1      -3.707  -2.407  -3.072  1.00  0.00     0.002 A 
HETATM   17  H7  UNK     1       0.782  -1.404  -2.236  1.00  0.00     0.166 HD
HETATM   18  H8  UNK     1      -3.441   1.112  -1.403  1.00  0.00     0.160 HD
ENDROOT
BRANCH   9  19
HETATM   19  C9  UNK     1      -1.783   0.087   0.910  1.00  0.00     0.042 A 
HETATM   20  C14 UNK     1      -3.126  -0.233   1.456  1.00  0.00     0.195 A 
HETATM   21  O3  UNK     1      -4.149   0.257   0.996  1.00  0.00    -0.287 OA
HETATM   22  C18 UNK     1      -3.164  -1.179   2.586  1.00  0.00     0.052 A 
HETATM   23  C24 UNK     1      -1.966  -1.708   3.068  1.00  0.00     0.111 A 
HETATM   24  C25 UNK     1      -4.379  -1.544   3.170  1.00  0.00     0.042 A 
HETATM   25  O2  UNK     1      -0.745  -1.385   2.533  1.00  0.00    -0.319 OA
HETATM   26  C26 UNK     1      -1.978  -2.605   4.137  1.00  0.00     0.070 A 
HETATM   27  C15 UNK     1      -0.725  -0.503   1.481  1.00  0.00     0.156 A 
HETATM   28 Cl1  UNK     1      -0.519  -3.282   4.765  1.00  0.00    -0.081 Cl
HETATM   29  C28 UNK     1      -3.190  -2.971   4.721  1.00  0.00     0.050 A 
HETATM   30  C27 UNK     1      -4.388  -2.442   4.239  1.00  0.00     0.036 A 
HETATM   31 Cl2  UNK     1      -5.882  -2.897   4.965  1.00  0.00    -0.084 Cl
ENDBRANCH   9  19
BRANCH   4  32
HETATM   32  C8  UNK     1       3.683   2.479  -2.154  1.00  0.00    -0.053 A 
HETATM   33  C12 UNK     1       4.003   3.212  -3.295  1.00  0.00     0.010 A 
HETATM   34  C19 UNK     1       5.340   3.457  -3.611  1.00  0.00     0.037 A 
HETATM   35  C21 UNK     1       6.352   2.969  -2.785  1.00  0.00     0.068 A 
HETATM   36  C20 UNK     1       6.029   2.236  -1.643  1.00  0.00     0.037 A 
HETATM   37  C13 UNK     1       4.692   1.991  -1.327  1.00  0.00     0.010 A 
BRANCH  35  38
HETATM   38  O4  UNK     1       7.656   3.209  -3.093  1.00  0.00    -0.356 OA
HETATM   39  C29 UNK     1       8.641   2.682  -2.206  1.00  0.00     0.210 C 
ENDBRANCH  35  38
ENDBRANCH   4  32
TORSDOF 3
