REMARK  7 active torsions:
REMARK  status: ('A' for Active; 'I' for Inactive)
REMARK    1  A    between atoms: C13_21  and  O2_3 
REMARK    2  A    between atoms: C5_13  and  O2_3 
REMARK    3  A    between atoms: C16_24  and  O3_4 
REMARK    4  A    between atoms: C18_26  and  O3_4 
REMARK    5  A    between atoms: C11_19  and  N1_8 
REMARK       I    between atoms: C9_17  and  N1_8 
REMARK    6  A    between atoms: C3_11  and  C9_17 
REMARK    7  A    between atoms: C12_20  and  C16_24 
ROOT
HETATM    1  O1  UNK     1       2.179   0.847  -0.463  1.00  0.00    -0.271 OA
HETATM    2  O4  UNK     1       0.793  -0.594   0.643  1.00  0.00    -0.259 OA
HETATM    3  C1  UNK     1       1.540   1.684  -2.654  1.00  0.00     0.002 A 
HETATM    4  C2  UNK     1       2.445   1.637  -1.598  1.00  0.00     0.123 A 
HETATM    5  C3  UNK     1       0.069   0.155  -1.485  1.00  0.00     0.108 A 
HETATM    6  C4  UNK     1       0.316   0.903  -2.567  1.00  0.00     0.037 A 
HETATM    7  C5  UNK     1       3.635   2.361  -1.620  1.00  0.00     0.103 A 
HETATM    8  C6  UNK     1       1.838   2.480  -3.763  1.00  0.00     0.014 A 
HETATM    9  C7  UNK     1       3.925   3.152  -2.729  1.00  0.00     0.040 A 
HETATM   10  C8  UNK     1       1.016   0.091  -0.350  1.00  0.00     0.304 A 
HETATM   11  C10 UNK     1       3.029   3.211  -3.799  1.00  0.00     0.004 A 
ENDROOT
BRANCH   5  12
HETATM   12  C9  UNK     1      -1.192  -0.596  -1.491  1.00  0.00     0.262 C 
HETATM   13  O5  UNK     1      -1.666  -0.977  -2.560  1.00  0.00    -0.267 OA
HETATM   14  N1  UNK     1      -1.693  -0.776  -0.209  1.00  0.00    -0.316 N 
HETATM   15  H5  UNK     1      -1.194  -0.382   0.585  1.00  0.00     0.169 HD
BRANCH  14  16
HETATM   16  C11 UNK     1      -2.872  -1.448   0.129  1.00  0.00     0.093 A 
HETATM   17  S1  UNK     1      -3.753  -2.093  -1.173  1.00  0.00    -0.083 SA
HETATM   18  C15 UNK     1      -4.942  -2.702  -0.102  1.00  0.00     0.053 A 
HETATM   19  C14 UNK     1      -4.653  -2.409   1.213  1.00  0.00     0.028 A 
HETATM   20  C12 UNK     1      -3.439  -1.674   1.343  1.00  0.00     0.073 A 
BRANCH  20  21
HETATM   21  C16 UNK     1      -2.877  -1.223   2.590  1.00  0.00     0.296 C 
HETATM   22  O6  UNK     1      -1.818  -0.584   2.681  1.00  0.00    -0.259 OA
BRANCH  21  23
HETATM   23  O3  UNK     1      -3.623  -1.566   3.697  1.00  0.00    -0.318 OA
BRANCH  23  24
HETATM   24  C18 UNK     1      -3.120  -1.149   4.972  1.00  0.00     0.174 C 
HETATM   25  C19 UNK     1      -4.071  -1.616   6.053  1.00  0.00     0.034 C 
ENDBRANCH  23  24
ENDBRANCH  21  23
ENDBRANCH  20  21
ENDBRANCH  14  16
ENDBRANCH   5  12
BRANCH   7  26
HETATM   26  O2  UNK     1       4.511   2.306  -0.581  1.00  0.00    -0.349 OA
BRANCH  26  27
HETATM   27  C13 UNK     1       5.894   2.482  -0.886  1.00  0.00     0.171 C 
HETATM   28  C17 UNK     1       6.723   1.714   0.121  1.00  0.00     0.034 C 
ENDBRANCH  26  27
ENDBRANCH   7  26
TORSDOF 7
