REMARK  6 active torsions:
REMARK  status: ('A' for Active; 'I' for Inactive)
REMARK    1  A    between atoms: C8_16  and  N1_5 
REMARK    2  A    between atoms: C22_30  and  N2_6 
REMARK    3  A    between atoms: C4_12  and  N2_6 
REMARK       I    between atoms: C19_27  and  N3_7 
REMARK    4  A    between atoms: N3_7  and  N4_8 
REMARK    5  A    between atoms: C22_30  and  N4_8 
REMARK    6  A    between atoms: C11_19  and  C19_27 
ROOT
HETATM    1  N4  UNK     1      -1.253  -0.384  -2.922  1.00  0.00    -0.273 N 
HETATM    2  H18 UNK     1      -1.732  -0.829  -3.697  1.00  0.00     0.189 HD
ENDROOT
BRANCH   1   3
HETATM    3  C22 UNK     1      -0.238   0.545  -3.130  1.00  0.00     0.191 C 
HETATM    4  S1  UNK     1       0.134   0.918  -4.721  1.00  0.00    -0.039 SA
BRANCH   3   5
HETATM    5  N2  UNK     1       0.326   1.057  -1.947  1.00  0.00    -0.332 N 
HETATM    6  H10 UNK     1      -0.304   1.004  -1.151  1.00  0.00     0.168 HD
BRANCH   5   7
HETATM    7  C4  UNK     1       1.582   1.559  -1.606  1.00  0.00     0.037 A 
HETATM    8  C6  UNK     1       2.602   1.592  -2.551  1.00  0.00     0.067 A 
HETATM    9  C2  UNK     1       3.851   2.099  -2.188  1.00  0.00     0.092 A 
HETATM   10  C1  UNK     1       4.117   2.577  -0.904  1.00  0.00     0.004 A 
HETATM   11  O1  UNK     1       4.843   2.107  -3.188  1.00  0.00    -0.275 OA
HETATM   12  C3  UNK     1       5.460   3.093  -0.609  1.00  0.00    -0.043 A 
HETATM   13  C5  UNK     1       3.076   2.535   0.034  1.00  0.00     0.017 A 
HETATM   14  C10 UNK     1       5.778   3.614   0.762  1.00  0.00     0.049 C 
HETATM   15  C9  UNK     1       6.385   3.088  -1.580  1.00  0.00     0.090 A 
HETATM   16  C14 UNK     1       6.119   2.588  -2.940  1.00  0.00     0.288 A 
HETATM   17  O2  UNK     1       6.990   2.600  -3.803  1.00  0.00    -0.260 OA
HETATM   18  C7  UNK     1       1.819   2.029  -0.315  1.00  0.00     0.030 A 
ENDBRANCH   5   7
ENDBRANCH   3   5
ENDBRANCH   1   3
BRANCH   1  19
HETATM   19  N3  UNK     1      -1.658  -0.743  -1.656  1.00  0.00    -0.264 N 
HETATM   20  C19 UNK     1      -2.974  -1.114  -1.459  1.00  0.00     0.270 C 
HETATM   21  O3  UNK     1      -3.835  -1.152  -2.333  1.00  0.00    -0.266 OA
HETATM   22  H17 UNK     1      -0.943  -0.744  -0.938  1.00  0.00     0.190 HD
BRANCH  20  23
HETATM   23  C11 UNK     1      -3.335  -1.473  -0.064  1.00  0.00     0.033 A 
HETATM   24  C15 UNK     1      -4.640  -1.306   0.351  1.00  0.00     0.019 A 
HETATM   25  C12 UNK     1      -4.979  -1.642   1.662  1.00  0.00     0.031 A 
HETATM   26  C8  UNK     1      -4.005  -2.138   2.529  1.00  0.00     0.038 A 
HETATM   27  C13 UNK     1      -2.692  -2.297   2.085  1.00  0.00     0.031 A 
HETATM   28  C16 UNK     1      -2.354  -1.961   0.774  1.00  0.00     0.019 A 
BRANCH  26  29
HETATM   29  N1  UNK     1      -4.340  -2.472   3.828  1.00  0.00    -0.333 N 
HETATM   30  C17 UNK     1      -5.595  -2.362   4.386  1.00  0.00     0.096 A 
HETATM   31  C20 UNK     1      -5.525  -2.793   5.692  1.00  0.00     0.019 A 
HETATM   32  C21 UNK     1      -4.184  -3.178   5.939  1.00  0.00     0.019 A 
HETATM   33  C18 UNK     1      -3.476  -2.971   4.777  1.00  0.00     0.096 A 
ENDBRANCH  26  29
ENDBRANCH  20  23
ENDBRANCH   1  19
TORSDOF 6
