REMARK  3 active torsions:
REMARK  status: ('A' for Active; 'I' for Inactive)
REMARK    1  A    between atoms: C8_16  and  N1_6 
REMARK    2  A    between atoms: C10_18  and  N2_7 
REMARK    3  A    between atoms: C16_24  and  C8_16 
ROOT
HETATM    1  O1  UNK     1      -3.313  -0.309  -0.628  1.00  0.00    -0.291 OA
HETATM    2  O2  UNK     1       0.618  -1.410  -1.365  1.00  0.00    -0.271 OA
HETATM    3  O3  UNK     1      -1.633  -2.374   2.590  1.00  0.00    -0.274 OA
HETATM    4  O4  UNK     1       0.358  -1.336   2.265  1.00  0.00    -0.259 OA
HETATM    5  N1  UNK     1       1.803   0.194  -0.101  1.00  0.00    -0.312 N 
HETATM    6  N3  UNK     1      -0.107   2.602  -2.712  1.00  0.00    -0.191 NA
HETATM    7  C1  UNK     1      -0.575   0.279  -0.002  1.00  0.00     0.147 A 
HETATM    8  C2  UNK     1       0.073   1.329   0.877  1.00  0.00    -0.003 A 
HETATM    9  C3  UNK     1       0.660  -0.455  -0.601  1.00  0.00     0.248 A 
HETATM   10  C4  UNK     1      -1.410  -0.730   0.772  1.00  0.00     0.080 A 
HETATM   11  C5  UNK     1       1.464   1.241   0.770  1.00  0.00     0.045 A 
HETATM   12  C6  UNK     1      -1.329   0.906  -1.175  1.00  0.00     0.100 A 
HETATM   13  C7  UNK     1      -2.689  -0.952   0.424  1.00  0.00     0.105 A 
HETATM   14  C9  UNK     1      -0.518   2.282   1.691  1.00  0.00     0.011 A 
HETATM   15  C10 UNK     1      -2.621   0.595  -1.425  1.00  0.00     0.160 A 
HETATM   16  C11 UNK     1       2.302   2.095   1.465  1.00  0.00     0.030 A 
HETATM   17  C12 UNK     1      -0.808  -1.480   1.915  1.00  0.00     0.299 A 
HETATM   18  C13 UNK     1      -3.527  -1.906   1.148  1.00  0.00     0.033 A 
HETATM   19  C14 UNK     1       0.315   3.151   2.400  1.00  0.00     0.001 A 
HETATM   20  C15 UNK     1       1.712   3.058   2.287  1.00  0.00     0.002 A 
HETATM   21  C17 UNK     1      -2.970  -2.593   2.220  1.00  0.00     0.092 A 
HETATM   22  C18 UNK     1      -0.654   1.844  -2.025  1.00  0.00     0.101 C 
HETATM   23  C19 UNK     1      -4.865  -2.167   0.824  1.00  0.00     0.017 A 
HETATM   24  C20 UNK     1      -3.697  -3.519   2.968  1.00  0.00     0.038 A 
HETATM   25  C23 UNK     1      -5.608  -3.093   1.563  1.00  0.00     0.001 A 
HETATM   26  C24 UNK     1      -5.024  -3.768   2.634  1.00  0.00     0.003 A 
ENDROOT
BRANCH  15  27
HETATM   27  N2  UNK     1      -3.373   1.108  -2.446  1.00  0.00    -0.379 N 
HETATM   28  H8  UNK     1      -2.983   1.777  -3.097  1.00  0.00     0.158 HD
HETATM   29  H9  UNK     1      -4.334   0.806  -2.543  1.00  0.00     0.158 HD
ENDBRANCH  15  27
BRANCH   5  30
HETATM   30  C8  UNK     1       3.157  -0.171  -0.440  1.00  0.00     0.170 C 
BRANCH  30  31
HETATM   31  C16 UNK     1       3.660   0.568  -1.649  1.00  0.00    -0.040 A 
HETATM   32  C21 UNK     1       3.475   0.022  -2.913  1.00  0.00     0.010 A 
HETATM   33  C25 UNK     1       3.943   0.708  -4.034  1.00  0.00     0.024 A 
HETATM   34  C27 UNK     1       4.593   1.933  -3.882  1.00  0.00     0.034 A 
HETATM   35  C26 UNK     1       4.775   2.472  -2.609  1.00  0.00     0.024 A 
HETATM   36 Cl1  UNK     1       5.171   2.777  -5.265  1.00  0.00    -0.084 Cl
HETATM   37  C22 UNK     1       4.307   1.787  -1.488  1.00  0.00     0.010 A 
ENDBRANCH  30  31
ENDBRANCH   5  30
TORSDOF 3
