REMARK  3 active torsions:
REMARK  status: ('A' for Active; 'I' for Inactive)
REMARK    1  A    between atoms: C10_17  and  O2_3 
REMARK    2  A    between atoms: C3_10  and  N1_6 
REMARK       I    between atoms: C9_16  and  N1_6 
REMARK    3  A    between atoms: C7_14  and  C9_16 
ROOT
HETATM    1  S1  UNK     1      -1.985  -1.570   2.855  1.00  0.00    -0.075 SA
HETATM    2  N2  UNK     1      -4.535  -0.760  -1.477  1.00  0.00    -0.191 NA
HETATM    3  C1  UNK     1      -4.346  -1.955   1.919  1.00  0.00    -0.026 A 
HETATM    4  C3  UNK     1      -2.338  -1.095   1.270  1.00  0.00     0.098 A 
HETATM    5  C4  UNK     1      -3.588  -2.140   3.054  1.00  0.00    -0.012 A 
HETATM    6  C6  UNK     1      -3.601  -1.339   0.872  1.00  0.00     0.085 A 
HETATM    7  C12 UNK     1      -5.772  -2.356   1.809  1.00  0.00     0.051 C 
HETATM    8  C14 UNK     1      -3.982  -2.741   4.348  1.00  0.00     0.057 C 
HETATM    9  C17 UNK     1      -4.116  -1.020  -0.424  1.00  0.00     0.103 C 
ENDROOT
BRANCH   4  10
HETATM   10  N1  UNK     1      -1.260  -0.503   0.569  1.00  0.00    -0.316 N 
HETATM   11  C9  UNK     1       0.029  -0.275   1.032  1.00  0.00     0.262 C 
HETATM   12  O3  UNK     1       0.495  -0.539   2.139  1.00  0.00    -0.267 OA
HETATM   13  H2  UNK     1      -1.504  -0.207  -0.373  1.00  0.00     0.170 HD
BRANCH  11  14
HETATM   14  C7  UNK     1       0.877   0.361   0.017  1.00  0.00     0.108 A 
HETATM   15  C13 UNK     1       0.673   0.134  -1.432  1.00  0.00     0.304 A 
HETATM   16  O1  UNK     1       1.543   0.793  -2.296  1.00  0.00    -0.271 OA
HETATM   17  O4  UNK     1      -0.217  -0.595  -1.855  1.00  0.00    -0.259 OA
HETATM   18  C5  UNK     1       2.568   1.634  -1.820  1.00  0.00     0.123 A 
HETATM   19  C10 UNK     1       3.389   2.251  -2.762  1.00  0.00     0.102 A 
HETATM   20  C2  UNK     1       2.743   1.833  -0.455  1.00  0.00     0.002 A 
HETATM   21  C15 UNK     1       4.412   3.088  -2.322  1.00  0.00     0.040 A 
HETATM   22  C16 UNK     1       4.603   3.299  -0.955  1.00  0.00     0.004 A 
HETATM   23  C11 UNK     1       3.771   2.674  -0.022  1.00  0.00     0.014 A 
HETATM   24  C8  UNK     1       1.850   1.158   0.475  1.00  0.00     0.037 A 
BRANCH  19  25
HETATM   25  O2  UNK     1       3.207   2.048  -4.095  1.00  0.00    -0.353 OA
HETATM   26  C18 UNK     1       3.913   0.960  -4.690  1.00  0.00     0.210 C 
ENDBRANCH  19  25
ENDBRANCH  11  14
ENDBRANCH   4  10
TORSDOF 3
