REMARK  3 active torsions:
REMARK  status: ('A' for Active; 'I' for Inactive)
REMARK    1  A    between atoms: C6_10  and  O2_2 
REMARK    2  A    between atoms: C5_9  and  O3_3 
REMARK    3  A    between atoms: C3_7  and  C7_11 
ROOT
HETATM    1  O1  UNK     1       0.259   1.159   0.635  1.00  0.00    -0.306 OA
HETATM    2  O4  UNK     1      -1.896  -1.871  -1.032  1.00  0.00    -0.284 OA
HETATM    3  C1  UNK     1      -1.506  -0.494   0.843  1.00  0.00     0.084 A 
HETATM    4  C2  UNK     1      -0.733   0.545   1.355  1.00  0.00     0.093 A 
HETATM    5  C3  UNK     1       0.494   0.734  -0.662  1.00  0.00     0.123 A 
HETATM    6  C4  UNK     1      -1.253  -0.959  -0.530  1.00  0.00     0.223 A 
HETATM    7  C5  UNK     1      -0.174  -0.263  -1.271  1.00  0.00     0.152 A 
HETATM    8  C6  UNK     1      -2.504  -1.083   1.624  1.00  0.00     0.085 A 
HETATM    9  C8  UNK     1      -0.953   1.003   2.655  1.00  0.00     0.038 A 
HETATM   10  C9  UNK     1      -2.722  -0.623   2.923  1.00  0.00     0.038 A 
HETATM   11  C10 UNK     1      -1.948   0.418   3.438  1.00  0.00     0.006 A 
ENDROOT
BRANCH   5  12
HETATM   12  C7  UNK     1       1.584   1.474  -1.322  1.00  0.00     0.001 A 
HETATM   13  C11 UNK     1       1.301   2.623  -2.062  1.00  0.00     0.014 A 
HETATM   14  C13 UNK     1       2.334   3.324  -2.683  1.00  0.00     0.001 A 
HETATM   15  C15 UNK     1       3.650   2.877  -2.565  1.00  0.00     0.000 A 
HETATM   16  C14 UNK     1       3.933   1.729  -1.826  1.00  0.00     0.001 A 
HETATM   17  C12 UNK     1       2.900   1.028  -1.204  1.00  0.00     0.014 A 
ENDBRANCH   5  12
BRANCH   7  18
HETATM   18  O3  UNK     1       0.106  -0.683  -2.553  1.00  0.00    -0.355 OA
HETATM   19  H9  UNK     1       0.830  -0.153  -2.924  1.00  0.00     0.218 HD
ENDBRANCH   7  18
BRANCH   8  20
HETATM   20  O2  UNK     1      -3.287  -2.101   1.170  1.00  0.00    -0.355 OA
HETATM   21  C16 UNK     1      -4.502  -1.741   0.515  1.00  0.00     0.210 C 
ENDBRANCH   8  20
TORSDOF 3
