REMARK  3 active torsions:
REMARK  status: ('A' for Active; 'I' for Inactive)
REMARK    1  A    between atoms: C15_18  and  O2_2 
REMARK    2  A    between atoms: C7_10  and  O2_2 
REMARK    3  A    between atoms: C2_5  and  C4_7 
ROOT
HETATM    1  O1  UNK     1      -0.067  -0.443  -2.512  1.00  0.00    -0.275 OA
HETATM    2  O3  UNK     1      -1.465  -2.146  -3.123  1.00  0.00    -0.260 OA
HETATM    3  C1  UNK     1      -0.215   0.463  -0.253  1.00  0.00     0.009 A 
HETATM    4  C2  UNK     1      -1.294  -0.491   0.047  1.00  0.00    -0.007 A 
HETATM    5  C3  UNK     1       0.364   0.458  -1.520  1.00  0.00     0.093 A 
HETATM    6  C5  UNK     1       0.264   1.386   0.685  1.00  0.00     0.018 A 
HETATM    7  C6  UNK     1       1.391   1.336  -1.870  1.00  0.00     0.075 A 
HETATM    8  C7  UNK     1       1.855   2.247  -0.926  1.00  0.00     0.071 A 
HETATM    9  C8  UNK     1      -1.682  -1.338  -0.921  1.00  0.00     0.095 A 
HETATM   10  C9  UNK     1       1.293   2.273   0.349  1.00  0.00     0.038 A 
HETATM   11  C10 UNK     1      -1.080  -1.357  -2.267  1.00  0.00     0.289 A 
ENDROOT
BRANCH   4  12
HETATM   12  C4  UNK     1      -2.004  -0.616   1.317  1.00  0.00    -0.025 A 
HETATM   13  C11 UNK     1      -3.157   0.130   1.541  1.00  0.00     0.012 A 
HETATM   14  C13 UNK     1      -3.836   0.010   2.754  1.00  0.00     0.001 A 
HETATM   15  C16 UNK     1      -3.358  -0.856   3.738  1.00  0.00     0.000 A 
HETATM   16  C14 UNK     1      -2.202  -1.602   3.509  1.00  0.00     0.001 A 
HETATM   17  C12 UNK     1      -1.524  -1.482   2.296  1.00  0.00     0.012 A 
ENDBRANCH   4  12
BRANCH   8  18
HETATM   18  O2  UNK     1       2.856   3.112  -1.247  1.00  0.00    -0.351 OA
BRANCH  18  19
HETATM   19  C15 UNK     1       3.808   2.673  -2.215  1.00  0.00     0.171 C 
HETATM   20  C17 UNK     1       5.139   3.338  -1.934  1.00  0.00     0.034 C 
ENDBRANCH  18  19
ENDBRANCH   8  18
TORSDOF 3
