REMARK  5 active torsions:
REMARK  status: ('A' for Active; 'I' for Inactive)
REMARK    1  A    between atoms: C5_11  and  O2_2 
REMARK    2  A    between atoms: C9_15  and  O3_3 
REMARK    3  A    between atoms: C12_18  and  O4_4 
REMARK    4  A    between atoms: C14_20  and  O6_6 
REMARK    5  A    between atoms: C1_7  and  C2_8 
ROOT
HETATM    1  O1  UNK     1      -0.907   0.383   0.955  1.00  0.00    -0.306 OA
HETATM    2  O5  UNK     1      -3.067  -2.336  -1.178  1.00  0.00    -0.284 OA
HETATM    3  C1  UNK     1      -0.690   0.189  -0.400  1.00  0.00     0.123 A 
HETATM    4  C3  UNK     1      -2.657  -1.299   0.900  1.00  0.00     0.051 A 
HETATM    5  C4  UNK     1      -1.883  -0.356   1.573  1.00  0.00     0.093 A 
HETATM    6  C5  UNK     1      -1.360  -0.695  -1.162  1.00  0.00     0.152 A 
HETATM    7  C6  UNK     1      -2.423  -1.518  -0.536  1.00  0.00     0.220 A 
HETATM    8  C10 UNK     1      -3.638  -2.023   1.582  1.00  0.00     0.021 A 
HETATM    9  C11 UNK     1      -2.084  -0.132   2.935  1.00  0.00     0.074 A 
HETATM   10  C14 UNK     1      -3.062  -0.853   3.620  1.00  0.00     0.068 A 
HETATM   11  C15 UNK     1      -3.838  -1.797   2.945  1.00  0.00     0.037 A 
ENDROOT
BRANCH   3  12
HETATM   12  C2  UNK     1       0.385   1.043  -0.937  1.00  0.00     0.004 A 
HETATM   13  C7  UNK     1       1.706   0.597  -0.919  1.00  0.00     0.054 A 
HETATM   14  C9  UNK     1       2.723   1.406  -1.428  1.00  0.00     0.102 A 
HETATM   15  C12 UNK     1       2.418   2.661  -1.954  1.00  0.00     0.101 A 
HETATM   16  C13 UNK     1       1.097   3.108  -1.972  1.00  0.00     0.040 A 
HETATM   17  C8  UNK     1       0.081   2.299  -1.464  1.00  0.00     0.017 A 
BRANCH  14  18
HETATM   18  O3  UNK     1       4.010   0.958  -1.404  1.00  0.00    -0.353 OA
HETATM   19  C16 UNK     1       4.462   0.226  -2.542  1.00  0.00     0.210 C 
ENDBRANCH  14  18
BRANCH  15  20
HETATM   20  O4  UNK     1       3.402   3.460  -2.453  1.00  0.00    -0.353 OA
HETATM   21  C17 UNK     1       4.031   4.360  -1.543  1.00  0.00     0.210 C 
ENDBRANCH  15  20
ENDBRANCH   3  12
BRANCH   6  22
HETATM   22  O2  UNK     1      -1.096  -0.886  -2.501  1.00  0.00    -0.355 OA
HETATM   23  H7  UNK     1      -0.382  -0.294  -2.784  1.00  0.00     0.218 HD
ENDBRANCH   6  22
BRANCH  10  24
HETATM   24  O6  UNK     1      -3.262  -0.637   4.949  1.00  0.00    -0.361 OA
HETATM   25  H8  UNK     1      -3.976  -1.221   5.260  1.00  0.00     0.217 HD
ENDBRANCH  10  24
TORSDOF 5
