REMARK  3 active torsions:
REMARK  status: ('A' for Active; 'I' for Inactive)
REMARK    1  A    between atoms: C5_8  and  N1_2 
REMARK    2  A    between atoms: C10_13  and  C11_14 
REMARK    3  A    between atoms: C12_15  and  C13_16 
ROOT
HETATM    1  N2  UNK     1       4.967   2.458   0.249  1.00  0.00    -0.191 NA
HETATM    2  C11 UNK     1       2.014   0.934   1.115  1.00  0.00     0.034 C 
HETATM    3  C12 UNK     1       2.626   1.375   0.006  1.00  0.00     0.055 C 
HETATM    4  C19 UNK     1       3.918   1.972   0.142  1.00  0.00     0.100 C 
ENDROOT
BRANCH   3   5
HETATM    5  C13 UNK     1       2.054   1.263  -1.351  1.00  0.00    -0.015 A 
HETATM    6  C15 UNK     1       1.278   2.297  -1.844  1.00  0.00     0.014 A 
HETATM    7  C17 UNK     1       0.739   2.192  -3.126  1.00  0.00     0.024 A 
HETATM    8  C18 UNK     1       0.983   1.054  -3.894  1.00  0.00     0.034 A 
HETATM    9  C16 UNK     1       1.768   0.021  -3.381  1.00  0.00     0.024 A 
HETATM   10 Cl1  UNK     1       0.317   0.924  -5.476  1.00  0.00    -0.084 Cl
HETATM   11  C14 UNK     1       2.307   0.126  -2.098  1.00  0.00     0.014 A 
ENDBRANCH   3   5
BRANCH   2  12
HETATM   12  C10 UNK     1       0.702   0.316   1.218  1.00  0.00    -0.035 A 
HETATM   13  C8  UNK     1      -0.424   1.105   1.454  1.00  0.00     0.013 A 
HETATM   14  C6  UNK     1      -1.683   0.512   1.553  1.00  0.00     0.030 A 
HETATM   15  C5  UNK     1      -1.866  -0.894   1.420  1.00  0.00     0.030 A 
HETATM   16  C7  UNK     1      -0.690  -1.659   1.181  1.00  0.00     0.030 A 
HETATM   17  C9  UNK     1       0.569  -1.066   1.082  1.00  0.00     0.013 A 
BRANCH  15  18
HETATM   18  N1  UNK     1      -3.110  -1.479   1.517  1.00  0.00    -0.381 N 
HETATM   19  C3  UNK     1      -4.347  -0.742   1.761  1.00  0.00     0.123 C 
HETATM   20  C1  UNK     1      -5.444  -1.766   1.479  1.00  0.00     0.021 C 
HETATM   21  C2  UNK     1      -4.794  -3.083   1.867  1.00  0.00     0.021 C 
HETATM   22  C4  UNK     1      -3.354  -2.914   1.388  1.00  0.00     0.123 C 
ENDBRANCH  15  18
ENDBRANCH   2  12
TORSDOF 3
