REMARK  4 active torsions:
REMARK  status: ('A' for Active; 'I' for Inactive)
REMARK    1  A    between atoms: C7_11  and  O1_3 
REMARK    2  A    between atoms: C9_13  and  O1_3 
REMARK    3  A    between atoms: C3_7  and  C6_10 
REMARK    4  A    between atoms: C12_16  and  C9_13 
ROOT
HETATM    1 Br1  UNK     1       5.174   3.433  -0.234  1.00  0.00    -0.051 Br
HETATM    2  C3  UNK     1       1.269   2.144  -0.975  1.00  0.00    -0.000 A 
HETATM    3  C7  UNK     1       1.409   1.465  -2.198  1.00  0.00     0.079 A 
HETATM    4  C11 UNK     1       2.410   2.730  -0.400  1.00  0.00     0.033 A 
HETATM    5  C13 UNK     1       2.651   1.375  -2.826  1.00  0.00     0.039 A 
HETATM    6  C16 UNK     1       3.653   2.640  -1.028  1.00  0.00     0.011 A 
HETATM    7  C17 UNK     1       3.773   1.962  -2.241  1.00  0.00     0.022 A 
ENDROOT
BRANCH   2   8
HETATM    8  C6  UNK     1       0.002   2.250  -0.310  1.00  0.00     0.037 C 
HETATM    9  C2  UNK     1      -0.448   1.391   0.607  1.00  0.00     0.057 A 
HETATM   10  C5  UNK     1      -1.772   1.545   1.268  1.00  0.00     0.200 A 
HETATM   11  S1  UNK     1       0.408  -0.008   1.165  1.00  0.00    -0.086 SA
HETATM   12  C1  UNK     1      -1.984   0.452   2.224  1.00  0.00     0.032 A 
HETATM   13  O2  UNK     1      -2.575   2.437   1.061  1.00  0.00    -0.286 OA
HETATM   14  C8  UNK     1      -3.110   0.284   3.017  1.00  0.00     0.017 A 
HETATM   15  C4  UNK     1      -0.912  -0.437   2.268  1.00  0.00     0.020 A 
HETATM   16  C14 UNK     1      -3.150  -0.814   3.876  1.00  0.00     0.001 A 
HETATM   17  C15 UNK     1      -2.077  -1.716   3.928  1.00  0.00     0.001 A 
HETATM   18  C10 UNK     1      -0.950  -1.530   3.121  1.00  0.00     0.020 A 
ENDBRANCH   2   8
BRANCH   3  19
HETATM   19  O1  UNK     1       0.329   0.883  -2.792  1.00  0.00    -0.346 OA
BRANCH  19  20
HETATM   20  C9  UNK     1       0.391  -0.525  -3.010  1.00  0.00     0.214 C 
BRANCH  20  21
HETATM   21  C12 UNK     1      -0.754  -1.182  -2.298  1.00  0.00    -0.034 A 
HETATM   22  C18 UNK     1      -0.614  -2.479  -1.818  1.00  0.00     0.009 A 
HETATM   23  C20 UNK     1      -1.679  -3.091  -1.156  1.00  0.00     0.001 A 
HETATM   24  C22 UNK     1      -2.878  -2.400  -0.979  1.00  0.00     0.000 A 
HETATM   25  C21 UNK     1      -3.012  -1.099  -1.463  1.00  0.00     0.001 A 
HETATM   26  C19 UNK     1      -1.947  -0.488  -2.124  1.00  0.00     0.009 A 
ENDBRANCH  20  21
ENDBRANCH  19  20
ENDBRANCH   3  19
TORSDOF 4
