REMARK  5 active torsions:
REMARK  status: ('A' for Active; 'I' for Inactive)
REMARK    1  A    between atoms: C8_14  and  O3_3 
REMARK    2  A    between atoms: C11_17  and  O4_4 
REMARK    3  A    between atoms: C13_19  and  O5_5 
REMARK    4  A    between atoms: C15_21  and  O6_6 
REMARK    5  A    between atoms: C1_7  and  C3_9 
ROOT
HETATM    1  O1  UNK     1       0.421  -0.514  -0.021  1.00  0.00    -0.337 OA
HETATM    2  O2  UNK     1       1.866   3.323  -0.158  1.00  0.00    -0.292 OA
HETATM    3  C1  UNK     1      -0.343   0.578   0.516  1.00  0.00     0.169 C 
HETATM    4  C2  UNK     1      -0.045   1.875  -0.232  1.00  0.00     0.121 C 
HETATM    5  C4  UNK     1       2.324   1.010  -0.044  1.00  0.00     0.046 A 
HETATM    6  C5  UNK     1       1.426   2.180  -0.123  1.00  0.00     0.165 C 
HETATM    7  C6  UNK     1       1.770  -0.273  -0.019  1.00  0.00     0.119 A 
HETATM    8  C8  UNK     1       2.607  -1.390  -0.022  1.00  0.00     0.133 A 
HETATM    9  C10 UNK     1       3.711   1.181  -0.036  1.00  0.00     0.021 A 
HETATM   10  C11 UNK     1       3.992  -1.222  -0.016  1.00  0.00     0.101 A 
HETATM   11  C12 UNK     1       4.543   0.060  -0.019  1.00  0.00     0.040 A 
ENDROOT
BRANCH   3  12
HETATM   12  C3  UNK     1      -1.812   0.223   0.431  1.00  0.00    -0.026 A 
HETATM   13  C9  UNK     1      -2.566   0.090   1.596  1.00  0.00     0.012 A 
HETATM   14  C14 UNK     1      -3.920  -0.236   1.517  1.00  0.00     0.040 A 
HETATM   15  C15 UNK     1      -4.519  -0.430   0.273  1.00  0.00     0.098 A 
HETATM   16  C13 UNK     1      -3.764  -0.298  -0.893  1.00  0.00     0.099 A 
HETATM   17  C7  UNK     1      -2.410   0.029  -0.814  1.00  0.00     0.049 A 
BRANCH  15  18
HETATM   18  O6  UNK     1      -5.841  -0.750   0.208  1.00  0.00    -0.358 OA
HETATM   19  H12 UNK     1      -6.087  -0.847  -0.728  1.00  0.00     0.217 HD
ENDBRANCH  15  18
BRANCH  16  20
HETATM   20  O5  UNK     1      -4.338  -0.485  -2.114  1.00  0.00    -0.358 OA
HETATM   21  H11 UNK     1      -3.666  -0.352  -2.804  1.00  0.00     0.217 HD
ENDBRANCH  16  20
ENDBRANCH   3  12
BRANCH   8  22
HETATM   22  O3  UNK     1       2.077  -2.647  -0.019  1.00  0.00    -0.356 OA
HETATM   23  H9  UNK     1       1.107  -2.570  -0.020  1.00  0.00     0.218 HD
ENDBRANCH   8  22
BRANCH  10  24
HETATM   24  O4  UNK     1       4.821  -2.304  -0.011  1.00  0.00    -0.358 OA
HETATM   25  H10 UNK     1       5.743  -1.997  -0.008  1.00  0.00     0.217 HD
ENDBRANCH  10  24
TORSDOF 5
