REMARK  1 active torsions:
REMARK  status: ('A' for Active; 'I' for Inactive)
REMARK    1  A    between atoms: C3_6  and  C7_10 
ROOT
HETATM    1  O1  UNK     1       0.357   0.106   0.578  1.00  0.00    -0.309 OA
HETATM    2  O2  UNK     1      -2.607  -0.927  -2.019  1.00  0.00    -0.287 OA
HETATM    3  C1  UNK     1      -1.858  -0.823   0.220  1.00  0.00     0.048 A 
HETATM    4  C2  UNK     1      -0.805  -0.446   1.053  1.00  0.00     0.090 A 
HETATM    5  C3  UNK     1       0.492   0.288  -0.790  1.00  0.00     0.091 A 
HETATM    6  C4  UNK     1      -3.020  -1.381   0.759  1.00  0.00     0.025 A 
HETATM    7  C5  UNK     1      -3.121  -1.559   2.139  1.00  0.00    -0.061 A 
HETATM    8  C6  UNK     1      -1.723  -0.622  -1.230  1.00  0.00     0.187 A 
HETATM    9  C8  UNK     1      -0.451  -0.028  -1.691  1.00  0.00     0.093 A 
HETATM   10  C9  UNK     1      -0.909  -0.625   2.432  1.00  0.00     0.039 A 
HETATM   11  C10 UNK     1      -2.068  -1.182   2.974  1.00  0.00     0.009 A 
HETATM   12  C11 UNK     1      -4.357  -2.154   2.725  1.00  0.00     0.048 C 
ENDROOT
BRANCH   5  13
HETATM   13  C7  UNK     1       1.778   0.894  -1.190  1.00  0.00     0.020 A 
HETATM   14  C12 UNK     1       1.962   2.278  -1.279  1.00  0.00     0.047 A 
HETATM   15 Cl1  UNK     1       0.685   3.387  -0.923  1.00  0.00    -0.083 Cl
HETATM   16  C14 UNK     1       3.197   2.800  -1.663  1.00  0.00     0.025 A 
HETATM   17  C16 UNK     1       4.256   1.941  -1.960  1.00  0.00     0.002 A 
HETATM   18  C15 UNK     1       4.079   0.561  -1.873  1.00  0.00     0.001 A 
HETATM   19  C13 UNK     1       2.844   0.038  -1.490  1.00  0.00     0.016 A 
ENDBRANCH   5  13
TORSDOF 1
