REMARK  6 active torsions:
REMARK  status: ('A' for Active; 'I' for Inactive)
REMARK    1  A    between atoms: C12_20  and  O2_2 
REMARK    2  A    between atoms: C13_21  and  O4_4 
REMARK    3  A    between atoms: C20_28  and  O4_4 
REMARK    4  A    between atoms: C12_20  and  C2_10 
REMARK    5  A    between atoms: C11_19  and  C6_14 
REMARK    6  A    between atoms: C13_21  and  C8_16 
ROOT
HETATM    1  O1  UNK     1       2.514  -0.306  -0.289  1.00  0.00    -0.292 OA
HETATM    2  N1  UNK     1      -0.573   1.335  -3.484  1.00  0.00    -0.362 N 
HETATM    3  C1  UNK     1       2.757   2.690  -2.317  1.00  0.00     0.008 C 
HETATM    4  C2  UNK     1       3.340   1.366  -1.805  1.00  0.00     0.164 C 
HETATM    5  C3  UNK     1       1.642   2.384  -3.330  1.00  0.00     0.063 C 
HETATM    6  C4  UNK     1       0.895   0.516  -1.815  1.00  0.00     0.025 C 
HETATM    7  C5  UNK     1       0.645   1.368  -2.832  1.00  0.00     0.020 C 
HETATM    8  C6  UNK     1      -0.177  -0.447  -1.310  1.00  0.00     0.104 C 
HETATM    9  C7  UNK     1       2.264   0.477  -1.205  1.00  0.00     0.172 C 
HETATM   10  C8  UNK     1      -1.389  -0.507  -2.243  1.00  0.00     0.052 C 
HETATM   11  C9  UNK     1       2.247   3.608  -1.195  1.00  0.00     0.011 C 
HETATM   12  C10 UNK     1      -1.553   0.385  -3.247  1.00  0.00     0.018 C 
HETATM   13  C14 UNK     1      -2.735   0.445  -4.177  1.00  0.00     0.069 C 
HETATM   14  H9  UNK     1      -0.720   1.987  -4.246  1.00  0.00     0.165 HD
ENDROOT
BRANCH   8  15
HETATM   15  C11 UNK     1      -0.611  -0.070   0.085  1.00  0.00     0.029 A 
HETATM   16  C15 UNK     1      -0.391  -1.044   1.184  1.00  0.00     0.194 A 
HETATM   17  O7  UNK     1       0.129  -2.135   0.992  1.00  0.00    -0.287 OA
HETATM   18  C17 UNK     1      -0.835  -0.625   2.527  1.00  0.00     0.049 A 
HETATM   19  C18 UNK     1      -1.423   0.630   2.686  1.00  0.00     0.089 A 
HETATM   20  C19 UNK     1      -0.672  -1.471   3.627  1.00  0.00     0.025 A 
HETATM   21  O3  UNK     1      -1.608   1.500   1.641  1.00  0.00    -0.321 OA
HETATM   22  C22 UNK     1      -1.850   1.047   3.947  1.00  0.00     0.039 A 
HETATM   23  C16 UNK     1      -1.189   1.096   0.397  1.00  0.00     0.154 A 
HETATM   24  C24 UNK     1      -1.688   0.204   5.047  1.00  0.00     0.009 A 
HETATM   25  C23 UNK     1      -1.100  -1.051   4.887  1.00  0.00    -0.061 A 
HETATM   26  C27 UNK     1      -0.929  -1.947   6.068  1.00  0.00     0.048 C 
ENDBRANCH   8  15
BRANCH  10  27
HETATM   27  C13 UNK     1      -2.335  -1.615  -2.028  1.00  0.00     0.292 C 
HETATM   28  O6  UNK     1      -2.211  -2.709  -2.546  1.00  0.00    -0.259 OA
BRANCH  27  29
HETATM   29  O4  UNK     1      -3.309  -1.189  -1.188  1.00  0.00    -0.313 OA
BRANCH  29  30
HETATM   30  C20 UNK     1      -4.312  -2.162  -0.880  1.00  0.00     0.124 C 
HETATM   31  C26 UNK     1      -5.349  -1.538   0.041  1.00  0.00     0.040 C 
HETATM   32  C25 UNK     1      -3.652  -3.378  -0.248  1.00  0.00     0.040 C 
ENDBRANCH  29  30
ENDBRANCH  27  29
ENDBRANCH  10  27
BRANCH   4  33
HETATM   33  C12 UNK     1       4.498   1.617  -0.887  1.00  0.00     0.270 C 
HETATM   34  O5  UNK     1       4.554   1.219   0.269  1.00  0.00    -0.264 OA
BRANCH  33  35
HETATM   35  O2  UNK     1       5.450   2.341  -1.541  1.00  0.00    -0.326 OA
HETATM   36  C21 UNK     1       6.618   2.654  -0.776  1.00  0.00     0.213 C 
ENDBRANCH  33  35
ENDBRANCH   4  33
TORSDOF 6
