REMARK  5 active torsions:
REMARK  status: ('A' for Active; 'I' for Inactive)
REMARK    1  A    between atoms: C5_11  and  O2_2 
REMARK    2  A    between atoms: C7_13  and  O3_3 
REMARK    3  A    between atoms: C9_15  and  O5_5 
REMARK    4  A    between atoms: C15_21  and  O6_6 
REMARK    5  A    between atoms: C3_9  and  C4_10 
ROOT
HETATM    1  O1  UNK     1      -0.698  -0.333  -0.597  1.00  0.00    -0.306 OA
HETATM    2  O4  UNK     1      -1.285   1.009   3.205  1.00  0.00    -0.284 OA
HETATM    3  C1  UNK     1      -1.977  -0.423   1.464  1.00  0.00     0.084 A 
HETATM    4  C2  UNK     1      -1.724  -0.838   0.158  1.00  0.00     0.096 A 
HETATM    5  C3  UNK     1       0.130   0.624  -0.032  1.00  0.00     0.123 A 
HETATM    6  C5  UNK     1      -0.010   1.115   1.213  1.00  0.00     0.152 A 
HETATM    7  C6  UNK     1      -1.109   0.601   2.065  1.00  0.00     0.223 A 
HETATM    8  C7  UNK     1      -3.038  -0.973   2.187  1.00  0.00     0.085 A 
HETATM    9  C8  UNK     1      -2.534  -1.807  -0.435  1.00  0.00     0.075 A 
HETATM   10  C9  UNK     1      -3.595  -2.359   0.283  1.00  0.00     0.071 A 
HETATM   11  C10 UNK     1      -3.847  -1.943   1.591  1.00  0.00     0.074 A 
ENDROOT
BRANCH   5  12
HETATM   12  C4  UNK     1       1.189   1.082  -0.949  1.00  0.00     0.001 A 
HETATM   13  C11 UNK     1       2.428   0.440  -0.961  1.00  0.00     0.017 A 
HETATM   14  C13 UNK     1       3.430   0.874  -1.829  1.00  0.00     0.037 A 
HETATM   15  C15 UNK     1       3.193   1.950  -2.685  1.00  0.00     0.068 A 
HETATM   16  C14 UNK     1       1.955   2.591  -2.673  1.00  0.00     0.037 A 
HETATM   17  C12 UNK     1       0.953   2.158  -1.805  1.00  0.00     0.017 A 
BRANCH  15  18
HETATM   18  O6  UNK     1       4.171   2.373  -3.532  1.00  0.00    -0.356 OA
HETATM   19  C16 UNK     1       3.863   3.478  -4.380  1.00  0.00     0.210 C 
ENDBRANCH  15  18
ENDBRANCH   5  12
BRANCH   6  20
HETATM   20  O2  UNK     1       0.812   2.091   1.733  1.00  0.00    -0.355 OA
HETATM   21  H7  UNK     1       0.505   2.280   2.637  1.00  0.00     0.218 HD
ENDBRANCH   6  20
BRANCH   8  22
HETATM   22  O3  UNK     1      -3.328  -0.602   3.465  1.00  0.00    -0.360 OA
HETATM   23  H8  UNK     1      -2.702   0.070   3.774  1.00  0.00     0.217 HD
ENDBRANCH   8  22
BRANCH  10  24
HETATM   24  O5  UNK     1      -4.387  -3.305  -0.293  1.00  0.00    -0.361 OA
HETATM   25  H9  UNK     1      -5.070  -3.576   0.344  1.00  0.00     0.217 HD
ENDBRANCH  10  24
TORSDOF 5
