REMARK  7 active torsions:
REMARK  status: ('A' for Active; 'I' for Inactive)
REMARK    1  A    between atoms: C11_17  and  O2_2 
REMARK    2  A    between atoms: C14_20  and  O2_2 
REMARK    3  A    between atoms: C12_18  and  O4_4 
REMARK    4  A    between atoms: C16_22  and  O5_5 
REMARK    5  A    between atoms: C23_29  and  O5_5 
REMARK    6  A    between atoms: C14_20  and  C15_21 
REMARK    7  A    between atoms: C14_20  and  C16_22 
ROOT
HETATM    1  O1  UNK     1       1.442   0.195  -0.056  1.00  0.00    -0.271 OA
HETATM    2  O3  UNK     1       3.194   0.796   1.265  1.00  0.00    -0.259 OA
HETATM    3  C1  UNK     1       3.017   2.720  -3.211  1.00  0.00     0.040 C 
HETATM    4  C2  UNK     1       4.453   3.204  -2.999  1.00  0.00     0.005 C 
HETATM    5  C3  UNK     1       2.475   1.869  -2.083  1.00  0.00    -0.033 A 
HETATM    6  C4  UNK     1       4.661   3.676  -1.570  1.00  0.00     0.005 C 
HETATM    7  C5  UNK     1       4.374   2.544  -0.586  1.00  0.00     0.045 C 
HETATM    8  C6  UNK     1       3.112   1.774  -0.900  1.00  0.00     0.025 A 
HETATM    9  C7  UNK     1       1.219   1.131  -2.294  1.00  0.00     0.008 A 
HETATM   10  C8  UNK     1       0.745   0.312  -1.271  1.00  0.00     0.126 A 
HETATM   11  C9  UNK     1       2.608   0.901   0.192  1.00  0.00     0.295 A 
HETATM   12  C10 UNK     1       0.452   1.206  -3.466  1.00  0.00     0.018 A 
HETATM   13  C11 UNK     1      -0.435  -0.425  -1.387  1.00  0.00     0.138 A 
HETATM   14  C12 UNK     1      -1.176  -0.343  -2.560  1.00  0.00     0.104 A 
HETATM   15  C13 UNK     1      -0.734   0.474  -3.598  1.00  0.00     0.040 A 
ENDROOT
BRANCH  13  16
HETATM   16  O2  UNK     1      -0.860  -1.216  -0.363  1.00  0.00    -0.325 OA
BRANCH  16  17
HETATM   17  C14 UNK     1      -1.719  -0.617   0.605  1.00  0.00     0.261 C 
BRANCH  17  18
HETATM   18  C15 UNK     1      -1.056  -0.700   1.958  1.00  0.00    -0.019 A 
HETATM   19  C17 UNK     1      -1.297   0.292   2.896  1.00  0.00     0.010 A 
HETATM   20  C20 UNK     1      -0.684   0.216   4.146  1.00  0.00     0.001 A 
HETATM   21  C22 UNK     1       0.164  -0.851   4.443  1.00  0.00     0.000 A 
HETATM   22  C21 UNK     1       0.398  -1.842   3.490  1.00  0.00     0.001 A 
HETATM   23  C18 UNK     1      -0.216  -1.766   2.240  1.00  0.00     0.010 A 
ENDBRANCH  17  18
BRANCH  17  24
HETATM   24  C16 UNK     1      -3.066  -1.313   0.571  1.00  0.00     0.293 C 
HETATM   25  O6  UNK     1      -3.324  -2.284  -0.129  1.00  0.00    -0.262 OA
BRANCH  24  26
HETATM   26  O5  UNK     1      -3.922  -0.714   1.450  1.00  0.00    -0.320 OA
BRANCH  26  27
HETATM   27  C23 UNK     1      -5.226  -1.296   1.536  1.00  0.00     0.174 C 
HETATM   28  C24 UNK     1      -6.046  -0.522   2.546  1.00  0.00     0.034 C 
ENDBRANCH  26  27
ENDBRANCH  24  26
ENDBRANCH  17  24
ENDBRANCH  16  17
ENDBRANCH  13  16
BRANCH  14  29
HETATM   29  O4  UNK     1      -2.331  -1.048  -2.706  1.00  0.00    -0.353 OA
HETATM   30  C19 UNK     1      -2.226  -2.359  -3.258  1.00  0.00     0.210 C 
ENDBRANCH  14  29
TORSDOF 7
