REMARK  6 active torsions:
REMARK  status: ('A' for Active; 'I' for Inactive)
REMARK    1  A    between atoms: C11_15  and  O2_2 
REMARK    2  A    between atoms: C17_21  and  O2_2 
REMARK    3  A    between atoms: C2_6  and  C4_8 
REMARK    4  A    between atoms: C4_8  and  C6_10 
REMARK    5  A    between atoms: C17_21  and  C19_23 
REMARK    6  A    between atoms: C19_23  and  C20_24 
ROOT
HETATM    1  O1  UNK     1      -1.876  -1.765  -0.866  1.00  0.00    -0.274 OA
HETATM    2  O3  UNK     1      -3.499  -3.121  -0.041  1.00  0.00    -0.259 OA
HETATM    3  C1  UNK     1      -2.881   0.326   0.756  1.00  0.00    -0.036 A 
HETATM    4  C2  UNK     1      -3.488  -0.879   0.764  1.00  0.00     0.029 A 
HETATM    5  C3  UNK     1      -1.720   0.549  -0.131  1.00  0.00     0.005 A 
HETATM    6  C5  UNK     1      -1.257  -0.507  -0.911  1.00  0.00     0.092 A 
HETATM    7  C7  UNK     1      -2.978  -2.010  -0.064  1.00  0.00     0.295 A 
HETATM    8  C8  UNK     1      -1.048   1.775  -0.251  1.00  0.00     0.017 A 
HETATM    9  C9  UNK     1      -3.308   1.484   1.624  1.00  0.00     0.050 C 
HETATM   10  C10 UNK     1      -0.167  -0.381  -1.776  1.00  0.00     0.075 A 
HETATM   11  C11 UNK     1       0.487   0.841  -1.873  1.00  0.00     0.072 A 
HETATM   12  C12 UNK     1       0.046   1.920  -1.113  1.00  0.00     0.038 A 
ENDROOT
BRANCH  11  13
HETATM   13  O2  UNK     1       1.550   0.983  -2.710  1.00  0.00    -0.344 OA
BRANCH  13  14
HETATM   14  C17 UNK     1       2.548   1.935  -2.338  1.00  0.00     0.259 C 
BRANCH  14  15
HETATM   15  C19 UNK     1       3.900   1.505  -2.871  1.00  0.00     0.183 C 
HETATM   16  O4  UNK     1       4.044   0.456  -3.495  1.00  0.00    -0.290 OA
BRANCH  15  17
HETATM   17  C20 UNK     1       5.080   2.384  -2.626  1.00  0.00     0.012 A 
HETATM   18  C21 UNK     1       4.897   3.554  -1.924  1.00  0.00     0.015 A 
HETATM   19  C23 UNK     1       6.000   4.375  -1.694  1.00  0.00     0.001 A 
HETATM   20  C25 UNK     1       7.257   4.005  -2.173  1.00  0.00     0.000 A 
HETATM   21  C24 UNK     1       7.411   2.814  -2.881  1.00  0.00     0.001 A 
HETATM   22  C22 UNK     1       6.307   1.992  -3.111  1.00  0.00     0.015 A 
ENDBRANCH  15  17
ENDBRANCH  14  15
ENDBRANCH  13  14
ENDBRANCH  11  13
BRANCH   4  23
HETATM   23  C4  UNK     1      -4.715  -1.221   1.571  1.00  0.00     0.084 C 
BRANCH  23  24
HETATM   24  C6  UNK     1      -4.389  -2.070   2.764  1.00  0.00    -0.054 A 
HETATM   25  C13 UNK     1      -3.301  -1.743   3.565  1.00  0.00     0.007 A 
HETATM   26  C15 UNK     1      -2.998  -2.532   4.675  1.00  0.00     0.001 A 
HETATM   27  C18 UNK     1      -3.785  -3.643   4.976  1.00  0.00     0.000 A 
HETATM   28  C16 UNK     1      -4.875  -3.965   4.168  1.00  0.00     0.001 A 
HETATM   29  C14 UNK     1      -5.178  -3.176   3.058  1.00  0.00     0.007 A 
ENDBRANCH  23  24
ENDBRANCH   4  23
TORSDOF 6
