REMARK  1 active torsions:
REMARK  status: ('A' for Active; 'I' for Inactive)
REMARK    1  A    between atoms: C3_8  and  N1_5 
ROOT
HETATM    1 Cl1  UNK     1      -0.399   0.455  -4.184  1.00  0.00    -0.084 Cl
HETATM    2  O2  UNK     1       2.344   1.128   0.992  1.00  0.00    -0.275 OA
HETATM    3  O3  UNK     1       2.398   0.877   3.263  1.00  0.00    -0.260 OA
HETATM    4  C3  UNK     1      -0.219  -0.094   1.019  1.00  0.00     0.049 A 
HETATM    5  C6  UNK     1       0.386   0.348  -0.251  1.00  0.00     0.026 A 
HETATM    6  C7  UNK     1       1.650   0.945  -0.220  1.00  0.00     0.092 A 
HETATM    7  C8  UNK     1       0.475   0.098   2.152  1.00  0.00     0.113 A 
HETATM    8  C9  UNK     1      -0.225   0.210  -1.507  1.00  0.00     0.041 A 
HETATM    9  C10 UNK     1       2.298   1.393  -1.374  1.00  0.00     0.046 A 
HETATM   10  C11 UNK     1       1.672   1.245  -2.606  1.00  0.00    -0.038 A 
HETATM   11  C12 UNK     1       1.805   0.724   2.201  1.00  0.00     0.290 A 
HETATM   12  C13 UNK     1       0.413   0.655  -2.672  1.00  0.00     0.041 A 
HETATM   13  C14 UNK     1       2.381   1.732  -3.828  1.00  0.00     0.050 C 
ENDROOT
BRANCH   4  14
HETATM   14  N1  UNK     1      -1.451  -0.679   1.015  1.00  0.00    -0.376 N 
HETATM   15  C1  UNK     1      -1.633  -2.124   0.877  1.00  0.00     0.149 C 
HETATM   16  C4  UNK     1      -2.770  -2.398  -0.100  1.00  0.00     0.187 C 
HETATM   17  O1  UNK     1      -3.959  -1.724   0.319  1.00  0.00    -0.388 OA
HETATM   18  C5  UNK     1      -3.763  -0.308   0.339  1.00  0.00     0.187 C 
HETATM   19  C2  UNK     1      -2.671   0.062   1.337  1.00  0.00     0.149 C 
ENDBRANCH   4  14
TORSDOF 1
