REMARK  5 active torsions:
REMARK  status: ('A' for Active; 'I' for Inactive)
REMARK       I    between atoms: C11_17  and  N1_4 
REMARK    1  A    between atoms: C6_12  and  N1_4 
REMARK    2  A    between atoms: C3_9  and  C7_13 
REMARK    3  A    between atoms: C11_17  and  C4_10 
REMARK    4  A    between atoms: C6_12  and  C9_15 
REMARK    5  A    between atoms: C16_22  and  C7_13 
ROOT
HETATM    1  O1  UNK     1       1.279   0.316  -1.760  1.00  0.00    -0.273 OA
HETATM    2  O3  UNK     1      -0.509  -0.981  -1.179  1.00  0.00    -0.259 OA
HETATM    3  C1  UNK     1       2.315   1.190  -1.374  1.00  0.00     0.096 A 
HETATM    4  C2  UNK     1       2.479   1.546  -0.040  1.00  0.00    -0.000 A 
HETATM    5  C3  UNK     1       3.156   1.677  -2.373  1.00  0.00    -0.020 A 
HETATM    6  C4  UNK     1       0.583   0.171   0.580  1.00  0.00     0.108 A 
HETATM    7  C5  UNK     1       1.564   1.002   0.952  1.00  0.00     0.037 A 
HETATM    8  C8  UNK     1       3.518   2.414   0.303  1.00  0.00     0.014 A 
HETATM    9  C10 UNK     1       4.190   2.542  -2.022  1.00  0.00     0.010 A 
HETATM   10  C12 UNK     1       0.389  -0.221  -0.834  1.00  0.00     0.304 A 
HETATM   11  C13 UNK     1       4.371   2.911  -0.687  1.00  0.00     0.002 A 
ENDROOT
BRANCH   6  12
HETATM   12  C11 UNK     1      -0.288  -0.325   1.652  1.00  0.00     0.258 C 
HETATM   13  O2  UNK     1      -0.503   0.353   2.656  1.00  0.00    -0.267 OA
HETATM   14  N1  UNK     1      -0.798  -1.584   1.391  1.00  0.00    -0.352 N 
HETATM   15  H8  UNK     1      -0.548  -2.070   0.536  1.00  0.00     0.163 HD
BRANCH  14  16
HETATM   16  C6  UNK     1      -1.679  -2.281   2.301  1.00  0.00     0.164 C 
BRANCH  16  17
HETATM   17  C9  UNK     1      -3.123  -1.976   2.030  1.00  0.00    -0.004 A 
HETATM   18  C14 UNK     1      -3.950  -2.651   1.195  1.00  0.00     0.122 A 
HETATM   19  N2  UNK     1      -5.147  -2.002   1.287  1.00  0.00    -0.285 N 
HETATM   20  C17 UNK     1      -6.361  -2.340   0.583  1.00  0.00     0.179 C 
HETATM   21  N3  UNK     1      -5.133  -0.956   2.130  1.00  0.00    -0.185 NA
HETATM   22  C15 UNK     1      -3.877  -0.948   2.584  1.00  0.00     0.149 A 
ENDBRANCH  16  17
ENDBRANCH  14  16
ENDBRANCH   6  12
BRANCH   5  23
HETATM   23  C7  UNK     1       2.972   1.289  -3.802  1.00  0.00     0.067 C 
BRANCH  23  24
HETATM   24  C16 UNK     1       2.054   2.220  -4.551  1.00  0.00    -0.032 C 
HETATM   25  C18 UNK     1       0.892   1.848  -5.100  1.00  0.00     0.007 C 
ENDBRANCH  23  24
ENDBRANCH   5  23
TORSDOF 5
