REMARK  6 active torsions:
REMARK  status: ('A' for Active; 'I' for Inactive)
REMARK    1  A    between atoms: C11_16  and  O2_2 
REMARK    2  A    between atoms: C18_23  and  O2_2 
REMARK    3  A    between atoms: C19_24  and  O4_4 
REMARK    4  A    between atoms: C1_6  and  C4_9 
REMARK    5  A    between atoms: C4_9  and  C6_11 
REMARK    6  A    between atoms: C18_23  and  C19_24 
ROOT
HETATM    1  O1  UNK     1       0.735  -0.020   0.932  1.00  0.00    -0.274 OA
HETATM    2  O3  UNK     1      -0.259  -1.301   2.520  1.00  0.00    -0.259 OA
HETATM    3  C1  UNK     1      -1.138  -1.487   0.314  1.00  0.00     0.029 A 
HETATM    4  C2  UNK     1      -1.089  -1.061  -0.967  1.00  0.00    -0.036 A 
HETATM    5  C3  UNK     1      -0.057  -0.084  -1.368  1.00  0.00     0.005 A 
HETATM    6  C5  UNK     1       0.819   0.405  -0.403  1.00  0.00     0.092 A 
HETATM    7  C7  UNK     1      -0.204  -0.949   1.346  1.00  0.00     0.295 A 
HETATM    8  C8  UNK     1      -2.051  -1.516  -2.037  1.00  0.00     0.050 C 
HETATM    9  C9  UNK     1       0.110   0.387  -2.680  1.00  0.00     0.017 A 
HETATM   10  C10 UNK     1       1.823   1.331  -0.698  1.00  0.00     0.075 A 
HETATM   11  C11 UNK     1       1.966   1.788  -2.003  1.00  0.00     0.072 A 
HETATM   12  C12 UNK     1       1.111   1.314  -2.994  1.00  0.00     0.038 A 
ENDROOT
BRANCH   3  13
HETATM   13  C4  UNK     1      -2.095  -2.525   0.842  1.00  0.00     0.084 C 
BRANCH  13  14
HETATM   14  C6  UNK     1      -3.198  -1.916   1.654  1.00  0.00    -0.054 A 
HETATM   15  C13 UNK     1      -3.850  -0.779   1.188  1.00  0.00     0.007 A 
HETATM   16  C15 UNK     1      -4.877  -0.212   1.944  1.00  0.00     0.001 A 
HETATM   17  C17 UNK     1      -5.245  -0.785   3.161  1.00  0.00     0.000 A 
HETATM   18  C16 UNK     1      -4.586  -1.925   3.623  1.00  0.00     0.001 A 
HETATM   19  C14 UNK     1      -3.560  -2.492   2.867  1.00  0.00     0.007 A 
ENDBRANCH  13  14
ENDBRANCH   3  13
BRANCH  11  20
HETATM   20  O2  UNK     1       2.937   2.688  -2.310  1.00  0.00    -0.341 OA
BRANCH  20  21
HETATM   21  C18 UNK     1       4.130   2.652  -1.527  1.00  0.00     0.285 C 
BRANCH  21  22
HETATM   22  C19 UNK     1       5.296   3.121  -2.353  1.00  0.00     0.164 C 
HETATM   23  O5  UNK     1       5.251   3.460  -3.526  1.00  0.00    -0.648 OA
BRANCH  22  24
HETATM   24  O4  UNK     1       6.429   3.119  -1.606  1.00  0.00    -0.775 OA
HETATM   25  H16 UNK     1       7.207   3.422  -2.122  1.00  0.00     0.167 HD
ENDBRANCH  22  24
ENDBRANCH  21  22
ENDBRANCH  20  21
ENDBRANCH  11  20
TORSDOF 6
