REMARK  9 active torsions:
REMARK  status: ('A' for Active; 'I' for Inactive)
REMARK    1  A    between atoms: C15_25  and  O2_2 
REMARK    2  A    between atoms: C9_19  and  O2_2 
REMARK    3  A    between atoms: C20_30  and  O4_4 
REMARK    4  A    between atoms: C21_31  and  O4_4 
REMARK    5  A    between atoms: C12_22  and  N1_9 
REMARK       I    between atoms: C20_30  and  N1_9 
REMARK    6  A    between atoms: C18_28  and  N2_10 
REMARK    7  A    between atoms: C1_11  and  C6_16 
REMARK    8  A    between atoms: C12_22  and  C15_25 
REMARK    9  A    between atoms: C21_31  and  C22_32 
ROOT
HETATM    1  O1  UNK     1      -2.669   0.565   0.450  1.00  0.00    -0.313 OA
HETATM    2  O3  UNK     1      -2.012  -3.117   2.050  1.00  0.00    -0.286 OA
HETATM    3  C1  UNK     1      -3.396  -1.184   1.954  1.00  0.00     0.054 A 
HETATM    4  C2  UNK     1      -1.296  -1.426   0.582  1.00  0.00     0.049 A 
HETATM    5  C3  UNK     1      -1.575  -0.164   0.071  1.00  0.00     0.092 A 
HETATM    6  C4  UNK     1      -2.214  -2.008   1.570  1.00  0.00     0.198 A 
HETATM    7  C5  UNK     1      -3.548   0.030   1.382  1.00  0.00     0.065 A 
HETATM    8  C7  UNK     1      -0.720   0.412  -0.870  1.00  0.00     0.075 A 
HETATM    9  C8  UNK     1      -0.163  -2.125   0.158  1.00  0.00     0.021 A 
HETATM   10  C9  UNK     1       0.413  -0.281  -1.297  1.00  0.00     0.082 A 
HETATM   11  C10 UNK     1       0.691  -1.548  -0.783  1.00  0.00     0.038 A 
HETATM   12  C11 UNK     1      -4.684   0.973   1.667  1.00  0.00     0.077 C 
ENDROOT
BRANCH  10  13
HETATM   13  O2  UNK     1       1.248   0.279  -2.214  1.00  0.00    -0.277 OA
BRANCH  13  14
HETATM   14  C15 UNK     1       0.927  -0.012  -3.550  1.00  0.00     0.286 C 
HETATM   15  O5  UNK     1      -0.024  -0.704  -3.901  1.00  0.00    -0.263 OA
BRANCH  14  16
HETATM   16  C12 UNK     1       1.886   0.634  -4.542  1.00  0.00     0.183 C 
HETATM   17  C19 UNK     1       2.575  -0.432  -5.379  1.00  0.00     0.043 C 
BRANCH  16  18
HETATM   18  N1  UNK     1       2.862   1.464  -3.885  1.00  0.00    -0.323 N 
HETATM   19  C20 UNK     1       3.390   2.616  -4.436  1.00  0.00     0.361 C 
HETATM   20  O6  UNK     1       3.103   3.077  -5.536  1.00  0.00    -0.238 OA
HETATM   21  H15 UNK     1       3.196   1.184  -2.968  1.00  0.00     0.165 HD
BRANCH  19  22
HETATM   22  O4  UNK     1       4.287   3.175  -3.571  1.00  0.00    -0.299 OA
BRANCH  22  23
HETATM   23  C21 UNK     1       4.915   4.383  -4.016  1.00  0.00     0.219 C 
BRANCH  23  24
HETATM   24  C22 UNK     1       5.864   4.861  -2.957  1.00  0.00    -0.034 A 
HETATM   25  C24 UNK     1       7.192   4.437  -2.967  1.00  0.00     0.009 A 
HETATM   26  C26 UNK     1       8.075   4.882  -1.983  1.00  0.00     0.001 A 
HETATM   27  C27 UNK     1       7.628   5.752  -0.988  1.00  0.00     0.000 A 
HETATM   28  C25 UNK     1       6.299   6.176  -0.977  1.00  0.00     0.001 A 
HETATM   29  C23 UNK     1       5.417   5.731  -1.962  1.00  0.00     0.009 A 
ENDBRANCH  23  24
ENDBRANCH  22  23
ENDBRANCH  19  22
ENDBRANCH  16  18
ENDBRANCH  14  16
ENDBRANCH  13  14
ENDBRANCH  10  13
BRANCH   3  30
HETATM   30  C6  UNK     1      -4.344  -1.707   2.929  1.00  0.00    -0.019 A 
HETATM   31  C13 UNK     1      -5.439  -2.459   2.502  1.00  0.00     0.015 A 
HETATM   32  C16 UNK     1      -6.347  -2.959   3.435  1.00  0.00     0.037 A 
HETATM   33  C18 UNK     1      -6.161  -2.707   4.794  1.00  0.00     0.102 A 
HETATM   34  C17 UNK     1      -5.066  -1.955   5.221  1.00  0.00     0.037 A 
HETATM   35  C14 UNK     1      -4.158  -1.455   4.288  1.00  0.00     0.015 A 
BRANCH  33  36
HETATM   36  N2  UNK     1      -7.086  -3.215   5.744  1.00  0.00    -0.116 N 
HETATM   37  O7  UNK     1      -6.901  -2.977   6.962  1.00  0.00    -0.532 OA
HETATM   38  O8  UNK     1      -8.064  -3.889   5.339  1.00  0.00    -0.532 OA
ENDBRANCH  33  36
ENDBRANCH   3  30
TORSDOF 9
