REMARK  5 active torsions:
REMARK  status: ('A' for Active; 'I' for Inactive)
REMARK    1  A    between atoms: C10_16  and  O4_4 
REMARK    2  A    between atoms: C14_20  and  O5_5 
REMARK    3  A    between atoms: C6_12  and  N1_6 
REMARK    4  A    between atoms: C1_7  and  C4_10 
REMARK    5  A    between atoms: C10_16  and  C6_12 
ROOT
HETATM    1  O1  UNK     1      -1.608   0.256   1.989  1.00  0.00    -0.303 OA
HETATM    2  O2  UNK     1       0.605   2.097   2.568  1.00  0.00    -0.265 OA
HETATM    3  O3  UNK     1      -0.602  -2.115  -1.212  1.00  0.00    -0.287 OA
HETATM    4  N1  UNK     1       1.660   1.077   0.712  1.00  0.00    -0.331 N 
HETATM    5  C1  UNK     1       1.324   0.030  -0.252  1.00  0.00     0.161 A 
HETATM    6  C2  UNK     1      -0.029  -0.351   0.248  1.00  0.00     0.060 A 
HETATM    7  C3  UNK     1      -0.434   0.363   1.301  1.00  0.00     0.156 A 
HETATM    8  C5  UNK     1       0.644   1.307   1.640  1.00  0.00     0.279 A 
HETATM    9  C7  UNK     1      -0.912  -1.403  -0.269  1.00  0.00     0.196 A 
HETATM   10  C8  UNK     1      -2.206  -1.538   0.441  1.00  0.00     0.049 A 
HETATM   11  C9  UNK     1      -2.487  -0.702   1.533  1.00  0.00     0.090 A 
HETATM   12  C13 UNK     1      -3.139  -2.491   0.029  1.00  0.00     0.018 A 
HETATM   13  C15 UNK     1      -3.701  -0.822   2.210  1.00  0.00     0.038 A 
HETATM   14  C18 UNK     1      -4.352  -2.606   0.710  1.00  0.00     0.001 A 
HETATM   15  C19 UNK     1      -4.631  -1.775   1.797  1.00  0.00     0.003 A 
ENDROOT
BRANCH   5  16
HETATM   16  C4  UNK     1       1.299   0.540  -1.652  1.00  0.00    -0.028 A 
HETATM   17  C11 UNK     1       0.449   1.592  -1.996  1.00  0.00     0.046 A 
HETATM   18  C14 UNK     1       0.426   2.070  -3.307  1.00  0.00     0.066 A 
HETATM   19  C17 UNK     1       1.252   1.496  -4.273  1.00  0.00     0.036 A 
HETATM   20  C16 UNK     1       2.102   0.444  -3.929  1.00  0.00     0.003 A 
HETATM   21  C12 UNK     1       2.125  -0.034  -2.619  1.00  0.00     0.010 A 
BRANCH  18  22
HETATM   22  O5  UNK     1      -0.402   3.096  -3.642  1.00  0.00    -0.361 OA
HETATM   23  H15 UNK     1      -0.288   3.297  -4.587  1.00  0.00     0.217 HD
ENDBRANCH  18  22
ENDBRANCH   5  16
BRANCH   4  24
HETATM   24  C6  UNK     1       2.917   1.801   0.703  1.00  0.00     0.153 C 
BRANCH  24  25
HETATM   25  C10 UNK     1       4.075   0.835   0.883  1.00  0.00     0.184 C 
BRANCH  25  26
HETATM   26  O4  UNK     1       3.954   0.181   2.140  1.00  0.00    -0.399 OA
HETATM   27  H14 UNK     1       3.114  -0.308   2.136  1.00  0.00     0.209 HD
ENDBRANCH  25  26
ENDBRANCH  24  25
ENDBRANCH   4  24
TORSDOF 5
