REMARK  12 active torsions:
REMARK  status: ('A' for Active; 'I' for Inactive)
REMARK    1  A    between atoms: C3_10  and  O1_1 
REMARK    2  A    between atoms: C4_11  and  O2_2 
REMARK    3  A    between atoms: C5_12  and  O3_3 
REMARK    4  A    between atoms: C1_8  and  N1_7 
REMARK    5  A    between atoms: C2_9  and  N1_7 
REMARK    6  A    between atoms: C1_8  and  C3_10 
REMARK    7  A    between atoms: C1_8  and  C4_11 
REMARK    8  A    between atoms: C1_8  and  C5_12 
REMARK    9  A    between atoms: C2_9  and  C6_13 
REMARK   10  A    between atoms: C2_9  and  C7_14 
REMARK   11  A    between atoms: C6_13  and  C8_15 
REMARK   12  A    between atoms: C11_18  and  C8_15 
ROOT
HETATM    1  C2  UNK     1      -1.365  -0.968   0.052  1.00  0.00     0.262 C 
ENDROOT
BRANCH   1   2
HETATM    2  N1  UNK     1      -2.735  -0.863  -0.464  1.00  0.00     0.109 N 
HETATM    3  H2  UNK     1      -3.006   0.102  -0.635  1.00  0.00     0.318 HD
BRANCH   2   4
HETATM    4  C1  UNK     1      -3.665  -1.550   0.416  1.00  0.00     0.220 C 
BRANCH   4   5
HETATM    5  C3  UNK     1      -3.239  -3.031   0.470  1.00  0.00     0.210 C 
BRANCH   5   6
HETATM    6  O1  UNK     1      -4.105  -3.765   1.328  1.00  0.00    -0.398 OA
HETATM    7  H13 UNK     1      -3.814  -4.693   1.306  1.00  0.00     0.209 HD
ENDBRANCH   5   6
ENDBRANCH   4   5
BRANCH   4   8
HETATM    8  C4  UNK     1      -3.617  -0.890   1.811  1.00  0.00     0.210 C 
BRANCH   8   9
HETATM    9  O2  UNK     1      -4.494  -1.548   2.718  1.00  0.00    -0.398 OA
HETATM   10  H14 UNK     1      -4.488  -1.052   3.555  1.00  0.00     0.209 HD
ENDBRANCH   8   9
ENDBRANCH   4   8
BRANCH   4  11
HETATM   11  C5  UNK     1      -5.090  -1.386  -0.154  1.00  0.00     0.210 C 
BRANCH  11  12
HETATM   12  O3  UNK     1      -5.179  -1.915  -1.472  1.00  0.00    -0.398 OA
HETATM   13  H15 UNK     1      -4.509  -1.463  -2.011  1.00  0.00     0.209 HD
ENDBRANCH  11  12
ENDBRANCH   4  11
ENDBRANCH   2   4
ENDBRANCH   1   2
BRANCH   1  14
HETATM   14  C6  UNK     1      -0.374  -0.373  -0.967  1.00  0.00     0.124 C 
BRANCH  14  15
HETATM   15  C8  UNK     1       1.083  -0.595  -0.583  1.00  0.00     0.168 C 
HETATM   16  O4  UNK     1       1.456  -1.554   0.095  1.00  0.00    -0.292 OA
BRANCH  15  17
HETATM   17  C11 UNK     1       2.063   0.372  -1.092  1.00  0.00     0.086 A 
HETATM   18  C14 UNK     1       1.773   0.944  -2.267  1.00  0.00     0.035 A 
HETATM   19  C17 UNK     1       2.684   1.915  -2.854  1.00  0.00    -0.001 A 
HETATM   20  C18 UNK     1       3.855   2.236  -2.175  1.00  0.00     0.089 A 
HETATM   21  C19 UNK     1       2.422   2.537  -4.077  1.00  0.00     0.014 A 
HETATM   22  O5  UNK     1       4.154   1.631  -0.938  1.00  0.00    -0.274 OA
HETATM   23  C20 UNK     1       4.769   3.157  -2.682  1.00  0.00     0.038 A 
HETATM   24  C16 UNK     1       3.302   0.698  -0.352  1.00  0.00     0.302 A 
HETATM   25  O6  UNK     1       3.571   0.176   0.724  1.00  0.00    -0.259 OA
HETATM   26  C22 UNK     1       4.500   3.772  -3.903  1.00  0.00     0.003 A 
HETATM   27  C21 UNK     1       3.330   3.463  -4.599  1.00  0.00     0.001 A 
ENDBRANCH  15  17
ENDBRANCH  14  15
ENDBRANCH   1  14
BRANCH   1  28
HETATM   28  C7  UNK     1      -1.264  -0.335   1.430  1.00  0.00    -0.025 A 
HETATM   29  C10 UNK     1      -2.043   0.769   1.718  1.00  0.00     0.009 A 
HETATM   30  C13 UNK     1      -1.950   1.350   2.983  1.00  0.00     0.001 A 
HETATM   31  C15 UNK     1      -1.080   0.816   3.934  1.00  0.00     0.000 A 
HETATM   32  C12 UNK     1      -0.303  -0.299   3.620  1.00  0.00     0.001 A 
HETATM   33  C9  UNK     1      -0.396  -0.880   2.356  1.00  0.00     0.009 A 
ENDBRANCH   1  28
TORSDOF 12
