REMARK  6 active torsions:
REMARK  status: ('A' for Active; 'I' for Inactive)
REMARK    1  A    between atoms: C5_12  and  N1_5 
REMARK    2  A    between atoms: C6_13  and  N2_6 
REMARK    3  A    between atoms: C5_12  and  C7_14 
REMARK    4  A    between atoms: C6_13  and  C8_15 
REMARK    5  A    between atoms: C14_21  and  C20_27 
REMARK    6  A    between atoms: C16_23  and  C21_28 
ROOT
HETATM    1  N1  UNK     1      -0.856  -0.880   1.167  1.00  0.00     0.096 N 
HETATM    2  N2  UNK     1       1.182   1.154   0.898  1.00  0.00     0.097 N 
HETATM    3  C1  UNK     1      -0.009  -0.803  -0.030  1.00  0.00     0.303 C 
HETATM    4  C2  UNK     1      -0.136  -0.362   2.337  1.00  0.00     0.303 C 
HETATM    5  C3  UNK     1       0.463   0.635  -0.273  1.00  0.00     0.303 C 
HETATM    6  C4  UNK     1       0.336   1.076   2.095  1.00  0.00     0.303 C 
ENDROOT
BRANCH   1   7
HETATM    7  C5  UNK     1      -1.304  -2.251   1.398  1.00  0.00     0.312 C 
BRANCH   7   8
HETATM    8  C7  UNK     1      -2.547  -2.306   2.216  1.00  0.00    -0.011 A 
HETATM    9  C10 UNK     1      -2.493  -2.376   3.554  1.00  0.00     0.092 A 
HETATM   10  C15 UNK     1      -3.694  -2.432   4.405  1.00  0.00     0.288 A 
HETATM   11  O2  UNK     1      -4.918  -2.407   3.756  1.00  0.00    -0.275 OA
HETATM   12  O3  UNK     1      -3.605  -2.493   5.626  1.00  0.00    -0.260 OA
HETATM   13  C12 UNK     1      -5.007  -2.334   2.351  1.00  0.00     0.090 A 
HETATM   14  C9  UNK     1      -3.860  -2.282   1.558  1.00  0.00     0.007 A 
HETATM   15  C17 UNK     1      -6.292  -2.316   1.807  1.00  0.00     0.039 A 
HETATM   16  C13 UNK     1      -4.034  -2.211   0.169  1.00  0.00     0.022 A 
HETATM   17  C14 UNK     1      -5.316  -2.193  -0.392  1.00  0.00    -0.058 A 
HETATM   18  C19 UNK     1      -6.443  -2.245   0.426  1.00  0.00     0.010 A 
BRANCH  17  19
HETATM   19  C20 UNK     1      -5.476  -2.117  -1.873  1.00  0.00     0.034 C 
HETATM   20  C22 UNK     1      -5.551  -0.677  -2.375  1.00  0.00     0.010 C 
ENDBRANCH  17  19
ENDBRANCH   7   8
ENDBRANCH   1   7
BRANCH   2  21
HETATM   21  C6  UNK     1       1.628   2.527   0.666  1.00  0.00     0.334 C 
BRANCH  21  22
HETATM   22  C8  UNK     1       2.833   2.510  -0.219  1.00  0.00     0.095 A 
HETATM   23  C11 UNK     1       4.159   2.440   0.129  1.00  0.00     0.078 A 
HETATM   24  O1  UNK     1       4.894   2.454  -1.018  1.00  0.00    -0.294 OA
HETATM   25  C18 UNK     1       4.897   2.360   1.394  1.00  0.00     0.079 C 
HETATM   26  C16 UNK     1       3.953   2.531  -1.998  1.00  0.00     0.182 A 
HETATM   27  N3  UNK     1       2.707   2.568  -1.583  1.00  0.00    -0.224 NA
BRANCH  26  28
HETATM   28  C21 UNK     1       4.468   2.561  -3.339  1.00  0.00     0.039 A 
HETATM   29  C23 UNK     1       3.750   2.039  -4.415  1.00  0.00     0.048 A 
HETATM   30 Cl1  UNK     1       2.190   1.319  -4.213  1.00  0.00    -0.083 Cl
HETATM   31  C25 UNK     1       4.287   2.088  -5.702  1.00  0.00     0.025 A 
HETATM   32  C27 UNK     1       5.542   2.659  -5.912  1.00  0.00     0.002 A 
HETATM   33  C26 UNK     1       6.260   3.181  -4.836  1.00  0.00     0.001 A 
HETATM   34  C24 UNK     1       5.723   3.132  -3.550  1.00  0.00     0.017 A 
ENDBRANCH  26  28
ENDBRANCH  21  22
ENDBRANCH   2  21
TORSDOF 6
