REMARK  2 active torsions:
REMARK  status: ('A' for Active; 'I' for Inactive)
REMARK    1  A    between atoms: C11_16  and  N1_4 
REMARK       I    between atoms: C8_13  and  N1_4 
REMARK    2  A    between atoms: C3_8  and  C8_13 
ROOT
HETATM    1  O1  UNK     1       0.897   0.574  -0.088  1.00  0.00    -0.304 OA
HETATM    2  O2  UNK     1       1.591   1.352  -4.030  1.00  0.00    -0.287 OA
HETATM    3  C1  UNK     1       2.374   1.461  -1.801  1.00  0.00     0.048 A 
HETATM    4  C2  UNK     1       2.074   1.168  -0.470  1.00  0.00     0.090 A 
HETATM    5  C3  UNK     1      -0.016   0.261  -1.073  1.00  0.00     0.147 A 
HETATM    6  C4  UNK     1       1.392   1.123  -2.845  1.00  0.00     0.187 A 
HETATM    7  C5  UNK     1       0.142   0.485  -2.383  1.00  0.00     0.098 A 
HETATM    8  C6  UNK     1       3.588   2.067  -2.133  1.00  0.00     0.018 A 
HETATM    9  C7  UNK     1       2.988   1.479   0.536  1.00  0.00     0.038 A 
HETATM   10  C9  UNK     1       4.501   2.377  -1.124  1.00  0.00     0.001 A 
HETATM   11  C10 UNK     1       4.201   2.084   0.208  1.00  0.00     0.003 A 
ENDROOT
BRANCH   5  12
HETATM   12  C8  UNK     1      -1.265  -0.372  -0.644  1.00  0.00     0.280 C 
HETATM   13  O3  UNK     1      -2.118  -0.674  -1.479  1.00  0.00    -0.265 OA
HETATM   14  N1  UNK     1      -1.317  -0.556   0.732  1.00  0.00    -0.320 N 
HETATM   15  H6  UNK     1      -0.516  -0.245   1.279  1.00  0.00     0.169 HD
BRANCH  14  16
HETATM   16  C11 UNK     1      -2.366  -1.132   1.491  1.00  0.00     0.052 A 
HETATM   17  C13 UNK     1      -3.501  -1.588   0.866  1.00  0.00     0.145 A 
HETATM   18  N2  UNK     1      -4.537  -2.147   1.529  1.00  0.00    -0.271 NA
HETATM   19  C15 UNK     1      -4.409  -2.242   2.872  1.00  0.00     0.116 A 
HETATM   20  C14 UNK     1      -3.299  -1.806   3.578  1.00  0.00     0.021 A 
HETATM   21  C12 UNK     1      -2.254  -1.237   2.860  1.00  0.00     0.032 A 
ENDBRANCH  14  16
ENDBRANCH   5  12
TORSDOF 2
