REMARK  5 active torsions:
REMARK  status: ('A' for Active; 'I' for Inactive)
REMARK    1  A    between atoms: C5_12  and  N1_5 
REMARK    2  A    between atoms: C6_13  and  N2_6 
REMARK    3  A    between atoms: C5_12  and  C7_14 
REMARK    4  A    between atoms: C6_13  and  C8_15 
REMARK    5  A    between atoms: C14_21  and  C20_27 
ROOT
HETATM    1  N1  UNK     1      -1.351  -1.150  -0.560  1.00  0.00     0.096 N 
HETATM    2  N2  UNK     1       0.188   0.510  -2.358  1.00  0.00     0.097 N 
HETATM    3  C1  UNK     1      -1.462  -1.297  -2.016  1.00  0.00     0.303 C 
HETATM    4  C2  UNK     1      -0.014  -0.667  -0.194  1.00  0.00     0.303 C 
HETATM    5  C3  UNK     1      -1.148   0.026  -2.723  1.00  0.00     0.303 C 
HETATM    6  C4  UNK     1       0.300   0.656  -0.901  1.00  0.00     0.303 C 
ENDROOT
BRANCH   1   7
HETATM    7  C5  UNK     1      -1.650  -2.412   0.113  1.00  0.00     0.312 C 
BRANCH   7   8
HETATM    8  C7  UNK     1      -2.083  -2.208   1.524  1.00  0.00    -0.011 A 
HETATM    9  C10 UNK     1      -1.193  -2.186   2.526  1.00  0.00     0.092 A 
HETATM   10  C15 UNK     1      -1.574  -1.988   3.935  1.00  0.00     0.288 A 
HETATM   11  O2  UNK     1      -2.924  -1.819   4.197  1.00  0.00    -0.275 OA
HETATM   12  O3  UNK     1      -0.731  -1.973   4.825  1.00  0.00    -0.260 OA
HETATM   13  C12 UNK     1      -3.883  -1.837   3.164  1.00  0.00     0.090 A 
HETATM   14  C9  UNK     1      -3.507  -2.027   1.833  1.00  0.00     0.006 A 
HETATM   15  C16 UNK     1      -5.214  -1.657   3.544  1.00  0.00     0.045 A 
HETATM   16  C13 UNK     1      -4.521  -2.032   0.866  1.00  0.00     0.015 A 
HETATM   17  C19 UNK     1      -5.860  -1.853   1.232  1.00  0.00     0.007 A 
HETATM   18  C18 UNK     1      -6.206  -1.666   2.569  1.00  0.00    -0.059 A 
HETATM   19  C21 UNK     1      -7.634  -1.475   2.952  1.00  0.00     0.048 C 
ENDBRANCH   7   8
ENDBRANCH   1   7
BRANCH   2  20
HETATM   20  C6  UNK     1       0.485   1.774  -3.030  1.00  0.00     0.334 C 
BRANCH  20  21
HETATM   21  C8  UNK     1       1.967   1.955  -3.108  1.00  0.00     0.095 A 
HETATM   22  C11 UNK     1       2.835   1.556  -4.093  1.00  0.00     0.078 A 
HETATM   23  O1  UNK     1       4.090   1.941  -3.727  1.00  0.00    -0.293 OA
HETATM   24  C17 UNK     1       2.700   0.849  -5.371  1.00  0.00     0.079 C 
HETATM   25  C14 UNK     1       3.896   2.557  -2.529  1.00  0.00     0.187 A 
HETATM   26  N3  UNK     1       2.652   2.596  -2.108  1.00  0.00    -0.224 NA
BRANCH  25  27
HETATM   27  C20 UNK     1       4.967   3.117  -1.784  1.00  0.00     0.058 A 
HETATM   28  S1  UNK     1       6.574   3.041  -2.371  1.00  0.00    -0.098 SA
HETATM   29  C24 UNK     1       7.172   3.868  -0.996  1.00  0.00     0.050 A 
HETATM   30  C23 UNK     1       6.168   4.194  -0.111  1.00  0.00     0.009 A 
HETATM   31  C22 UNK     1       4.891   3.758  -0.567  1.00  0.00     0.024 A 
ENDBRANCH  25  27
ENDBRANCH  20  21
ENDBRANCH   2  20
TORSDOF 5
