REMARK  5 active torsions:
REMARK  status: ('A' for Active; 'I' for Inactive)
REMARK    1  A    between atoms: C13_22  and  O2_3 
REMARK    2  A    between atoms: C14_23  and  O3_4 
REMARK    3  A    between atoms: C16_25  and  O4_5 
REMARK       I    between atoms: C12_21  and  N1_8 
REMARK    4  A    between atoms: C5_14  and  N1_8 
REMARK    5  A    between atoms: C12_21  and  C7_16 
ROOT
HETATM    1  S1  UNK     1       0.061   0.525   2.553  1.00  0.00    -0.082 SA
HETATM    2  N2  UNK     1      -1.962  -1.576  -1.620  1.00  0.00    -0.191 NA
HETATM    3  C1  UNK     1      -1.917  -0.995   1.939  1.00  0.00     0.004 A 
HETATM    4  C2  UNK     1      -3.089  -1.810   2.135  1.00  0.00    -0.021 A 
HETATM    5  C4  UNK     1      -1.249  -0.702   0.715  1.00  0.00     0.090 A 
HETATM    6  C5  UNK     1      -0.175   0.104   0.923  1.00  0.00     0.098 A 
HETATM    7  C9  UNK     1      -4.354  -1.230   2.079  1.00  0.00     0.052 A 
HETATM    8  C10 UNK     1      -1.309  -0.391   3.017  1.00  0.00     0.065 A 
HETATM    9  C11 UNK     1      -2.951  -3.174   2.379  1.00  0.00     0.015 A 
HETATM   10  C14 UNK     1      -5.488  -2.020   2.268  1.00  0.00     0.102 A 
HETATM   11  C16 UNK     1      -5.353  -3.386   2.513  1.00  0.00     0.101 A 
HETATM   12  C18 UNK     1      -4.085  -3.963   2.568  1.00  0.00     0.040 A 
HETATM   13  C21 UNK     1      -1.642  -1.185  -0.574  1.00  0.00     0.103 C 
ENDROOT
BRANCH   6  14
HETATM   14  N1  UNK     1       0.753   0.634   0.022  1.00  0.00    -0.316 N 
HETATM   15  C12 UNK     1       1.826   1.455   0.341  1.00  0.00     0.262 C 
HETATM   16  O5  UNK     1       2.170   1.873   1.445  1.00  0.00    -0.267 OA
HETATM   17  H5  UNK     1       0.606   0.353  -0.944  1.00  0.00     0.170 HD
BRANCH  15  18
HETATM   18  C7  UNK     1       2.599   1.831  -0.848  1.00  0.00     0.108 A 
HETATM   19  C17 UNK     1       1.975   1.956  -2.185  1.00  0.00     0.304 A 
HETATM   20  O1  UNK     1       2.813   2.319  -3.235  1.00  0.00    -0.271 OA
HETATM   21  O6  UNK     1       0.779   1.751  -2.363  1.00  0.00    -0.259 OA
HETATM   22  C6  UNK     1       4.188   2.556  -3.041  1.00  0.00     0.123 A 
HETATM   23  C13 UNK     1       4.947   2.915  -4.153  1.00  0.00     0.102 A 
HETATM   24  C3  UNK     1       4.755   2.433  -1.776  1.00  0.00     0.002 A 
HETATM   25  C19 UNK     1       6.310   3.155  -3.992  1.00  0.00     0.040 A 
HETATM   26  C20 UNK     1       6.896   3.036  -2.731  1.00  0.00     0.004 A 
HETATM   27  C15 UNK     1       6.122   2.675  -1.624  1.00  0.00     0.014 A 
HETATM   28  C8  UNK     1       3.905   2.055  -0.658  1.00  0.00     0.037 A 
BRANCH  23  29
HETATM   29  O2  UNK     1       4.380   3.033  -5.384  1.00  0.00    -0.353 OA
HETATM   30  C22 UNK     1       4.351   1.863  -6.202  1.00  0.00     0.210 C 
ENDBRANCH  23  29
ENDBRANCH  15  18
ENDBRANCH   6  14
BRANCH  10  31
HETATM   31  O3  UNK     1      -6.722  -1.444   2.213  1.00  0.00    -0.353 OA
HETATM   32  C23 UNK     1      -7.359  -1.399   0.937  1.00  0.00     0.210 C 
ENDBRANCH  10  31
BRANCH  11  33
HETATM   33  O4  UNK     1      -6.454  -4.167   2.699  1.00  0.00    -0.353 OA
HETATM   34  C24 UNK     1      -6.928  -4.311   4.036  1.00  0.00     0.210 C 
ENDBRANCH  11  33
TORSDOF 5
