REMARK  5 active torsions:
REMARK  status: ('A' for Active; 'I' for Inactive)
REMARK    1  A    between atoms: C13_20  and  O2_2 
REMARK    2  A    between atoms: C18_25  and  O2_2 
REMARK    3  A    between atoms: C12_19  and  C6_13 
REMARK    4  A    between atoms: C10_17  and  C13_20 
REMARK    5  A    between atoms: C14_21  and  C18_25 
ROOT
HETATM    1  O1  UNK     1      -0.266  -2.471   2.024  1.00  0.00    -0.293 OA
HETATM    2  N1  UNK     1      -3.731  -0.604  -0.606  1.00  0.00    -0.362 N 
HETATM    3  C1  UNK     1      -3.717  -1.771   2.990  1.00  0.00    -0.036 C 
HETATM    4  C2  UNK     1      -4.294  -1.594   1.571  1.00  0.00     0.067 C 
HETATM    5  C3  UNK     1      -2.471  -2.665   2.921  1.00  0.00     0.092 C 
HETATM    6  C4  UNK     1      -3.261  -1.213   0.542  1.00  0.00     0.021 C 
HETATM    7  C5  UNK     1      -1.941  -1.446   0.696  1.00  0.00     0.024 C 
HETATM    8  C6  UNK     1      -0.932  -0.999  -0.357  1.00  0.00     0.104 C 
HETATM    9  C7  UNK     1      -1.458  -2.192   1.897  1.00  0.00     0.159 C 
HETATM   10  C8  UNK     1      -4.775  -2.444   3.884  1.00  0.00     0.015 C 
HETATM   11  C9  UNK     1      -3.366  -0.404   3.614  1.00  0.00     0.015 C 
HETATM   12  C10 UNK     1      -1.600  -0.473  -1.628  1.00  0.00     0.052 C 
HETATM   13  C11 UNK     1      -2.937  -0.276  -1.694  1.00  0.00     0.018 C 
HETATM   14  C15 UNK     1      -3.679   0.282  -2.878  1.00  0.00     0.069 C 
HETATM   15  H12 UNK     1      -4.730  -0.451  -0.687  1.00  0.00     0.165 HD
ENDROOT
BRANCH   8  16
HETATM   16  C12 UNK     1      -0.008   0.044   0.212  1.00  0.00     0.029 A 
HETATM   17  C17 UNK     1       1.443  -0.262   0.293  1.00  0.00     0.194 A 
HETATM   18  O6  UNK     1       1.905  -1.330  -0.089  1.00  0.00    -0.287 OA
HETATM   19  C22 UNK     1       2.303   0.793   0.860  1.00  0.00     0.048 A 
HETATM   20  C23 UNK     1       1.721   1.990   1.279  1.00  0.00     0.089 A 
HETATM   21  C24 UNK     1       3.682   0.601   0.979  1.00  0.00     0.018 A 
HETATM   22  O4  UNK     1       0.374   2.232   1.185  1.00  0.00    -0.321 OA
HETATM   23  C25 UNK     1       2.516   3.002   1.818  1.00  0.00     0.038 A 
HETATM   24  C20 UNK     1      -0.415   1.240   0.656  1.00  0.00     0.154 A 
HETATM   25  C27 UNK     1       3.893   2.812   1.938  1.00  0.00     0.003 A 
HETATM   26  C26 UNK     1       4.474   1.615   1.519  1.00  0.00     0.001 A 
ENDBRANCH   8  16
BRANCH  12  27
HETATM   27  C13 UNK     1      -0.725  -0.247  -2.790  1.00  0.00     0.292 C 
HETATM   28  O5  UNK     1      -0.456  -1.112  -3.603  1.00  0.00    -0.259 OA
BRANCH  27  29
HETATM   29  O2  UNK     1      -0.309   1.042  -2.768  1.00  0.00    -0.315 OA
BRANCH  29  30
HETATM   30  C18 UNK     1       0.557   1.419  -3.844  1.00  0.00     0.211 C 
BRANCH  30  31
HETATM   31  C14 UNK     1       1.994   1.168  -3.433  1.00  0.00     0.145 C 
HETATM   32  O3  UNK     1       2.324   1.977  -2.291  1.00  0.00    -0.384 OA
HETATM   33  C21 UNK     1       3.645   2.507  -2.477  1.00  0.00     0.168 C 
HETATM   34  C19 UNK     1       4.234   1.811  -3.686  1.00  0.00     0.029 C 
HETATM   35  C16 UNK     1       3.004   1.524  -4.510  1.00  0.00     0.036 C 
ENDBRANCH  30  31
ENDBRANCH  29  30
ENDBRANCH  27  29
ENDBRANCH  12  27
TORSDOF 5
