REMARK  2 active torsions:
REMARK  status: ('A' for Active; 'I' for Inactive)
REMARK    1  A    between atoms: C1_5  and  N1_4 
REMARK       I    between atoms: C7_11  and  N1_4 
REMARK    2  A    between atoms: C7_11  and  C8_12 
ROOT
HETATM    1  O2  UNK     1       2.282   0.812   0.393  1.00  0.00    -0.274 OA
HETATM    2  O3  UNK     1       0.892  -0.604   1.526  1.00  0.00    -0.259 OA
HETATM    3  C8  UNK     1       0.338  -0.154  -0.733  1.00  0.00     0.108 A 
HETATM    4  C9  UNK     1       0.642   0.487  -1.868  1.00  0.00     0.037 A 
HETATM    5  C10 UNK     1       1.814   1.347  -1.932  1.00  0.00    -0.001 A 
HETATM    6  C11 UNK     1       1.168  -0.018   0.485  1.00  0.00     0.304 A 
HETATM    7  C12 UNK     1       2.608   1.489  -0.798  1.00  0.00     0.089 A 
HETATM    8  C13 UNK     1       2.169   2.036  -3.094  1.00  0.00     0.014 A 
HETATM    9  C14 UNK     1       3.743   2.297  -0.794  1.00  0.00     0.038 A 
HETATM   10  C15 UNK     1       3.306   2.850  -3.105  1.00  0.00     0.001 A 
HETATM   11  C16 UNK     1       4.091   2.980  -1.957  1.00  0.00     0.003 A 
ENDROOT
BRANCH   3  12
HETATM   12  C7  UNK     1      -0.868  -1.002  -0.768  1.00  0.00     0.258 C 
HETATM   13  O1  UNK     1      -1.223  -1.541  -1.810  1.00  0.00    -0.267 OA
HETATM   14  N1  UNK     1      -1.492  -1.089   0.461  1.00  0.00    -0.352 N 
HETATM   15  H12 UNK     1      -1.148  -0.535   1.238  1.00  0.00     0.163 HD
BRANCH  14  16
HETATM   16  C1  UNK     1      -2.696  -1.862   0.675  1.00  0.00     0.084 C 
HETATM   17  C2  UNK     1      -2.733  -2.440   2.094  1.00  0.00     0.025 C 
HETATM   18  C4  UNK     1      -2.988  -1.370   3.155  1.00  0.00     0.002 C 
HETATM   19  C6  UNK     1      -4.244  -0.559   2.848  1.00  0.00     0.000 C 
HETATM   20  C5  UNK     1      -4.199   0.042   1.446  1.00  0.00     0.002 C 
HETATM   21  C3  UNK     1      -3.946  -1.026   0.382  1.00  0.00     0.025 C 
ENDBRANCH  14  16
ENDBRANCH   3  12
TORSDOF 2
