REMARK  7 active torsions:
REMARK  status: ('A' for Active; 'I' for Inactive)
REMARK    1  A    between atoms: C19_24  and  O3_3 
REMARK    2  A    between atoms: C23_28  and  O3_3 
REMARK       I    between atoms: C13_18  and  N1_5 
REMARK    3  A    between atoms: C4_9  and  N1_5 
REMARK    4  A    between atoms: C1_6  and  C2_7 
REMARK    5  A    between atoms: C1_6  and  C3_8 
REMARK    6  A    between atoms: C4_9  and  C5_10 
REMARK    7  A    between atoms: C13_18  and  C14_19 
ROOT
HETATM    1  O2  UNK     1       2.013  -0.184   2.509  1.00  0.00    -0.267 OA
HETATM    2  N1  UNK     1      -0.110   0.199   1.626  1.00  0.00    -0.348 N 
HETATM    3  C13 UNK     1       1.273   0.175   1.595  1.00  0.00     0.258 C 
HETATM    4  H18 UNK     1      -0.619   0.574   0.831  1.00  0.00     0.163 HD
ENDROOT
BRANCH   3   5
HETATM    5  C14 UNK     1       1.824   0.633   0.314  1.00  0.00     0.108 A 
HETATM    6  C16 UNK     1       3.024   1.224   0.364  1.00  0.00     0.037 A 
HETATM    7  C15 UNK     1       3.652   1.712  -0.854  1.00  0.00     0.002 A 
HETATM    8  C17 UNK     1       2.985   1.555  -2.064  1.00  0.00     0.123 A 
HETATM    9  C20 UNK     1       4.903   2.333  -0.849  1.00  0.00     0.014 A 
HETATM   10  O1  UNK     1       1.722   0.932  -2.110  1.00  0.00    -0.271 OA
HETATM   11  C19 UNK     1       3.532   2.000  -3.266  1.00  0.00     0.103 A 
HETATM   12  C18 UNK     1       1.097   0.455  -0.962  1.00  0.00     0.304 A 
HETATM   13  O4  UNK     1      -0.003  -0.087  -1.012  1.00  0.00    -0.259 OA
HETATM   14  C21 UNK     1       4.780   2.619  -3.252  1.00  0.00     0.040 A 
HETATM   15  C22 UNK     1       5.464   2.785  -2.046  1.00  0.00     0.004 A 
BRANCH  11  16
HETATM   16  O3  UNK     1       2.869   1.840  -4.443  1.00  0.00    -0.349 OA
BRANCH  16  17
HETATM   17  C23 UNK     1       3.100   2.817  -5.457  1.00  0.00     0.171 C 
HETATM   18  C24 UNK     1       1.860   2.937  -6.318  1.00  0.00     0.034 C 
ENDBRANCH  16  17
ENDBRANCH  11  16
ENDBRANCH   3   5
BRANCH   2  19
HETATM   19  C4  UNK     1      -0.880  -0.210   2.778  1.00  0.00     0.114 C 
HETATM   20  C12 UNK     1      -1.049   0.955   3.752  1.00  0.00     0.037 C 
BRANCH  19  21
HETATM   21  C5  UNK     1      -2.203  -0.818   2.368  1.00  0.00    -0.036 A 
HETATM   22  C10 UNK     1      -2.452  -2.149   2.651  1.00  0.00     0.010 A 
HETATM   23  C8  UNK     1      -3.672  -2.709   2.272  1.00  0.00     0.008 A 
HETATM   24  C2  UNK     1      -4.624  -1.929   1.616  1.00  0.00    -0.054 A 
HETATM   25  C7  UNK     1      -4.356  -0.589   1.338  1.00  0.00     0.008 A 
HETATM   26  C9  UNK     1      -3.136  -0.028   1.717  1.00  0.00     0.010 A 
BRANCH  24  27
HETATM   27  C1  UNK     1      -5.928  -2.528   1.211  1.00  0.00     0.014 C 
HETATM   28  C6  UNK     1      -6.745  -2.993   2.436  1.00  0.00     0.015 C 
BRANCH  27  29
HETATM   29  C3  UNK     1      -5.806  -3.720   0.222  1.00  0.00     0.004 C 
HETATM   30  C11 UNK     1      -5.074  -3.346  -1.061  1.00  0.00     0.006 C 
ENDBRANCH  27  29
ENDBRANCH  24  27
ENDBRANCH  19  21
ENDBRANCH   2  19
TORSDOF 7
