REMARK  5 active torsions:
REMARK  status: ('A' for Active; 'I' for Inactive)
REMARK    1  A    between atoms: C20_26  and  O2_3 
REMARK    2  A    between atoms: C23_29  and  O2_3 
REMARK       I    between atoms: C15_21  and  N1_6 
REMARK    3  A    between atoms: C6_12  and  N1_6 
REMARK    4  A    between atoms: C1_7  and  C2_8 
REMARK    5  A    between atoms: C14_20  and  C15_21 
ROOT
HETATM    1  C2  UNK     1       1.688   1.353  -1.255  1.00  0.00    -0.020 A 
HETATM    2  C6  UNK     1      -0.535   0.041  -0.200  1.00  0.00     0.035 A 
HETATM    3  C7  UNK     1       1.835   0.506  -0.157  1.00  0.00     0.014 A 
HETATM    4  C8  UNK     1       0.430   1.544  -1.826  1.00  0.00     0.014 A 
HETATM    5  C10 UNK     1       0.723  -0.150   0.371  1.00  0.00     0.030 A 
HETATM    6  C11 UNK     1      -0.682   0.888  -1.298  1.00  0.00     0.030 A 
ENDROOT
BRANCH   2   7
HETATM    7  N1  UNK     1      -1.648  -0.614   0.329  1.00  0.00    -0.323 N 
HETATM    8  C15 UNK     1      -1.644  -1.480   1.416  1.00  0.00     0.256 C 
HETATM    9  O4  UNK     1      -0.688  -1.826   2.101  1.00  0.00    -0.267 OA
HETATM   10  H7  UNK     1      -2.527  -0.371  -0.117  1.00  0.00     0.169 HD
BRANCH   8  11
HETATM   11  C14 UNK     1      -2.982  -2.013   1.785  1.00  0.00     0.033 A 
HETATM   12  C18 UNK     1      -3.212  -2.387   3.092  1.00  0.00     0.039 A 
HETATM   13  C21 UNK     1      -4.468  -2.887   3.437  1.00  0.00     0.045 A 
HETATM   14 Br1  UNK     1      -4.784  -3.402   5.234  1.00  0.00    -0.048 Br
HETATM   15  C20 UNK     1      -5.464  -2.999   2.468  1.00  0.00     0.086 A 
HETATM   16  C22 UNK     1      -5.205  -2.613   1.153  1.00  0.00     0.039 A 
HETATM   17  C19 UNK     1      -3.950  -2.113   0.807  1.00  0.00     0.020 A 
BRANCH  15  18
HETATM   18  O2  UNK     1      -6.702  -3.483   2.773  1.00  0.00    -0.350 OA
BRANCH  18  19
HETATM   19  C23 UNK     1      -7.810  -2.615   2.546  1.00  0.00     0.171 C 
HETATM   20  C24 UNK     1      -8.907  -2.947   3.535  1.00  0.00     0.034 C 
ENDBRANCH  18  19
ENDBRANCH  15  18
ENDBRANCH   8  11
ENDBRANCH   2   7
BRANCH   1  21
HETATM   21  C1  UNK     1       2.864   2.046  -1.814  1.00  0.00     0.051 A 
HETATM   22  C4  UNK     1       3.572   1.447  -2.784  1.00  0.00     0.032 A 
HETATM   23  C3  UNK     1       4.747   2.084  -3.355  1.00  0.00    -0.001 A 
HETATM   24  C12 UNK     1       5.499   1.488  -4.370  1.00  0.00     0.014 A 
HETATM   25  C5  UNK     1       5.138   3.327  -2.873  1.00  0.00     0.089 A 
HETATM   26  C16 UNK     1       6.624   2.141  -4.884  1.00  0.00     0.001 A 
HETATM   27  C17 UNK     1       7.001   3.390  -4.387  1.00  0.00     0.003 A 
HETATM   28  C13 UNK     1       6.256   3.991  -3.374  1.00  0.00     0.038 A 
HETATM   29  O1  UNK     1       4.404   3.959  -1.852  1.00  0.00    -0.274 OA
HETATM   30  C9  UNK     1       3.266   3.382  -1.294  1.00  0.00     0.299 A 
HETATM   31  O3  UNK     1       2.629   3.960  -0.420  1.00  0.00    -0.259 OA
ENDBRANCH   1  21
TORSDOF 5
