REMARK  5 active torsions:
REMARK  status: ('A' for Active; 'I' for Inactive)
REMARK    1  A    between atoms: C13_21  and  O2_3 
REMARK    2  A    between atoms: C21_29  and  O5_6 
REMARK       I    between atoms: C15_23  and  N1_8 
REMARK    3  A    between atoms: C6_14  and  N1_8 
REMARK    4  A    between atoms: C13_21  and  C3_11 
REMARK    5  A    between atoms: C14_22  and  C15_23 
ROOT
HETATM    1  S1  UNK     1      -0.349   0.132   2.713  1.00  0.00    -0.075 SA
HETATM    2  C1  UNK     1      -2.430  -1.166   1.948  1.00  0.00     0.006 A 
HETATM    3  C2  UNK     1      -3.659  -1.914   2.039  1.00  0.00    -0.017 A 
HETATM    4  C3  UNK     1      -1.741  -0.788   0.759  1.00  0.00     0.085 A 
HETATM    5  C4  UNK     1      -1.782  -0.730   3.083  1.00  0.00    -0.007 A 
HETATM    6  C5  UNK     1      -3.648  -3.305   2.120  1.00  0.00    -0.051 A 
HETATM    7  C6  UNK     1      -0.613  -0.088   1.049  1.00  0.00     0.094 A 
HETATM    8  C7  UNK     1      -4.868  -1.220   2.043  1.00  0.00     0.019 A 
HETATM    9  C8  UNK     1      -6.071  -1.921   2.130  1.00  0.00    -0.061 A 
HETATM   10  C9  UNK     1      -4.851  -4.005   2.206  1.00  0.00     0.008 A 
HETATM   11  C10 UNK     1      -2.155  -0.906   4.506  1.00  0.00     0.057 C 
HETATM   12  C11 UNK     1      -6.062  -3.314   2.212  1.00  0.00     0.007 A 
HETATM   13  C12 UNK     1      -2.370  -4.081   2.117  1.00  0.00     0.049 C 
HETATM   14  C16 UNK     1      -7.366  -1.182   2.135  1.00  0.00     0.048 C 
ENDROOT
BRANCH   7  15
HETATM   15  N1  UNK     1       0.351   0.469   0.203  1.00  0.00    -0.316 N 
HETATM   16  C15 UNK     1       1.479   1.173   0.600  1.00  0.00     0.262 C 
HETATM   17  O4  UNK     1       1.853   1.443   1.740  1.00  0.00    -0.267 OA
HETATM   18  H7  UNK     1       0.188   0.308  -0.786  1.00  0.00     0.169 HD
BRANCH  16  19
HETATM   19  C14 UNK     1       2.277   1.619  -0.548  1.00  0.00     0.108 A 
HETATM   20  C18 UNK     1       3.596   1.728  -0.345  1.00  0.00     0.037 A 
HETATM   21  C17 UNK     1       4.470   2.163  -1.423  1.00  0.00     0.002 A 
HETATM   22  C19 UNK     1       3.913   2.463  -2.662  1.00  0.00     0.123 A 
HETATM   23  C22 UNK     1       5.851   2.289  -1.257  1.00  0.00     0.014 A 
HETATM   24  O1  UNK     1       2.525   2.347  -2.869  1.00  0.00    -0.271 OA
HETATM   25  C21 UNK     1       4.695   2.885  -3.735  1.00  0.00     0.102 A 
HETATM   26  C20 UNK     1       1.663   1.932  -1.858  1.00  0.00     0.304 A 
HETATM   27  O6  UNK     1       0.456   1.833  -2.048  1.00  0.00    -0.259 OA
HETATM   28  C23 UNK     1       6.072   3.009  -3.561  1.00  0.00     0.040 A 
HETATM   29  C24 UNK     1       6.649   2.712  -2.324  1.00  0.00     0.004 A 
BRANCH  25  30
HETATM   30  O5  UNK     1       4.137   3.175  -4.941  1.00  0.00    -0.353 OA
HETATM   31  C26 UNK     1       4.025   2.107  -5.880  1.00  0.00     0.210 C 
ENDBRANCH  25  30
ENDBRANCH  16  19
ENDBRANCH   7  15
BRANCH   4  32
HETATM   32  C13 UNK     1      -2.159  -1.092  -0.587  1.00  0.00     0.296 C 
HETATM   33  O3  UNK     1      -3.185  -1.729  -0.865  1.00  0.00    -0.259 OA
BRANCH  32  34
HETATM   34  O2  UNK     1      -1.309  -0.608  -1.558  1.00  0.00    -0.322 OA
HETATM   35  C25 UNK     1      -1.665  -0.875  -2.919  1.00  0.00     0.213 C 
ENDBRANCH  32  34
ENDBRANCH   4  32
TORSDOF 5
