REMARK  2 active torsions:
REMARK  status: ('A' for Active; 'I' for Inactive)
REMARK    1  A    between atoms: C8_14  and  N1_5 
REMARK    2  A    between atoms: C1_7  and  C4_10 
ROOT
HETATM    1  O1  UNK     1       1.324   1.455   1.022  1.00  0.00    -0.291 OA
HETATM    2  O2  UNK     1       1.332  -0.299  -2.776  1.00  0.00    -0.274 OA
HETATM    3  O3  UNK     1       0.103  -2.045  -1.975  1.00  0.00    -0.259 OA
HETATM    4  N2  UNK     1      -0.669  -1.591   4.176  1.00  0.00    -0.191 NA
HETATM    5  C1  UNK     1      -0.153  -0.991   0.690  1.00  0.00     0.108 C 
HETATM    6  C2  UNK     1       0.622  -0.314  -0.430  1.00  0.00     0.066 A 
HETATM    7  C3  UNK     1       1.280   0.835  -0.213  1.00  0.00     0.104 A 
HETATM    8  C5  UNK     1       0.153  -0.359   2.050  1.00  0.00     0.086 C 
HETATM    9  C6  UNK     1       1.997   1.510  -1.291  1.00  0.00     0.033 A 
HETATM   10  C7  UNK     1       0.651  -0.968  -1.764  1.00  0.00     0.298 A 
HETATM   11  C8  UNK     1       0.841   0.801   2.154  1.00  0.00     0.159 C 
HETATM   12  C9  UNK     1       1.998   0.921  -2.552  1.00  0.00     0.092 A 
HETATM   13  C12 UNK     1       2.682   2.720  -1.128  1.00  0.00     0.017 A 
HETATM   14  C13 UNK     1       2.653   1.498  -3.640  1.00  0.00     0.038 A 
HETATM   15  C16 UNK     1       3.344   3.311  -2.209  1.00  0.00     0.001 A 
HETATM   16  C17 UNK     1      -0.301  -1.040   3.224  1.00  0.00     0.100 C 
HETATM   17  C18 UNK     1       3.329   2.701  -3.463  1.00  0.00     0.003 A 
ENDROOT
BRANCH   5  18
HETATM   18  C4  UNK     1      -1.627  -0.946   0.416  1.00  0.00    -0.044 A 
HETATM   19  C10 UNK     1      -2.435  -2.002   0.819  1.00  0.00     0.010 A 
HETATM   20  C14 UNK     1      -3.806  -1.961   0.563  1.00  0.00     0.024 A 
HETATM   21  C19 UNK     1      -4.359  -0.862  -0.095  1.00  0.00     0.034 A 
HETATM   22  C15 UNK     1      -3.542   0.194  -0.498  1.00  0.00     0.024 A 
HETATM   23 Cl1  UNK     1      -6.050  -0.811  -0.412  1.00  0.00    -0.084 Cl
HETATM   24  C11 UNK     1      -2.171   0.152  -0.241  1.00  0.00     0.010 A 
ENDBRANCH   5  18
BRANCH  11  25
HETATM   25  N1  UNK     1       1.136   1.440   3.326  1.00  0.00    -0.379 N 
HETATM   26  H10 UNK     1       1.660   2.305   3.292  1.00  0.00     0.158 HD
HETATM   27  H11 UNK     1       0.837   1.061   4.216  1.00  0.00     0.158 HD
ENDBRANCH  11  25
TORSDOF 2
