REMARK  5 active torsions:
REMARK  status: ('A' for Active; 'I' for Inactive)
REMARK    1  A    between atoms: C1_6  and  O1_1 
REMARK    2  A    between atoms: C5_10  and  O1_1 
REMARK    3  A    between atoms: C18_23  and  O4_4 
REMARK    4  A    between atoms: C2_7  and  C7_12 
REMARK    5  A    between atoms: C13_18  and  C5_10 
ROOT
HETATM    1  O2  UNK     1      -0.277   1.303   1.637  1.00  0.00    -0.306 OA
HETATM    2  O3  UNK     1      -2.326  -1.982   0.366  1.00  0.00    -0.284 OA
HETATM    3  C1  UNK     1      -0.669  -0.351  -0.083  1.00  0.00     0.155 A 
HETATM    4  C2  UNK     1      -0.036   0.735   0.396  1.00  0.00     0.123 A 
HETATM    5  C3  UNK     1      -1.978  -0.377   2.059  1.00  0.00     0.051 A 
HETATM    6  C4  UNK     1      -1.241   0.743   2.436  1.00  0.00     0.090 A 
HETATM    7  C6  UNK     1      -1.715  -0.993   0.749  1.00  0.00     0.221 A 
HETATM    8  C8  UNK     1      -2.948  -0.904   2.914  1.00  0.00     0.018 A 
HETATM    9  C9  UNK     1      -1.469   1.344   3.674  1.00  0.00     0.038 A 
HETATM   10  C14 UNK     1      -3.175  -0.301   4.152  1.00  0.00     0.001 A 
HETATM   11  C15 UNK     1      -2.437   0.821   4.531  1.00  0.00     0.003 A 
ENDROOT
BRANCH   4  12
HETATM   12  C7  UNK     1       1.020   1.432  -0.359  1.00  0.00     0.001 A 
HETATM   13  C10 UNK     1       0.688   2.473  -1.227  1.00  0.00     0.017 A 
HETATM   14  C16 UNK     1       1.688   3.133  -1.941  1.00  0.00     0.037 A 
HETATM   15  C18 UNK     1       3.021   2.752  -1.789  1.00  0.00     0.068 A 
HETATM   16  C17 UNK     1       3.354   1.711  -0.922  1.00  0.00     0.037 A 
HETATM   17  C11 UNK     1       2.354   1.051  -0.207  1.00  0.00     0.017 A 
BRANCH  15  18
HETATM   18  O4  UNK     1       3.996   3.395  -2.486  1.00  0.00    -0.356 OA
HETATM   19  C20 UNK     1       5.338   2.955  -2.283  1.00  0.00     0.210 C 
ENDBRANCH  15  18
ENDBRANCH   4  12
BRANCH   3  20
HETATM   20  O1  UNK     1      -0.382  -0.910  -1.309  1.00  0.00    -0.332 OA
BRANCH  20  21
HETATM   21  C5  UNK     1      -1.522  -0.902  -2.146  1.00  0.00     0.194 C 
HETATM   22  C12 UNK     1      -1.194  -0.089  -3.386  1.00  0.00     0.048 C 
BRANCH  21  23
HETATM   23  C13 UNK     1      -1.891  -2.336  -2.501  1.00  0.00     0.151 C 
HETATM   24  O5  UNK     1      -1.229  -3.298  -2.111  1.00  0.00    -0.296 OA
HETATM   25  C19 UNK     1      -3.117  -2.539  -3.355  1.00  0.00     0.093 C 
ENDBRANCH  21  23
ENDBRANCH  20  21
ENDBRANCH   3  20
TORSDOF 5
