REMARK  2 active torsions:
REMARK  status: ('A' for Active; 'I' for Inactive)
REMARK       I    between atoms: C6_11  and  N1_5 
REMARK    1  A    between atoms: C9_14  and  N1_5 
REMARK    2  A    between atoms: C2_7  and  C6_11 
ROOT
HETATM    1  O1  UNK     1       2.776   0.944   0.138  1.00  0.00    -0.274 OA
HETATM    2  O3  UNK     1       1.334  -0.327   1.372  1.00  0.00    -0.259 OA
HETATM    3  C1  UNK     1       2.157   1.618  -2.114  1.00  0.00    -0.001 A 
HETATM    4  C2  UNK     1       0.624   0.271  -0.808  1.00  0.00     0.108 A 
HETATM    5  C3  UNK     1       3.069   1.619  -1.064  1.00  0.00     0.089 A 
HETATM    6  C4  UNK     1       0.896   0.910  -1.952  1.00  0.00     0.037 A 
HETATM    7  C5  UNK     1       2.482   2.299  -3.290  1.00  0.00     0.014 A 
HETATM    8  C7  UNK     1       1.579   0.258   0.323  1.00  0.00     0.304 A 
HETATM    9  C8  UNK     1       4.293   2.277  -1.155  1.00  0.00     0.038 A 
HETATM   10  C10 UNK     1       3.707   2.964  -3.397  1.00  0.00     0.001 A 
HETATM   11  C11 UNK     1       4.610   2.953  -2.332  1.00  0.00     0.003 A 
ENDROOT
BRANCH   4  12
HETATM   12  C6  UNK     1      -0.672  -0.414  -0.740  1.00  0.00     0.262 C 
HETATM   13  O2  UNK     1      -1.175  -0.862  -1.769  1.00  0.00    -0.267 OA
HETATM   14  N1  UNK     1      -1.167  -0.457   0.556  1.00  0.00    -0.323 N 
HETATM   15  H4  UNK     1      -0.634  -0.017   1.301  1.00  0.00     0.169 HD
BRANCH  14  16
HETATM   16  C9  UNK     1      -2.374  -1.038   0.958  1.00  0.00     0.036 A 
HETATM   17  C12 UNK     1      -2.747  -1.007   2.300  1.00  0.00     0.048 A 
HETATM   18  C14 UNK     1      -3.951  -1.587   2.700  1.00  0.00     0.013 A 
HETATM   19 Br1  UNK     1      -4.460  -1.547   4.520  1.00  0.00    -0.051 Br
HETATM   20  C16 UNK     1      -4.780  -2.195   1.757  1.00  0.00     0.019 A 
HETATM   21  C15 UNK     1      -4.404  -2.224   0.414  1.00  0.00     0.004 A 
HETATM   22  C13 UNK     1      -3.200  -1.645   0.014  1.00  0.00     0.029 A 
ENDBRANCH  14  16
ENDBRANCH   4  12
TORSDOF 2
