REMARK  4 active torsions:
REMARK  status: ('A' for Active; 'I' for Inactive)
REMARK    1  A    between atoms: C5_10  and  O2_2 
REMARK    2  A    between atoms: C7_12  and  O3_3 
REMARK    3  A    between atoms: C9_14  and  O5_5 
REMARK    4  A    between atoms: C3_8  and  C6_11 
ROOT
HETATM    1  O1  UNK     1       0.456  -0.729   1.763  1.00  0.00    -0.306 OA
HETATM    2  O4  UNK     1       0.164  -2.461  -1.914  1.00  0.00    -0.284 OA
HETATM    3  C1  UNK     1       0.627  -2.719   0.383  1.00  0.00     0.084 A 
HETATM    4  C2  UNK     1       0.712  -2.068   1.612  1.00  0.00     0.096 A 
HETATM    5  C3  UNK     1       0.086   0.003   0.646  1.00  0.00     0.123 A 
HETATM    6  C4  UNK     1       0.248  -1.944  -0.808  1.00  0.00     0.223 A 
HETATM    7  C5  UNK     1      -0.023  -0.502  -0.596  1.00  0.00     0.152 A 
HETATM    8  C7  UNK     1       0.900  -4.086   0.289  1.00  0.00     0.085 A 
HETATM    9  C8  UNK     1       1.071  -2.780   2.756  1.00  0.00     0.075 A 
HETATM   10  C9  UNK     1       1.344  -4.145   2.667  1.00  0.00     0.071 A 
HETATM   11  C10 UNK     1       1.259  -4.797   1.436  1.00  0.00     0.074 A 
ENDROOT
BRANCH   5  12
HETATM   12  C6  UNK     1      -0.158   1.425   0.946  1.00  0.00     0.001 A 
HETATM   13  C11 UNK     1      -1.440   1.856   1.290  1.00  0.00     0.014 A 
HETATM   14  C13 UNK     1      -1.671   3.202   1.574  1.00  0.00     0.001 A 
HETATM   15  C15 UNK     1      -0.620   4.118   1.515  1.00  0.00     0.000 A 
HETATM   16  C14 UNK     1       0.661   3.688   1.171  1.00  0.00     0.001 A 
HETATM   17  C12 UNK     1       0.892   2.342   0.887  1.00  0.00     0.014 A 
ENDBRANCH   5  12
BRANCH   7  18
HETATM   18  O2  UNK     1      -0.361   0.262  -1.692  1.00  0.00    -0.355 OA
HETATM   19  H8  UNK     1      -0.509   1.182  -1.420  1.00  0.00     0.218 HD
ENDBRANCH   7  18
BRANCH   8  20
HETATM   20  O3  UNK     1       0.833  -4.770  -0.887  1.00  0.00    -0.360 OA
HETATM   21  H9  UNK     1       0.572  -4.179  -1.609  1.00  0.00     0.217 HD
ENDBRANCH   8  20
BRANCH  10  22
HETATM   22  O5  UNK     1       1.695  -4.842   3.782  1.00  0.00    -0.361 OA
HETATM   23  H10 UNK     1       1.848  -5.771   3.538  1.00  0.00     0.217 HD
ENDBRANCH  10  22
TORSDOF 4
