REMARK  5 active torsions:
REMARK  status: ('A' for Active; 'I' for Inactive)
REMARK    1  A    between atoms: C1_11  and  S1_1 
REMARK    2  A    between atoms: N1_8  and  S1_1 
REMARK    3  A    between atoms: C2_12  and  N1_8 
REMARK       I    between atoms: C14_24  and  N2_9 
REMARK    4  A    between atoms: C4_14  and  N2_9 
REMARK    5  A    between atoms: C10_20  and  C14_24 
ROOT
HETATM    1  C1  UNK     1      -1.288  -1.156   1.695  1.00  0.00     0.080 A 
HETATM    2  C4  UNK     1       0.566  -0.034  -0.028  1.00  0.00     0.035 A 
HETATM    3  C5  UNK     1      -0.874   0.163   1.879  1.00  0.00     0.027 A 
HETATM    4  C6  UNK     1      -0.768  -1.910   0.643  1.00  0.00     0.027 A 
HETATM    5  C7  UNK     1       0.060   0.729   1.010  1.00  0.00     0.031 A 
HETATM    6  C8  UNK     1       0.166  -1.345  -0.225  1.00  0.00     0.031 A 
ENDROOT
BRANCH   2   7
HETATM    7  N2  UNK     1       1.515   0.540  -0.909  1.00  0.00    -0.323 N 
HETATM    8  C14 UNK     1       2.034   1.827  -0.873  1.00  0.00     0.262 C 
HETATM    9  O5  UNK     1       1.777   2.726  -0.074  1.00  0.00    -0.267 OA
HETATM   10  H6  UNK     1       1.849  -0.097  -1.629  1.00  0.00     0.169 HD
BRANCH   8  11
HETATM   11  C10 UNK     1       3.000   2.064  -1.952  1.00  0.00     0.108 A 
HETATM   12  C12 UNK     1       3.975   2.943  -1.690  1.00  0.00     0.037 A 
HETATM   13  C11 UNK     1       4.980   3.245  -2.697  1.00  0.00    -0.001 A 
HETATM   14  C13 UNK     1       4.909   2.608  -3.931  1.00  0.00     0.089 A 
HETATM   15  C18 UNK     1       6.015   4.155  -2.467  1.00  0.00     0.014 A 
HETATM   16  O2  UNK     1       3.881   1.683  -4.201  1.00  0.00    -0.274 OA
HETATM   17  C19 UNK     1       5.840   2.853  -4.939  1.00  0.00     0.038 A 
HETATM   18  C17 UNK     1       2.905   1.374  -3.258  1.00  0.00     0.304 A 
HETATM   19  O6  UNK     1       2.013   0.569  -3.502  1.00  0.00    -0.259 OA
HETATM   20  C21 UNK     1       6.868   3.762  -4.701  1.00  0.00     0.003 A 
HETATM   21  C20 UNK     1       6.956   4.412  -3.468  1.00  0.00     0.001 A 
ENDBRANCH   8  11
ENDBRANCH   2   7
BRANCH   1  22
HETATM   22  S1  UNK     1      -2.457  -1.864   2.782  1.00  0.00     0.264 S 
HETATM   23  O3  UNK     1      -2.391  -1.133   4.042  1.00  0.00    -0.200 OA
HETATM   24  O4  UNK     1      -2.265  -3.309   2.797  1.00  0.00    -0.200 OA
BRANCH  22  25
HETATM   25  N1  UNK     1      -3.959  -1.490   2.024  1.00  0.00    -0.258 N 
HETATM   26  H1  UNK     1      -4.010  -0.877   1.202  1.00  0.00     0.181 HD
BRANCH  25  27
HETATM   27  C2  UNK     1      -5.102  -2.298   2.352  1.00  0.00     0.190 A 
HETATM   28  O1  UNK     1      -5.062  -3.435   3.107  1.00  0.00    -0.194 OA
HETATM   29  N3  UNK     1      -6.341  -3.966   3.225  1.00  0.00    -0.131 NA
HETATM   30  C9  UNK     1      -7.126  -3.133   2.535  1.00  0.00     0.068 A 
HETATM   31  C16 UNK     1      -8.571  -3.399   2.449  1.00  0.00     0.073 C 
HETATM   32  C3  UNK     1      -6.404  -2.069   1.966  1.00  0.00     0.018 A 
HETATM   33  C15 UNK     1      -6.920  -0.961   1.144  1.00  0.00     0.055 C 
ENDBRANCH  25  27
ENDBRANCH  22  25
ENDBRANCH   1  22
TORSDOF 5
