REMARK  1 active torsions:
REMARK  status: ('A' for Active; 'I' for Inactive)
REMARK    1  A    between atoms: C1_5  and  C3_7 
ROOT
HETATM    1  O1  UNK     1       1.979   0.973   1.570  1.00  0.00    -0.274 OA
HETATM    2  O2  UNK     1       0.402   0.142   2.993  1.00  0.00    -0.259 OA
HETATM    3  C2  UNK     1       1.565   1.072  -0.839  1.00  0.00     0.010 A 
HETATM    4  C3  UNK     1      -0.156   0.202   0.681  1.00  0.00     0.086 A 
HETATM    5  C5  UNK     1       2.038   1.408  -2.141  1.00  0.00    -0.013 A 
HETATM    6  C6  UNK     1       0.242   0.507  -0.563  1.00  0.00     0.036 A 
HETATM    7  C7  UNK     1       2.396   1.289   0.261  1.00  0.00     0.090 A 
HETATM    8  C9  UNK     1       3.346   1.954  -2.269  1.00  0.00    -0.025 A 
HETATM    9  C10 UNK     1       0.734   0.424   1.846  1.00  0.00     0.302 A 
HETATM   10  C11 UNK     1       3.673   1.823   0.134  1.00  0.00     0.039 A 
HETATM   11  C13 UNK     1       4.142   2.154  -1.131  1.00  0.00     0.015 A 
HETATM   12  C15 UNK     1       1.294   1.235  -3.334  1.00  0.00     0.013 A 
HETATM   13  C17 UNK     1       3.850   2.298  -3.534  1.00  0.00     0.012 A 
HETATM   14  C19 UNK     1       1.811   1.582  -4.585  1.00  0.00     0.001 A 
HETATM   15  C21 UNK     1       3.088   2.114  -4.685  1.00  0.00     0.001 A 
ENDROOT
BRANCH   4  16
HETATM   16  C1  UNK     1      -1.464  -0.341   0.885  1.00  0.00     0.147 A 
HETATM   17  N1  UNK     1      -1.627  -1.699   0.850  1.00  0.00    -0.333 N 
HETATM   18  C12 UNK     1      -0.602  -2.695   0.622  1.00  0.00     0.158 C 
HETATM   19  C4  UNK     1      -2.953  -1.970   1.072  1.00  0.00     0.064 A 
HETATM   20  C14 UNK     1      -3.668  -3.166   1.142  1.00  0.00     0.032 A 
HETATM   21  C8  UNK     1      -3.539  -0.718   1.235  1.00  0.00     0.086 A 
HETATM   22  C18 UNK     1      -5.041  -3.065   1.389  1.00  0.00     0.002 A 
HETATM   23  C20 UNK     1      -5.658  -1.823   1.557  1.00  0.00     0.002 A 
HETATM   24  C16 UNK     1      -4.920  -0.635   1.483  1.00  0.00     0.034 A 
HETATM   25  N2  UNK     1      -2.600   0.281   1.116  1.00  0.00    -0.228 NA
ENDBRANCH   4  16
TORSDOF 1
