REMARK  6 active torsions:
REMARK  status: ('A' for Active; 'I' for Inactive)
REMARK    1  A    between atoms: C10_18  and  N1_6 
REMARK    2  A    between atoms: C19_27  and  N1_6 
REMARK       I    between atoms: C12_20  and  N2_7 
REMARK    3  A    between atoms: N2_7  and  N3_8 
REMARK    4  A    between atoms: C19_27  and  N3_8 
REMARK    5  A    between atoms: C1_9  and  C2_10 
REMARK    6  A    between atoms: C12_20  and  C3_11 
ROOT
HETATM    1  S2  UNK     1      -2.406  -0.152  -2.909  1.00  0.00    -0.039 SA
HETATM    2  C19 UNK     1      -1.081   0.244  -1.961  1.00  0.00     0.191 C 
ENDROOT
BRANCH   2   3
HETATM    3  N1  UNK     1      -1.009   0.387  -0.564  1.00  0.00    -0.332 N 
HETATM    4  H17 UNK     1      -0.249   0.995  -0.266  1.00  0.00     0.168 HD
BRANCH   3   5
HETATM    5  C10 UNK     1      -1.700  -0.181   0.507  1.00  0.00     0.037 A 
HETATM    6  C11 UNK     1      -2.677  -1.143   0.276  1.00  0.00     0.067 A 
HETATM    7  C6  UNK     1      -3.355  -1.699   1.362  1.00  0.00     0.092 A 
HETATM    8  C5  UNK     1      -3.089  -1.324   2.679  1.00  0.00     0.004 A 
HETATM    9  O1  UNK     1      -4.333  -2.670   1.065  1.00  0.00    -0.275 OA
HETATM   10  C13 UNK     1      -2.101  -0.352   2.891  1.00  0.00     0.017 A 
HETATM   11  C7  UNK     1      -3.851  -1.961   3.761  1.00  0.00    -0.043 A 
HETATM   12  C15 UNK     1      -1.412   0.214   1.812  1.00  0.00     0.030 A 
HETATM   13  C16 UNK     1      -4.775  -2.881   3.449  1.00  0.00     0.090 A 
HETATM   14  C17 UNK     1      -3.588  -1.579   5.188  1.00  0.00     0.049 C 
HETATM   15  C18 UNK     1      -5.068  -3.288   2.064  1.00  0.00     0.288 A 
HETATM   16  O3  UNK     1      -5.921  -4.133   1.817  1.00  0.00    -0.260 OA
ENDBRANCH   3   5
ENDBRANCH   2   3
BRANCH   2  17
HETATM   17  N3  UNK     1       0.116   0.493  -2.623  1.00  0.00    -0.273 N 
HETATM   18  H19 UNK     1       0.191   0.419  -3.632  1.00  0.00     0.189 HD
BRANCH  17  19
HETATM   19  N2  UNK     1       1.264   0.829  -1.940  1.00  0.00    -0.264 N 
HETATM   20  C12 UNK     1       2.206   1.627  -2.569  1.00  0.00     0.271 C 
HETATM   21  O2  UNK     1       2.072   2.056  -3.715  1.00  0.00    -0.266 OA
HETATM   22  H18 UNK     1       1.413   0.375  -1.045  1.00  0.00     0.190 HD
BRANCH  20  23
HETATM   23  C3  UNK     1       3.408   1.919  -1.777  1.00  0.00     0.047 A 
HETATM   24  C1  UNK     1       4.690   2.152  -2.311  1.00  0.00    -0.029 A 
HETATM   25  C4  UNK     1       5.606   2.397  -1.312  1.00  0.00    -0.014 A 
HETATM   26  C14 UNK     1       7.053   2.687  -1.428  1.00  0.00     0.057 C 
HETATM   27  S1  UNK     1       4.892   2.339   0.243  1.00  0.00    -0.105 SA
HETATM   28  C8  UNK     1       3.353   1.986  -0.418  1.00  0.00     0.067 A 
BRANCH  24  29
HETATM   29  C2  UNK     1       5.026   2.138  -3.757  1.00  0.00     0.036 C 
HETATM   30  C9  UNK     1       4.878   3.509  -4.416  1.00  0.00     0.010 C 
ENDBRANCH  24  29
ENDBRANCH  20  23
ENDBRANCH  17  19
ENDBRANCH   2  17
TORSDOF 6
