REMARK  4 active torsions:
REMARK  status: ('A' for Active; 'I' for Inactive)
REMARK    1  A    between atoms: C10_13  and  O2_2 
REMARK    2  A    between atoms: C13_16  and  O2_2 
REMARK    3  A    between atoms: C2_5  and  C4_7 
REMARK    4  A    between atoms: C4_7  and  C8_11 
ROOT
HETATM    1  O1  UNK     1       1.183  -0.726   0.381  1.00  0.00    -0.274 OA
HETATM    2  O3  UNK     1      -0.006  -2.125   1.716  1.00  0.00    -0.259 OA
HETATM    3  C1  UNK     1      -1.081  -0.503  -1.304  1.00  0.00    -0.036 A 
HETATM    4  C2  UNK     1      -1.131  -1.301  -0.216  1.00  0.00     0.029 A 
HETATM    5  C3  UNK     1       0.171   0.215  -1.621  1.00  0.00     0.005 A 
HETATM    6  C5  UNK     1       1.260   0.079  -0.765  1.00  0.00     0.092 A 
HETATM    7  C6  UNK     1       0.343   1.030  -2.751  1.00  0.00     0.017 A 
HETATM    8  C7  UNK     1       0.036  -1.431   0.704  1.00  0.00     0.295 A 
HETATM    9  C9  UNK     1       2.479   0.723  -0.991  1.00  0.00     0.075 A 
HETATM   10  C10 UNK     1       2.625   1.530  -2.113  1.00  0.00     0.071 A 
HETATM   11  C11 UNK     1      -2.250  -0.277  -2.230  1.00  0.00     0.050 C 
HETATM   12  C12 UNK     1       1.558   1.682  -2.994  1.00  0.00     0.038 A 
ENDROOT
BRANCH   4  13
HETATM   13  C4  UNK     1      -2.319  -2.136   0.187  1.00  0.00     0.084 C 
BRANCH  13  14
HETATM   14  C8  UNK     1      -3.056  -1.547   1.353  1.00  0.00    -0.054 A 
HETATM   15  C14 UNK     1      -3.332  -0.184   1.376  1.00  0.00     0.007 A 
HETATM   16  C18 UNK     1      -4.017   0.364   2.460  1.00  0.00     0.001 A 
HETATM   17  C20 UNK     1      -4.422  -0.454   3.515  1.00  0.00     0.000 A 
HETATM   18  C19 UNK     1      -4.142  -1.820   3.485  1.00  0.00     0.001 A 
HETATM   19  C15 UNK     1      -3.457  -2.368   2.401  1.00  0.00     0.007 A 
ENDBRANCH  13  14
ENDBRANCH   4  13
BRANCH  10  20
HETATM   20  O2  UNK     1       3.804   2.164  -2.352  1.00  0.00    -0.347 OA
BRANCH  20  21
HETATM   21  C13 UNK     1       4.260   3.084  -1.360  1.00  0.00     0.120 C 
HETATM   22  C16 UNK     1       5.598   2.609  -0.813  1.00  0.00     0.040 C 
HETATM   23  C17 UNK     1       4.360   4.473  -1.973  1.00  0.00     0.040 C 
ENDBRANCH  20  21
ENDBRANCH  10  20
TORSDOF 4
