REMARK  1 active torsions:
REMARK  status: ('A' for Active; 'I' for Inactive)
REMARK    1  A    between atoms: C5_8  and  C9_12 
ROOT
HETATM    1  O1  UNK     1      -0.311  -0.261   1.995  1.00  0.00    -0.274 OA
HETATM    2  O2  UNK     1       3.295   1.884  -0.375  1.00  0.00    -0.321 OA
HETATM    3  O3  UNK     1      -2.005  -1.296   3.095  1.00  0.00    -0.259 OA
HETATM    4  C1  UNK     1      -0.353  -0.061  -0.431  1.00  0.00     0.005 A 
HETATM    5  C2  UNK     1      -1.657  -0.761  -0.440  1.00  0.00    -0.037 A 
HETATM    6  C3  UNK     1       1.540   1.040  -1.517  1.00  0.00     0.006 A 
HETATM    7  C4  UNK     1       0.279   0.168   0.791  1.00  0.00     0.093 A 
HETATM    8  C5  UNK     1      -2.189  -1.197   0.722  1.00  0.00     0.024 A 
HETATM    9  C6  UNK     1       0.295   0.381  -1.603  1.00  0.00     0.029 A 
HETATM   10  C7  UNK     1       2.102   1.236  -0.262  1.00  0.00     0.088 A 
HETATM   11  C8  UNK     1       1.513   0.819   0.925  1.00  0.00     0.076 A 
HETATM   12  C10 UNK     1       2.455   1.606  -2.443  1.00  0.00    -0.027 A 
HETATM   13  C11 UNK     1      -1.518  -0.938   2.027  1.00  0.00     0.295 A 
HETATM   14  C12 UNK     1      -2.332  -0.933  -1.779  1.00  0.00     0.050 C 
HETATM   15  C13 UNK     1       3.500   2.104  -1.700  1.00  0.00     0.150 A 
HETATM   16  C15 UNK     1       2.323   1.655  -3.911  1.00  0.00     0.051 C 
ENDROOT
BRANCH   8  17
HETATM   17  C9  UNK     1      -3.473  -1.977   0.842  1.00  0.00     0.041 C 
HETATM   18  C14 UNK     1      -4.665  -1.059   1.008  1.00  0.00     0.010 C 
ENDBRANCH   8  17
TORSDOF 1
