REMARK  5 active torsions:
REMARK  status: ('A' for Active; 'I' for Inactive)
REMARK    1  A    between atoms: C13_17  and  O3_3 
REMARK    2  A    between atoms: C15_19  and  O3_3 
REMARK    3  A    between atoms: C1_5  and  C2_6 
REMARK    4  A    between atoms: C2_6  and  C3_7 
REMARK    5  A    between atoms: C15_19  and  C16_20 
ROOT
HETATM    1  O1  UNK     1       0.065  -0.012   1.607  1.00  0.00    -0.274 OA
HETATM    2  O2  UNK     1      -1.354  -0.356   3.345  1.00  0.00    -0.259 OA
HETATM    3  C3  UNK     1      -2.326  -0.375   1.170  1.00  0.00     0.025 A 
HETATM    4  C4  UNK     1      -2.138  -0.223  -0.159  1.00  0.00    -0.037 A 
HETATM    5  C5  UNK     1      -0.775   0.014  -0.676  1.00  0.00     0.005 A 
HETATM    6  C8  UNK     1       0.280   0.113   0.226  1.00  0.00     0.093 A 
HETATM    7  C9  UNK     1      -1.193  -0.254   2.132  1.00  0.00     0.295 A 
HETATM    8  C10 UNK     1      -3.255  -0.264  -1.172  1.00  0.00     0.050 C 
HETATM    9  C11 UNK     1      -0.464   0.139  -2.039  1.00  0.00     0.017 A 
HETATM   10  C12 UNK     1       1.599   0.336  -0.179  1.00  0.00     0.075 A 
HETATM   11  C13 UNK     1       1.883   0.462  -1.534  1.00  0.00     0.082 A 
HETATM   12  C14 UNK     1       0.852   0.362  -2.464  1.00  0.00     0.038 A 
ENDROOT
BRANCH  11  13
HETATM   13  O3  UNK     1       3.159   0.679  -1.948  1.00  0.00    -0.279 OA
BRANCH  13  14
HETATM   14  C15 UNK     1       3.513   2.039  -2.051  1.00  0.00     0.263 C 
HETATM   15  O4  UNK     1       2.773   2.980  -1.799  1.00  0.00    -0.265 OA
BRANCH  14  16
HETATM   16  C16 UNK     1       4.946   2.152  -2.518  1.00  0.00     0.107 C 
HETATM   17  C17 UNK     1       5.398   3.597  -2.628  1.00  0.00     0.015 C 
ENDBRANCH  14  16
ENDBRANCH  13  14
ENDBRANCH  11  13
BRANCH   3  18
HETATM   18  C2  UNK     1      -3.649  -0.683   1.823  1.00  0.00     0.049 C 
BRANCH  18  19
HETATM   19  C1  UNK     1      -3.905  -2.188   1.957  1.00  0.00    -0.018 C 
HETATM   20  C6  UNK     1      -2.818  -2.892   2.774  1.00  0.00     0.010 C 
HETATM   21  C7  UNK     1      -3.993  -2.815   0.564  1.00  0.00     0.010 C 
ENDBRANCH  18  19
ENDBRANCH   3  18
TORSDOF 5
