REMARK  6 active torsions:
REMARK  status: ('A' for Active; 'I' for Inactive)
REMARK    1  A    between atoms: C14_21  and  O3_4 
REMARK    2  A    between atoms: C20_27  and  O3_4 
REMARK    3  A    between atoms: C12_19  and  C6_13 
REMARK    4  A    between atoms: C10_17  and  C14_21 
REMARK    5  A    between atoms: C20_27  and  C22_29 
REMARK    6  A    between atoms: C22_29  and  C25_32 
ROOT
HETATM    1  O1  UNK     1      -1.920   0.321   3.352  1.00  0.00    -0.293 OA
HETATM    2  N1  UNK     1      -3.028  -2.209  -0.495  1.00  0.00    -0.362 N 
HETATM    3  C1  UNK     1      -3.920  -2.696   3.136  1.00  0.00    -0.036 C 
HETATM    4  C2  UNK     1      -3.497  -3.151   1.725  1.00  0.00     0.067 C 
HETATM    5  C3  UNK     1      -2.789  -1.866   3.759  1.00  0.00     0.092 C 
HETATM    6  C4  UNK     1      -2.925  -2.046   0.874  1.00  0.00     0.021 C 
HETATM    7  C5  UNK     1      -2.373  -0.925   1.384  1.00  0.00     0.024 C 
HETATM    8  C6  UNK     1      -1.802   0.161   0.474  1.00  0.00     0.104 C 
HETATM    9  C7  UNK     1      -2.341  -0.728   2.866  1.00  0.00     0.159 C 
HETATM   10  C8  UNK     1      -5.223  -1.872   3.076  1.00  0.00     0.015 C 
HETATM   11  C9  UNK     1      -4.180  -3.936   4.011  1.00  0.00     0.015 C 
HETATM   12  C10 UNK     1      -2.164  -0.064  -0.997  1.00  0.00     0.052 C 
HETATM   13  C11 UNK     1      -2.716  -1.225  -1.419  1.00  0.00     0.018 C 
HETATM   14  C13 UNK     1      -3.050  -1.564  -2.847  1.00  0.00     0.069 C 
HETATM   15  H12 UNK     1      -3.448  -3.065  -0.840  1.00  0.00     0.165 HD
ENDROOT
BRANCH   8  16
HETATM   16  C12 UNK     1      -0.305   0.254   0.632  1.00  0.00     0.029 A 
HETATM   17  C15 UNK     1       0.345   1.578   0.464  1.00  0.00     0.194 A 
HETATM   18  O5  UNK     1      -0.294   2.589   0.203  1.00  0.00    -0.287 OA
HETATM   19  C17 UNK     1       1.810   1.613   0.630  1.00  0.00     0.050 A 
HETATM   20  C18 UNK     1       2.487   0.430   0.927  1.00  0.00     0.089 A 
HETATM   21  C19 UNK     1       2.515   2.811   0.491  1.00  0.00     0.042 A 
HETATM   22  O2  UNK     1       1.847  -0.774   1.074  1.00  0.00    -0.321 OA
HETATM   23  C21 UNK     1       3.873   0.440   1.088  1.00  0.00     0.040 A 
HETATM   24  C16 UNK     1       0.482  -0.791   0.918  1.00  0.00     0.154 A 
HETATM   25  C24 UNK     1       4.579   1.635   0.950  1.00  0.00     0.026 A 
HETATM   26  C23 UNK     1       3.901   2.818   0.653  1.00  0.00     0.035 A 
HETATM   27 Cl1  UNK     1       4.778   4.290   0.484  1.00  0.00    -0.084 Cl
ENDBRANCH   8  16
BRANCH  12  28
HETATM   28  C14 UNK     1      -1.935   1.063  -1.916  1.00  0.00     0.292 C 
HETATM   29  O4  UNK     1      -2.757   1.938  -2.119  1.00  0.00    -0.259 OA
BRANCH  28  30
HETATM   30  O3  UNK     1      -0.699   0.933  -2.453  1.00  0.00    -0.317 OA
BRANCH  30  31
HETATM   31  C20 UNK     1      -0.326   1.963  -3.375  1.00  0.00     0.183 C 
BRANCH  31  32
HETATM   32  C22 UNK     1       0.634   1.399  -4.416  1.00  0.00     0.065 C 
BRANCH  32  33
HETATM   33  C25 UNK     1       1.916   0.892  -3.800  1.00  0.00    -0.056 A 
HETATM   34  C27 UNK     1       1.996  -0.430  -3.390  1.00  0.00     0.007 A 
HETATM   35  C29 UNK     1       3.179  -0.899  -2.821  1.00  0.00     0.001 A 
HETATM   36  C30 UNK     1       4.268  -0.040  -2.669  1.00  0.00     0.000 A 
HETATM   37  C28 UNK     1       4.173   1.287  -3.086  1.00  0.00     0.001 A 
HETATM   38  C26 UNK     1       2.989   1.756  -3.656  1.00  0.00     0.007 A 
ENDBRANCH  32  33
ENDBRANCH  31  32
ENDBRANCH  30  31
ENDBRANCH  28  30
ENDBRANCH  12  28
TORSDOF 6
