REMARK  7 active torsions:
REMARK  status: ('A' for Active; 'I' for Inactive)
REMARK    1  A    between atoms: C1_10  and  O4_4 
REMARK    2  A    between atoms: C25_34  and  O4_4 
REMARK    3  A    between atoms: C22_31  and  O5_5 
REMARK    4  A    between atoms: C26_35  and  O5_5 
REMARK    5  A    between atoms: C21_30  and  N1_9 
REMARK       I    between atoms: C25_34  and  N1_9 
REMARK    6  A    between atoms: C2_11  and  C3_12 
REMARK    7  A    between atoms: C21_30  and  C26_35 
ROOT
HETATM    1  O2  UNK     1       1.065  -0.427   0.325  1.00  0.00    -0.313 OA
HETATM    2  O6  UNK     1       0.548   2.740  -2.175  1.00  0.00    -0.286 OA
HETATM    3  C2  UNK     1       2.065   1.348  -0.982  1.00  0.00     0.055 A 
HETATM    4  C5  UNK     1      -0.434   1.018  -0.913  1.00  0.00     0.049 A 
HETATM    5  C8  UNK     1       2.157   0.287  -0.150  1.00  0.00     0.065 A 
HETATM    6  C9  UNK     1       0.709   1.787  -1.423  1.00  0.00     0.198 A 
HETATM    7  C11 UNK     1      -0.194  -0.055  -0.062  1.00  0.00     0.092 A 
HETATM    8  C19 UNK     1      -1.742   1.354  -1.273  1.00  0.00     0.021 A 
HETATM    9  C20 UNK     1      -1.261  -0.802   0.437  1.00  0.00     0.075 A 
HETATM   10  C22 UNK     1      -2.568  -0.472   0.080  1.00  0.00     0.082 A 
HETATM   11  C23 UNK     1       3.449  -0.272   0.381  1.00  0.00     0.077 C 
HETATM   12  C24 UNK     1      -2.808   0.605  -0.774  1.00  0.00     0.038 A 
ENDROOT
BRANCH  10  13
HETATM   13  O5  UNK     1      -3.611  -1.200   0.566  1.00  0.00    -0.277 OA
BRANCH  13  14
HETATM   14  C26 UNK     1      -3.982  -2.294  -0.232  1.00  0.00     0.286 C 
HETATM   15  O8  UNK     1      -3.431  -2.604  -1.284  1.00  0.00    -0.263 OA
BRANCH  14  16
HETATM   16  C21 UNK     1      -5.151  -3.079   0.348  1.00  0.00     0.183 C 
HETATM   17  C27 UNK     1      -6.321  -3.077  -0.623  1.00  0.00     0.043 C 
BRANCH  16  18
HETATM   18  N1  UNK     1      -5.562  -2.565   1.629  1.00  0.00    -0.323 N 
HETATM   19  C25 UNK     1      -5.004  -2.956   2.831  1.00  0.00     0.362 C 
HETATM   20  O7  UNK     1      -4.101  -3.775   2.966  1.00  0.00    -0.238 OA
HETATM   21  H26 UNK     1      -6.268  -1.835   1.655  1.00  0.00     0.165 HD
BRANCH  19  22
HETATM   22  O4  UNK     1      -5.608  -2.291   3.861  1.00  0.00    -0.294 OA
BRANCH  22  23
HETATM   23  C1  UNK     1      -5.125  -2.600   5.173  1.00  0.00     0.061 C 
HETATM   24  C15 UNK     1      -5.349  -4.089   5.435  1.00  0.00     0.046 C 
HETATM   25  C16 UNK     1      -5.917  -1.754   6.167  1.00  0.00     0.046 C 
HETATM   26  C17 UNK     1      -3.638  -2.254   5.237  1.00  0.00     0.046 C 
ENDBRANCH  22  23
ENDBRANCH  19  22
ENDBRANCH  16  18
ENDBRANCH  14  16
ENDBRANCH  13  14
ENDBRANCH  10  13
BRANCH   3  27
HETATM   27  C3  UNK     1       3.237   2.067  -1.456  1.00  0.00    -0.017 A 
HETATM   28  C10 UNK     1       3.863   1.680  -2.640  1.00  0.00     0.052 A 
HETATM   29  C4  UNK     1       4.982   2.376  -3.111  1.00  0.00     0.102 A 
HETATM   30  O1  UNK     1       5.481   1.930  -4.309  1.00  0.00    -0.348 OA
HETATM   31  C7  UNK     1       5.508   3.433  -2.355  1.00  0.00     0.102 A 
HETATM   32  C12 UNK     1       6.004   2.966  -5.141  1.00  0.00     0.178 C 
HETATM   33  C6  UNK     1       7.450   3.277  -4.786  1.00  0.00     0.053 C 
HETATM   34  C13 UNK     1       7.664   3.379  -3.284  1.00  0.00     0.178 C 
HETATM   35  O3  UNK     1       6.634   4.152  -2.668  1.00  0.00    -0.348 OA
HETATM   36  C18 UNK     1       4.859   3.833  -1.181  1.00  0.00     0.040 A 
HETATM   37  C14 UNK     1       3.729   3.151  -0.732  1.00  0.00     0.015 A 
ENDBRANCH   3  27
TORSDOF 7
