REMARK  8 active torsions:
REMARK  status: ('A' for Active; 'I' for Inactive)
REMARK    1  A    between atoms: C2_8  and  O1_1 
REMARK    2  A    between atoms: C3_9  and  O1_1 
REMARK    3  A    between atoms: C17_23  and  O2_2 
REMARK    4  A    between atoms: C7_13  and  O2_2 
REMARK    5  A    between atoms: C14_20  and  N1_5 
REMARK    6  A    between atoms: C1_7  and  C4_10 
REMARK    7  A    between atoms: C3_9  and  C7_13 
REMARK    8  A    between atoms: C5_11  and  C6_12 
ROOT
HETATM    1  N2  UNK     1       0.881  -1.383  -3.709  1.00  0.00    -0.191 NA
HETATM    2  C4  UNK     1       0.380   1.280  -1.576  1.00  0.00     0.037 C 
HETATM    3  C6  UNK     1      -0.203   0.084  -1.856  1.00  0.00     0.055 C 
HETATM    4  C20 UNK     1       0.404  -0.722  -2.884  1.00  0.00     0.100 C 
ENDROOT
BRANCH   3   5
HETATM    5  C5  UNK     1      -1.387  -0.418  -1.177  1.00  0.00    -0.015 A 
HETATM    6  C12 UNK     1      -1.571  -1.792  -1.019  1.00  0.00     0.015 A 
HETATM    7  C15 UNK     1      -2.706  -2.273  -0.366  1.00  0.00     0.037 A 
HETATM    8  C14 UNK     1      -3.657  -1.381   0.129  1.00  0.00     0.102 A 
HETATM    9  C16 UNK     1      -3.473  -0.007  -0.029  1.00  0.00     0.037 A 
HETATM   10  C13 UNK     1      -2.338   0.474  -0.681  1.00  0.00     0.015 A 
BRANCH   8  11
HETATM   11  N1  UNK     1      -4.813  -1.871   0.793  1.00  0.00    -0.116 N 
HETATM   12  O3  UNK     1      -4.959  -3.110   0.923  1.00  0.00    -0.532 OA
HETATM   13  O4  UNK     1      -5.656  -1.051   1.231  1.00  0.00    -0.532 OA
ENDBRANCH   8  11
ENDBRANCH   3   5
BRANCH   2  14
HETATM   14  C1  UNK     1       1.579   1.822  -2.232  1.00  0.00    -0.001 A 
HETATM   15  C2  UNK     1       2.842   1.563  -1.720  1.00  0.00     0.079 A 
HETATM   16  C9  UNK     1       3.965   2.089  -2.359  1.00  0.00     0.037 A 
HETATM   17  C11 UNK     1       3.812   2.870  -3.506  1.00  0.00     0.003 A 
HETATM   18  C10 UNK     1       2.538   3.124  -4.012  1.00  0.00     0.001 A 
HETATM   19  C8  UNK     1       1.416   2.597  -3.372  1.00  0.00     0.014 A 
BRANCH  15  20
HETATM   20  O1  UNK     1       3.019   0.804  -0.601  1.00  0.00    -0.348 OA
BRANCH  20  21
HETATM   21  C3  UNK     1       3.663   1.426   0.508  1.00  0.00     0.202 C 
BRANCH  21  22
HETATM   22  C7  UNK     1       2.714   1.433   1.691  1.00  0.00     0.202 C 
BRANCH  22  23
HETATM   23  O2  UNK     1       2.356   0.093   2.007  1.00  0.00    -0.349 OA
BRANCH  23  24
HETATM   24  C17 UNK     1       1.124  -0.099   2.574  1.00  0.00     0.068 A 
HETATM   25  C18 UNK     1       0.567   0.898   3.367  1.00  0.00     0.037 A 
HETATM   26  C21 UNK     1      -0.687   0.702   3.944  1.00  0.00     0.003 A 
HETATM   27  C23 UNK     1      -1.377  -0.490   3.725  1.00  0.00     0.000 A 
HETATM   28  C22 UNK     1      -0.812  -1.487   2.929  1.00  0.00     0.003 A 
HETATM   29  C19 UNK     1       0.443  -1.291   2.352  1.00  0.00     0.037 A 
ENDBRANCH  23  24
ENDBRANCH  22  23
ENDBRANCH  21  22
ENDBRANCH  20  21
ENDBRANCH  15  20
ENDBRANCH   2  14
TORSDOF 8
