REMARK  4 active torsions:
REMARK  status: ('A' for Active; 'I' for Inactive)
REMARK    1  A    between atoms: C5_10  and  O2_2 
REMARK    2  A    between atoms: C11_16  and  O4_4 
REMARK    3  A    between atoms: C15_20  and  O5_5 
REMARK    4  A    between atoms: C1_6  and  C3_8 
ROOT
HETATM    1  O1  UNK     1       0.450  -1.706  -0.100  1.00  0.00    -0.306 OA
HETATM    2  O3  UNK     1       1.176  -3.332   3.565  1.00  0.00    -0.284 OA
HETATM    3  C1  UNK     1       0.486  -0.924   1.044  1.00  0.00     0.123 A 
HETATM    4  C2  UNK     1       0.938  -3.668   1.243  1.00  0.00     0.051 A 
HETATM    5  C4  UNK     1       0.681  -3.052   0.020  1.00  0.00     0.090 A 
HETATM    6  C5  UNK     1       0.713  -1.395   2.283  1.00  0.00     0.152 A 
HETATM    7  C6  UNK     1       0.962  -2.846   2.462  1.00  0.00     0.220 A 
HETATM    8  C8  UNK     1       1.166  -5.045   1.305  1.00  0.00     0.018 A 
HETATM    9  C10 UNK     1       0.650  -3.810  -1.151  1.00  0.00     0.038 A 
HETATM   10  C12 UNK     1       1.135  -5.801   0.132  1.00  0.00     0.001 A 
HETATM   11  C13 UNK     1       0.877  -5.185  -1.093  1.00  0.00     0.003 A 
ENDROOT
BRANCH   3  12
HETATM   12  C3  UNK     1       0.224   0.501   0.775  1.00  0.00     0.004 A 
HETATM   13  C7  UNK     1      -1.085   0.985   0.793  1.00  0.00     0.053 A 
HETATM   14  C11 UNK     1      -1.333   2.333   0.539  1.00  0.00     0.099 A 
HETATM   15  C15 UNK     1      -0.273   3.199   0.268  1.00  0.00     0.098 A 
HETATM   16  C14 UNK     1       1.035   2.716   0.250  1.00  0.00     0.040 A 
HETATM   17  C9  UNK     1       1.283   1.367   0.504  1.00  0.00     0.017 A 
BRANCH  14  18
HETATM   18  O4  UNK     1      -2.615   2.794   0.558  1.00  0.00    -0.358 OA
HETATM   19  H9  UNK     1      -2.616   3.752   0.718  1.00  0.00     0.217 HD
ENDBRANCH  14  18
BRANCH  15  20
HETATM   20  O5  UNK     1      -0.504   4.518   0.018  1.00  0.00    -0.358 OA
HETATM   21  H10 UNK     1      -1.420   4.639  -0.280  1.00  0.00     0.217 HD
ENDBRANCH  15  20
ENDBRANCH   3  12
BRANCH   6  22
HETATM   22  O2  UNK     1       0.710  -0.594   3.405  1.00  0.00    -0.355 OA
HETATM   23  H8  UNK     1       0.533   0.326   3.152  1.00  0.00     0.218 HD
ENDBRANCH   6  22
TORSDOF 4
