REMARK  3 active torsions:
REMARK  status: ('A' for Active; 'I' for Inactive)
REMARK    1  A    between atoms: C9_14  and  O2_2 
REMARK    2  A    between atoms: C5_10  and  N1_4 
REMARK    3  A    between atoms: C5_10  and  C6_11 
ROOT
HETATM    1  O1  UNK     1      -1.801  -1.121  -0.782  1.00  0.00    -0.274 OA
HETATM    2  O3  UNK     1      -3.751  -1.670  -1.842  1.00  0.00    -0.260 OA
HETATM    3  C6  UNK     1       0.233  -0.547   0.327  1.00  0.00     0.038 A 
HETATM    4  C8  UNK     1      -1.138  -0.775   0.412  1.00  0.00     0.101 A 
HETATM    5  C9  UNK     1       0.946  -0.203   1.466  1.00  0.00     0.076 A 
HETATM    6  C10 UNK     1      -1.832  -0.667   1.618  1.00  0.00     0.005 A 
HETATM    7  C11 UNK     1       0.278  -0.088   2.685  1.00  0.00     0.038 A 
HETATM    8  C12 UNK     1      -1.100  -0.319   2.761  1.00  0.00     0.017 A 
HETATM    9  C13 UNK     1      -3.279  -0.924   1.622  1.00  0.00    -0.043 A 
HETATM   10  C14 UNK     1      -3.883  -1.252   0.471  1.00  0.00     0.090 A 
HETATM   11  C15 UNK     1      -3.164  -1.369  -0.809  1.00  0.00     0.288 A 
HETATM   12  C16 UNK     1      -4.054  -0.816   2.902  1.00  0.00     0.049 C 
ENDROOT
BRANCH   3  13
HETATM   13  C5  UNK     1       0.944  -0.673  -0.989  1.00  0.00     0.317 C 
BRANCH  13  14
HETATM   14  N1  UNK     1       1.866   0.437  -1.222  1.00  0.00     0.096 N 
HETATM   15  C1  UNK     1       1.149   1.718  -1.228  1.00  0.00     0.303 C 
HETATM   16  C3  UNK     1       2.115   2.882  -1.473  1.00  0.00     0.302 C 
HETATM   17  N2  UNK     1       2.847   2.698  -2.732  1.00  0.00     0.087 N 
HETATM   18  C4  UNK     1       3.563   1.417  -2.727  1.00  0.00     0.302 C 
HETATM   19  C7  UNK     1       3.771   3.808  -2.963  1.00  0.00     0.310 C 
HETATM   20  C2  UNK     1       2.597   0.252  -2.481  1.00  0.00     0.303 C 
ENDBRANCH  13  14
ENDBRANCH   3  13
BRANCH   5  21
HETATM   21  O2  UNK     1       2.287   0.025   1.417  1.00  0.00    -0.360 OA
HETATM   22  H20 UNK     1       2.646  -0.212   0.548  1.00  0.00     0.217 HD
ENDBRANCH   5  21
TORSDOF 3
