REMARK  7 active torsions:
REMARK  status: ('A' for Active; 'I' for Inactive)
REMARK    1  A    between atoms: C12_19  and  O3_3 
REMARK    2  A    between atoms: C16_23  and  O3_3 
REMARK    3  A    between atoms: C14_21  and  O4_4 
REMARK    4  A    between atoms: C21_28  and  O4_4 
REMARK    5  A    between atoms: C15_22  and  N1_7 
REMARK       I    between atoms: C21_28  and  N1_7 
REMARK    6  A    between atoms: C15_22  and  C16_23 
REMARK    7  A    between atoms: C15_22  and  C17_24 
ROOT
HETATM    1  O5  UNK     1       0.711  -1.235  -1.902  1.00  0.00    -0.262 OA
HETATM    2  C16 UNK     1       1.149  -0.154  -1.517  1.00  0.00     0.291 C 
ENDROOT
BRANCH   2   3
HETATM    3  C15 UNK     1       2.242   0.610  -2.255  1.00  0.00     0.220 C 
BRANCH   3   4
HETATM    4  N1  UNK     1       2.667   1.778  -1.523  1.00  0.00    -0.319 N 
HETATM    5  C21 UNK     1       3.616   1.753  -0.521  1.00  0.00     0.362 C 
HETATM    6  O6  UNK     1       4.213   0.757  -0.126  1.00  0.00    -0.238 OA
HETATM    7  H22 UNK     1       2.223   2.669  -1.728  1.00  0.00     0.166 HD
BRANCH   5   8
HETATM    8  O4  UNK     1       3.798   3.013  -0.025  1.00  0.00    -0.294 OA
BRANCH   8   9
HETATM    9  C14 UNK     1       4.761   3.138   1.027  1.00  0.00     0.061 C 
HETATM   10  C18 UNK     1       4.308   2.276   2.205  1.00  0.00     0.046 C 
HETATM   11  C19 UNK     1       4.816   4.610   1.429  1.00  0.00     0.046 C 
HETATM   12  C20 UNK     1       6.118   2.672   0.502  1.00  0.00     0.046 C 
ENDBRANCH   8   9
ENDBRANCH   5   8
ENDBRANCH   3   4
BRANCH   3  13
HETATM   13  C17 UNK     1       1.828   0.967  -3.663  1.00  0.00    -0.026 A 
HETATM   14  C22 UNK     1       2.797   1.071  -4.649  1.00  0.00     0.010 A 
HETATM   15  C24 UNK     1       2.415   1.401  -5.949  1.00  0.00     0.001 A 
HETATM   16  C26 UNK     1       1.070   1.621  -6.247  1.00  0.00     0.000 A 
HETATM   17  C25 UNK     1       0.107   1.513  -5.243  1.00  0.00     0.001 A 
HETATM   18  C23 UNK     1       0.489   1.183  -3.943  1.00  0.00     0.010 A 
ENDBRANCH   3  13
ENDBRANCH   2   3
BRANCH   2  19
HETATM   19  O3  UNK     1       0.677   0.535  -0.387  1.00  0.00    -0.277 OA
BRANCH  19  20
HETATM   20  C12 UNK     1      -0.301  -0.112   0.302  1.00  0.00     0.082 A 
HETATM   21  C11 UNK     1      -1.638   0.100  -0.016  1.00  0.00     0.075 A 
HETATM   22  C9  UNK     1      -2.626  -0.573   0.706  1.00  0.00     0.093 A 
HETATM   23  C7  UNK     1      -2.325  -1.459   1.738  1.00  0.00     0.005 A 
HETATM   24  O1  UNK     1      -3.958  -0.308   0.344  1.00  0.00    -0.274 OA
HETATM   25  C10 UNK     1      -0.971  -1.652   2.048  1.00  0.00     0.017 A 
HETATM   26  C4  UNK     1      -3.434  -2.125   2.442  1.00  0.00    -0.033 A 
HETATM   27  C13 UNK     1       0.032  -0.985   1.335  1.00  0.00     0.038 A 
HETATM   28  C2  UNK     1      -3.108  -3.126   3.530  1.00  0.00     0.040 C 
HETATM   29  C6  UNK     1      -4.705  -1.833   2.107  1.00  0.00     0.025 A 
HETATM   30  C1  UNK     1      -4.302  -3.964   3.990  1.00  0.00     0.005 C 
HETATM   31  C3  UNK     1      -5.543  -3.102   4.145  1.00  0.00     0.005 C 
HETATM   32  C5  UNK     1      -5.896  -2.430   2.820  1.00  0.00     0.045 C 
HETATM   33  C8  UNK     1      -5.027  -0.888   1.007  1.00  0.00     0.295 A 
HETATM   34  O2  UNK     1      -6.183  -0.633   0.685  1.00  0.00    -0.259 OA
ENDBRANCH  19  20
ENDBRANCH   2  19
TORSDOF 7
