REMARK  5 active torsions:
REMARK  status: ('A' for Active; 'I' for Inactive)
REMARK    1  A    between atoms: C14_24  and  N1_6 
REMARK    2  A    between atoms: C4_14  and  N1_6 
REMARK       I    between atoms: C12_22  and  N3_8 
REMARK    3  A    between atoms: N3_8  and  N4_9 
REMARK    4  A    between atoms: C14_24  and  N4_9 
REMARK    5  A    between atoms: C10_20  and  C12_22 
ROOT
HETATM    1  S1  UNK     1       1.696   1.237   3.396  1.00  0.00    -0.039 SA
HETATM    2  C14 UNK     1       1.481   1.073   1.742  1.00  0.00     0.191 C 
ENDROOT
BRANCH   2   3
HETATM    3  N1  UNK     1       0.325   0.684   1.040  1.00  0.00    -0.332 N 
HETATM    4  H8  UNK     1       0.304   1.031   0.084  1.00  0.00     0.168 HD
BRANCH   3   5
HETATM    5  C4  UNK     1      -0.764  -0.132   1.347  1.00  0.00     0.037 A 
HETATM    6  C6  UNK     1      -1.802  -0.283   0.434  1.00  0.00     0.067 A 
HETATM    7  C2  UNK     1      -2.882  -1.106   0.760  1.00  0.00     0.092 A 
HETATM    8  C1  UNK     1      -2.959  -1.786   1.976  1.00  0.00     0.004 A 
HETATM    9  O1  UNK     1      -3.902  -1.220  -0.205  1.00  0.00    -0.275 OA
HETATM   10  C3  UNK     1      -4.133  -2.631   2.236  1.00  0.00    -0.043 A 
HETATM   11  C5  UNK     1      -1.903  -1.621   2.882  1.00  0.00     0.017 A 
HETATM   12  C8  UNK     1      -5.088  -2.721   1.300  1.00  0.00     0.090 A 
HETATM   13  C9  UNK     1      -4.246  -3.376   3.534  1.00  0.00     0.049 C 
HETATM   14  C11 UNK     1      -5.020  -2.009   0.012  1.00  0.00     0.288 A 
HETATM   15  O2  UNK     1      -5.914  -2.115  -0.821  1.00  0.00    -0.260 OA
HETATM   16  C7  UNK     1      -0.814  -0.800   2.569  1.00  0.00     0.030 A 
ENDBRANCH   3   5
ENDBRANCH   2   3
BRANCH   2  17
HETATM   17  N4  UNK     1       2.566   1.382   0.929  1.00  0.00    -0.273 N 
HETATM   18  H13 UNK     1       3.456   1.675   1.318  1.00  0.00     0.189 HD
BRANCH  17  19
HETATM   19  N3  UNK     1       2.493   1.281  -0.443  1.00  0.00    -0.262 N 
HETATM   20  C12 UNK     1       3.286   2.114  -1.220  1.00  0.00     0.290 C 
HETATM   21  O3  UNK     1       4.053   2.942  -0.726  1.00  0.00    -0.264 OA
HETATM   22  H12 UNK     1       1.925   0.534  -0.830  1.00  0.00     0.190 HD
BRANCH  20  23
HETATM   23  C10 UNK     1       3.163   1.923  -2.672  1.00  0.00     0.144 A 
HETATM   24  N2  UNK     1       4.184   1.558  -3.462  1.00  0.00    -0.267 N 
HETATM   25  C15 UNK     1       5.553   1.286  -3.088  1.00  0.00     0.180 C 
HETATM   26  N5  UNK     1       3.822   1.449  -4.752  1.00  0.00    -0.183 NA
HETATM   27  C16 UNK     1       2.524   1.764  -4.730  1.00  0.00     0.165 A 
HETATM   28  C13 UNK     1       2.061   2.072  -3.436  1.00  0.00     0.087 A 
HETATM   29 Cl1  UNK     1       0.483   2.514  -3.020  1.00  0.00    -0.080 Cl
ENDBRANCH  20  23
ENDBRANCH  17  19
ENDBRANCH   2  17
TORSDOF 5
