REMARK  6 active torsions:
REMARK  status: ('A' for Active; 'I' for Inactive)
REMARK    1  A    between atoms: C2_7  and  O1_3 
REMARK    2  A    between atoms: C5_10  and  O1_3 
REMARK    3  A    between atoms: C3_8  and  O2_4 
REMARK    4  A    between atoms: C1_6  and  C9_14 
REMARK    5  A    between atoms: C5_10  and  C8_13 
REMARK    6  A    between atoms: C10_15  and  C11_16 
ROOT
HETATM    1  N1  UNK     1      -0.572  -3.231   1.483  1.00  0.00    -0.191 NA
HETATM    2  C9  UNK     1      -2.111  -0.215   0.828  1.00  0.00     0.036 C 
HETATM    3  C10 UNK     1      -2.405  -1.388   1.451  1.00  0.00     0.055 C 
HETATM    4  C23 UNK     1      -1.384  -2.402   1.463  1.00  0.00     0.100 C 
ENDROOT
BRANCH   3   5
HETATM    5  C11 UNK     1      -3.677  -1.662   2.102  1.00  0.00    -0.014 A 
HETATM    6  C14 UNK     1      -4.721  -2.240   1.381  1.00  0.00     0.036 A 
HETATM    7  C19 UNK     1      -5.940  -2.502   2.006  1.00  0.00     0.034 A 
HETATM    8 Cl1  UNK     1      -7.229  -3.214   1.116  1.00  0.00    -0.084 Cl
HETATM    9  C21 UNK     1      -6.115  -2.184   3.353  1.00  0.00     0.024 A 
HETATM   10  C20 UNK     1      -5.071  -1.606   4.075  1.00  0.00     0.003 A 
HETATM   11  C15 UNK     1      -3.852  -1.344   3.449  1.00  0.00     0.013 A 
ENDBRANCH   3   5
BRANCH   2  12
HETATM   12  C1  UNK     1      -0.839   0.107   0.165  1.00  0.00    -0.015 A 
HETATM   13  C4  UNK     1       0.144   0.710   0.939  1.00  0.00     0.052 A 
HETATM   14  C3  UNK     1       1.371   1.037   0.362  1.00  0.00     0.102 A 
HETATM   15  C2  UNK     1       1.604   0.759  -0.985  1.00  0.00     0.103 A 
HETATM   16  C7  UNK     1       0.611   0.153  -1.754  1.00  0.00     0.059 A 
HETATM   17  C6  UNK     1      -0.616  -0.174  -1.176  1.00  0.00     0.024 A 
HETATM   18 Br1  UNK     1      -1.925  -0.998  -2.280  1.00  0.00    -0.050 Br
BRANCH  14  19
HETATM   19  O2  UNK     1       2.334   1.628   1.123  1.00  0.00    -0.353 OA
HETATM   20  C22 UNK     1       3.245   0.765   1.800  1.00  0.00     0.210 C 
ENDBRANCH  14  19
BRANCH  15  21
HETATM   21  O1  UNK     1       2.798   1.074  -1.560  1.00  0.00    -0.344 OA
BRANCH  21  22
HETATM   22  C5  UNK     1       2.784   1.391  -2.951  1.00  0.00     0.214 C 
BRANCH  22  23
HETATM   23  C8  UNK     1       3.909   2.338  -3.249  1.00  0.00    -0.034 A 
HETATM   24  C12 UNK     1       3.694   3.709  -3.165  1.00  0.00     0.009 A 
HETATM   25  C16 UNK     1       4.740   4.590  -3.442  1.00  0.00     0.001 A 
HETATM   26  C18 UNK     1       5.993   4.094  -3.801  1.00  0.00     0.000 A 
HETATM   27  C17 UNK     1       6.201   2.718  -3.883  1.00  0.00     0.001 A 
HETATM   28  C13 UNK     1       5.155   1.837  -3.606  1.00  0.00     0.009 A 
ENDBRANCH  22  23
ENDBRANCH  21  22
ENDBRANCH  15  21
ENDBRANCH   2  12
TORSDOF 6
