REMARK  3 active torsions:
REMARK  status: ('A' for Active; 'I' for Inactive)
REMARK    1  A    between atoms: C1_5  and  O1_1 
REMARK    2  A    between atoms: C8_12  and  O1_1 
REMARK    3  A    between atoms: C3_7  and  C8_12 
ROOT
HETATM    1  O2  UNK     1       0.105   0.285  -2.069  1.00  0.00    -0.274 OA
HETATM    2  O4  UNK     1      -1.796  -0.738  -1.321  1.00  0.00    -0.259 OA
HETATM    3  C2  UNK     1       1.745   1.090  -0.464  1.00  0.00    -0.001 A 
HETATM    4  C3  UNK     1      -0.270   0.005   0.332  1.00  0.00     0.115 A 
HETATM    5  C4  UNK     1       1.330   0.918  -1.781  1.00  0.00     0.089 A 
HETATM    6  C5  UNK     1       0.893   0.606   0.611  1.00  0.00     0.038 A 
HETATM    7  C9  UNK     1       2.967   1.722  -0.219  1.00  0.00     0.014 A 
HETATM    8  C10 UNK     1      -0.731  -0.189  -1.061  1.00  0.00     0.304 A 
HETATM    9  C11 UNK     1       2.099   1.358  -2.856  1.00  0.00     0.038 A 
HETATM   10  C12 UNK     1       3.749   2.169  -1.288  1.00  0.00     0.001 A 
HETATM   11  C13 UNK     1       3.316   1.988  -2.603  1.00  0.00     0.003 A 
ENDROOT
BRANCH   4  12
HETATM   12  C8  UNK     1      -1.059  -0.448   1.484  1.00  0.00     0.299 C 
HETATM   13  O3  UNK     1      -0.565  -0.799   2.542  1.00  0.00    -0.259 OA
BRANCH  12  14
HETATM   14  O1  UNK     1      -2.373  -0.399   1.153  1.00  0.00    -0.313 OA
BRANCH  14  15
HETATM   15  C1  UNK     1      -3.204  -1.364   1.807  1.00  0.00     0.124 C 
HETATM   16  C6  UNK     1      -4.645  -1.167   1.364  1.00  0.00     0.040 C 
HETATM   17  C7  UNK     1      -2.698  -2.762   1.484  1.00  0.00     0.040 C 
ENDBRANCH  14  15
ENDBRANCH  12  14
ENDBRANCH   4  12
TORSDOF 3
