REMARK  6 active torsions:
REMARK  status: ('A' for Active; 'I' for Inactive)
REMARK    1  A    between atoms: C10_14  and  O2_2 
REMARK    2  A    between atoms: C13_17  and  O2_2 
REMARK    3  A    between atoms: C3_7  and  C5_9 
REMARK    4  A    between atoms: C12_16  and  C5_9 
REMARK    5  A    between atoms: C13_17  and  C14_18 
REMARK    6  A    between atoms: C14_18  and  C15_19 
ROOT
HETATM    1  O1  UNK     1       0.947   1.165  -2.232  1.00  0.00    -0.274 OA
HETATM    2  O3  UNK     1       1.828   1.552  -4.288  1.00  0.00    -0.259 OA
HETATM    3  C1  UNK     1       2.389   1.081  -0.275  1.00  0.00     0.005 A 
HETATM    4  C2  UNK     1       3.553   1.357  -1.142  1.00  0.00    -0.036 A 
HETATM    5  C3  UNK     1       3.372   1.483  -2.474  1.00  0.00     0.028 A 
HETATM    6  C4  UNK     1       1.125   0.997  -0.851  1.00  0.00     0.092 A 
HETATM    7  C6  UNK     1       2.474   0.886   1.113  1.00  0.00     0.017 A 
HETATM    8  C7  UNK     1      -0.027   0.740  -0.103  1.00  0.00     0.075 A 
HETATM    9  C8  UNK     1       2.012   1.405  -3.083  1.00  0.00     0.295 A 
HETATM   10  C9  UNK     1       4.892   1.497  -0.463  1.00  0.00     0.050 C 
HETATM   11  C10 UNK     1       0.080   0.555   1.271  1.00  0.00     0.072 A 
HETATM   12  C11 UNK     1       1.330   0.627   1.878  1.00  0.00     0.038 A 
ENDROOT
BRANCH  11  13
HETATM   13  O2  UNK     1      -1.030   0.304   2.016  1.00  0.00    -0.344 OA
BRANCH  13  14
HETATM   14  C13 UNK     1      -2.101  -0.387   1.375  1.00  0.00     0.259 C 
BRANCH  14  15
HETATM   15  C14 UNK     1      -2.876  -1.203   2.392  1.00  0.00     0.183 C 
HETATM   16  O4  UNK     1      -2.545  -1.242   3.575  1.00  0.00    -0.290 OA
BRANCH  15  17
HETATM   17  C15 UNK     1      -4.067  -1.975   1.934  1.00  0.00     0.012 A 
HETATM   18  C16 UNK     1      -4.419  -1.918   0.605  1.00  0.00     0.015 A 
HETATM   19  C19 UNK     1      -5.533  -2.641   0.176  1.00  0.00     0.001 A 
HETATM   20  C21 UNK     1      -6.265  -3.400   1.089  1.00  0.00     0.000 A 
HETATM   21  C20 UNK     1      -5.883  -3.437   2.430  1.00  0.00     0.001 A 
HETATM   22  C17 UNK     1      -4.769  -2.715   2.858  1.00  0.00     0.015 A 
ENDBRANCH  15  17
ENDBRANCH  14  15
ENDBRANCH  13  14
ENDBRANCH  11  13
BRANCH   5  23
HETATM   23  C5  UNK     1       4.476   1.701  -3.477  1.00  0.00     0.071 C 
BRANCH  23  24
HETATM   24  C12 UNK     1       4.742   3.154  -3.693  1.00  0.00    -0.032 C 
HETATM   25  C18 UNK     1       4.628   3.762  -4.880  1.00  0.00     0.007 C 
ENDBRANCH  23  24
ENDBRANCH   5  23
TORSDOF 6
