REMARK  5 active torsions:
REMARK  status: ('A' for Active; 'I' for Inactive)
REMARK    1  A    between atoms: C10_18  and  O1_2 
REMARK    2  A    between atoms: C2_10  and  N1_7 
REMARK    3  A    between atoms: C7_15  and  N2_8 
REMARK    4  A    between atoms: C1_9  and  C3_11 
REMARK    5  A    between atoms: C4_12  and  C8_16 
ROOT
HETATM    1  C1  UNK     1      -1.207  -0.056   0.056  1.00  0.00    -0.003 A 
HETATM    2  C2  UNK     1      -1.188  -0.384   1.412  1.00  0.00     0.115 A 
HETATM    3  C5  UNK     1      -2.264  -0.479  -0.749  1.00  0.00     0.016 A 
HETATM    4  C6  UNK     1      -2.228  -1.134   1.962  1.00  0.00     0.073 A 
HETATM    5  C7  UNK     1      -3.286  -1.556   1.157  1.00  0.00     0.105 A 
HETATM    6  C9  UNK     1      -3.304  -1.229  -0.199  1.00  0.00     0.037 A 
ENDROOT
BRANCH   1   7
HETATM    7  C3  UNK     1      -0.141   0.726  -0.560  1.00  0.00     0.015 C 
HETATM    8  C8  UNK     1       0.958   0.209  -1.153  1.00  0.00     0.015 C 
BRANCH   8   9
HETATM    9  C4  UNK     1       2.025   1.000  -1.793  1.00  0.00    -0.001 A 
HETATM   10  C10 UNK     1       1.929   1.357  -3.128  1.00  0.00     0.076 A 
HETATM   11  C12 UNK     1       2.951   2.104  -3.713  1.00  0.00     0.039 A 
HETATM   12  C14 UNK     1       4.059   2.484  -2.954  1.00  0.00     0.026 A 
HETATM   13  C13 UNK     1       4.143   2.118  -1.611  1.00  0.00     0.035 A 
HETATM   14  C11 UNK     1       3.120   1.371  -1.027  1.00  0.00     0.038 A 
HETATM   15 Cl1  UNK     1       5.511   2.586  -0.678  1.00  0.00    -0.084 Cl
BRANCH  10  16
HETATM   16  O1  UNK     1       0.858   0.998  -3.893  1.00  0.00    -0.360 OA
HETATM   17  H9  UNK     1       0.238   0.451  -3.384  1.00  0.00     0.217 HD
ENDBRANCH  10  16
ENDBRANCH   8   9
ENDBRANCH   1   7
BRANCH   2  18
HETATM   18  N1  UNK     1      -0.124   0.031   2.262  1.00  0.00    -0.115 N 
HETATM   19  O2  UNK     1      -0.157  -0.291   3.472  1.00  0.00    -0.532 OA
HETATM   20  O3  UNK     1       0.813   0.704   1.772  1.00  0.00    -0.532 OA
ENDBRANCH   2  18
BRANCH   5  21
HETATM   21  N2  UNK     1      -4.344  -2.320   1.716  1.00  0.00    -0.116 N 
HETATM   22  O4  UNK     1      -5.285  -2.690   0.973  1.00  0.00    -0.532 OA
HETATM   23  O5  UNK     1      -4.309  -2.604   2.938  1.00  0.00    -0.532 OA
ENDBRANCH   5  21
TORSDOF 5
