REMARK  5 active torsions:
REMARK  status: ('A' for Active; 'I' for Inactive)
REMARK    1  A    between atoms: C14_21  and  O2_2 
REMARK    2  A    between atoms: C15_22  and  O2_2 
REMARK    3  A    between atoms: C1_8  and  C10_17 
REMARK    4  A    between atoms: C15_22  and  C5_12 
REMARK    5  A    between atoms: C11_18  and  C14_21 
ROOT
HETATM    1  O3  UNK     1       1.304  -0.702  -3.457  1.00  0.00    -0.293 OA
HETATM    2  N1  UNK     1       3.177   2.712  -0.754  1.00  0.00    -0.362 N 
HETATM    3  C1  UNK     1       1.601   0.351  -0.788  1.00  0.00     0.104 C 
HETATM    4  C2  UNK     1       2.171   1.000  -2.046  1.00  0.00     0.024 C 
HETATM    5  C3  UNK     1       2.902   2.133  -1.978  1.00  0.00     0.020 C 
HETATM    6  C4  UNK     1       3.495   2.810  -3.186  1.00  0.00     0.058 C 
HETATM    7  C5  UNK     1       2.107   1.010   0.497  1.00  0.00     0.052 C 
HETATM    8  C6  UNK     1       3.650   1.859  -4.367  1.00  0.00     0.014 C 
HETATM    9  C7  UNK     1       2.363   1.095  -4.621  1.00  0.00     0.084 C 
HETATM   10  C8  UNK     1       1.913   0.364  -3.375  1.00  0.00     0.158 C 
HETATM   11  C9  UNK     1       2.833   2.152   0.466  1.00  0.00     0.018 C 
HETATM   12  C18 UNK     1       3.331   2.901   1.673  1.00  0.00     0.069 C 
HETATM   13  H8  UNK     1       3.729   3.562  -0.744  1.00  0.00     0.165 HD
ENDROOT
BRANCH   3  14
HETATM   14  C10 UNK     1       0.097   0.371  -0.819  1.00  0.00     0.029 A 
HETATM   15  C17 UNK     1      -0.630  -0.924  -0.827  1.00  0.00     0.194 A 
HETATM   16  O6  UNK     1      -0.045  -1.998  -0.809  1.00  0.00    -0.287 OA
HETATM   17  C20 UNK     1      -2.102  -0.846  -0.859  1.00  0.00     0.049 A 
HETATM   18  C21 UNK     1      -2.716   0.407  -0.880  1.00  0.00     0.089 A 
HETATM   19  C22 UNK     1      -2.877  -2.009  -0.869  1.00  0.00     0.025 A 
HETATM   20  O4  UNK     1      -2.005   1.580  -0.871  1.00  0.00    -0.321 OA
HETATM   21  C23 UNK     1      -4.107   0.504  -0.910  1.00  0.00     0.039 A 
HETATM   22  C19 UNK     1      -0.635   1.493  -0.841  1.00  0.00     0.154 A 
HETATM   23  C25 UNK     1      -4.883  -0.656  -0.920  1.00  0.00     0.009 A 
HETATM   24  C24 UNK     1      -4.269  -1.909  -0.899  1.00  0.00    -0.061 A 
HETATM   25  C26 UNK     1      -5.103  -3.146  -0.909  1.00  0.00     0.048 C 
ENDBRANCH   3  14
BRANCH   7  26
HETATM   26  C15 UNK     1       1.811   0.311   1.758  1.00  0.00     0.292 C 
HETATM   27  O5  UNK     1       2.530  -0.551   2.228  1.00  0.00    -0.259 OA
BRANCH  26  28
HETATM   28  O2  UNK     1       0.648   0.798   2.254  1.00  0.00    -0.315 OA
BRANCH  28  29
HETATM   29  C14 UNK     1       0.224   0.212   3.489  1.00  0.00     0.211 C 
BRANCH  29  30
HETATM   30  C11 UNK     1      -0.650  -0.991   3.191  1.00  0.00     0.145 C 
HETATM   31  O1  UNK     1      -1.822  -0.576   2.468  1.00  0.00    -0.384 OA
HETATM   32  C16 UNK     1      -2.953  -1.289   2.990  1.00  0.00     0.168 C 
HETATM   33  C13 UNK     1      -2.413  -2.349   3.927  1.00  0.00     0.029 C 
HETATM   34  C12 UNK     1      -1.151  -1.700   4.437  1.00  0.00     0.036 C 
ENDBRANCH  29  30
ENDBRANCH  28  29
ENDBRANCH  26  28
ENDBRANCH   7  26
TORSDOF 5
