REMARK  4 active torsions:
REMARK  status: ('A' for Active; 'I' for Inactive)
REMARK    1  A    between atoms: C10_15  and  O2_2 
REMARK    2  A    between atoms: C1_6  and  N1_5 
REMARK       I    between atoms: C5_10  and  N1_5 
REMARK    3  A    between atoms: C1_6  and  C2_7 
REMARK    4  A    between atoms: C5_10  and  C7_12 
ROOT
HETATM    1  O3  UNK     1      -0.605  -0.221  -3.027  1.00  0.00    -0.267 OA
HETATM    2  N1  UNK     1      -1.182  -0.071  -0.773  1.00  0.00    -0.348 N 
HETATM    3  C5  UNK     1      -0.338   0.062  -1.860  1.00  0.00     0.258 C 
HETATM    4  H2  UNK     1      -0.874   0.257   0.137  1.00  0.00     0.163 HD
ENDROOT
BRANCH   3   5
HETATM    5  C7  UNK     1       0.979   0.599  -1.498  1.00  0.00     0.108 A 
HETATM    6  C14 UNK     1       1.587   0.358  -0.170  1.00  0.00     0.304 A 
HETATM    7  O1  UNK     1       2.840   0.921   0.056  1.00  0.00    -0.274 OA
HETATM    8  O4  UNK     1       1.019  -0.302   0.693  1.00  0.00    -0.259 OA
HETATM    9  C11 UNK     1       3.501   1.681  -0.929  1.00  0.00     0.089 A 
HETATM   10  C8  UNK     1       2.912   1.895  -2.171  1.00  0.00    -0.001 A 
HETATM   11  C16 UNK     1       4.754   2.203  -0.611  1.00  0.00     0.038 A 
HETATM   12  C15 UNK     1       3.599   2.655  -3.121  1.00  0.00     0.014 A 
HETATM   13  C9  UNK     1       1.602   1.321  -2.437  1.00  0.00     0.037 A 
HETATM   14  C17 UNK     1       4.856   3.185  -2.816  1.00  0.00     0.001 A 
HETATM   15  C18 UNK     1       5.432   2.960  -1.564  1.00  0.00     0.003 A 
ENDBRANCH   3   5
BRANCH   2  16
HETATM   16  C1  UNK     1      -2.532  -0.577  -0.881  1.00  0.00     0.114 C 
HETATM   17  C3  UNK     1      -3.514   0.542  -1.211  1.00  0.00     0.037 C 
BRANCH  16  18
HETATM   18  C2  UNK     1      -2.897  -1.319   0.386  1.00  0.00    -0.033 A 
HETATM   19  C4  UNK     1      -2.974  -0.622   1.579  1.00  0.00     0.046 A 
HETATM   20  C10 UNK     1      -3.311  -1.306   2.747  1.00  0.00     0.068 A 
HETATM   21  C13 UNK     1      -3.566  -2.676   2.703  1.00  0.00     0.037 A 
HETATM   22  C12 UNK     1      -3.484  -3.363   1.492  1.00  0.00     0.003 A 
HETATM   23  C6  UNK     1      -3.147  -2.679   0.324  1.00  0.00     0.009 A 
BRANCH  20  24
HETATM   24  O2  UNK     1      -3.392  -0.636   3.929  1.00  0.00    -0.356 OA
HETATM   25  C19 UNK     1      -3.742  -1.397   5.084  1.00  0.00     0.210 C 
ENDBRANCH  20  24
ENDBRANCH  16  18
ENDBRANCH   2  16
TORSDOF 4
