REMARK  3 active torsions:
REMARK  status: ('A' for Active; 'I' for Inactive)
REMARK    1  A    between atoms: C16_20  and  O2_2 
REMARK    2  A    between atoms: C6_10  and  N1_4 
REMARK    3  A    between atoms: C6_10  and  C8_12 
ROOT
HETATM    1  O1  UNK     1       2.353   1.688   0.924  1.00  0.00    -0.275 OA
HETATM    2  O3  UNK     1       2.257   1.290   3.173  1.00  0.00    -0.260 OA
HETATM    3  C8  UNK     1       0.657  -0.546   0.556  1.00  0.00    -0.011 A 
HETATM    4  C9  UNK     1       1.128   0.226  -0.602  1.00  0.00     0.006 A 
HETATM    5  C10 UNK     1       1.043  -0.174   1.784  1.00  0.00     0.092 A 
HETATM    6  C11 UNK     1       1.964   1.321  -0.380  1.00  0.00     0.093 A 
HETATM    7  C12 UNK     1       0.787  -0.073  -1.928  1.00  0.00     0.017 A 
HETATM    8  C13 UNK     1       1.924   0.979   2.035  1.00  0.00     0.288 A 
HETATM    9  C14 UNK     1       2.456   2.108  -1.424  1.00  0.00     0.075 A 
HETATM   10  C15 UNK     1       1.272   0.706  -2.985  1.00  0.00     0.038 A 
HETATM   11  C16 UNK     1       2.105   1.794  -2.733  1.00  0.00     0.070 A 
ENDROOT
BRANCH   3  12
HETATM   12  C6  UNK     1      -0.236  -1.720   0.352  1.00  0.00     0.312 C 
BRANCH  12  13
HETATM   13  N1  UNK     1      -1.651  -1.349   0.373  1.00  0.00     0.092 N 
HETATM   14  C4  UNK     1      -2.004  -0.742   1.663  1.00  0.00     0.273 C 
HETATM   15  C2  UNK     1      -3.468  -0.299   1.683  1.00  0.00     0.034 C 
HETATM   16  C1  UNK     1      -4.408  -1.466   1.361  1.00  0.00    -0.015 C 
HETATM   17  C3  UNK     1      -3.975  -2.134   0.053  1.00  0.00     0.034 C 
HETATM   18  C7  UNK     1      -5.858  -0.996   1.284  1.00  0.00     0.010 C 
HETATM   19  C5  UNK     1      -2.494  -2.518   0.088  1.00  0.00     0.273 C 
ENDBRANCH  12  13
ENDBRANCH   3  12
BRANCH  11  20
HETATM   20  O2  UNK     1       2.574   2.548  -3.764  1.00  0.00    -0.356 OA
HETATM   21  C17 UNK     1       2.174   2.168  -5.080  1.00  0.00     0.210 C 
ENDBRANCH  11  20
TORSDOF 3
