REMARK  3 active torsions:
REMARK  status: ('A' for Active; 'I' for Inactive)
REMARK    1  A    between atoms: C15_19  and  O3_3 
REMARK    2  A    between atoms: C17_21  and  O4_4 
REMARK    3  A    between atoms: C4_8  and  C9_13 
ROOT
HETATM    1  O1  UNK     1      -0.583   0.454   0.443  1.00  0.00    -0.308 OA
HETATM    2  O2  UNK     1      -2.628  -2.657  -1.211  1.00  0.00    -0.287 OA
HETATM    3  C1  UNK     1      -1.583  -0.161   1.152  1.00  0.00     0.096 A 
HETATM    4  C2  UNK     1      -2.321  -1.231   0.647  1.00  0.00     0.049 A 
HETATM    5  C3  UNK     1      -1.851   0.329   2.431  1.00  0.00    -0.027 A 
HETATM    6  C4  UNK     1      -0.291  -0.015  -0.829  1.00  0.00     0.090 A 
HETATM    7  C5  UNK     1      -3.594  -1.327   2.693  1.00  0.00    -0.060 A 
HETATM    8  C6  UNK     1      -3.329  -1.819   1.415  1.00  0.00     0.025 A 
HETATM    9  C7  UNK     1      -2.857  -0.256   3.201  1.00  0.00     0.016 A 
HETATM   10  C8  UNK     1      -2.019  -1.725  -0.705  1.00  0.00     0.187 A 
HETATM   11  C10 UNK     1      -0.933  -1.031  -1.426  1.00  0.00     0.093 A 
HETATM   12  C11 UNK     1      -1.077   1.473   2.997  1.00  0.00     0.051 C 
HETATM   13  C12 UNK     1      -4.669  -1.947   3.521  1.00  0.00     0.048 C 
ENDROOT
BRANCH   6  14
HETATM   14  C9  UNK     1       0.796   0.722  -1.505  1.00  0.00     0.001 A 
HETATM   15  C13 UNK     1       1.829   1.291  -0.756  1.00  0.00     0.054 A 
HETATM   16  C15 UNK     1       2.856   1.986  -1.395  1.00  0.00     0.102 A 
HETATM   17  C17 UNK     1       2.854   2.114  -2.784  1.00  0.00     0.099 A 
HETATM   18  C16 UNK     1       1.824   1.546  -3.534  1.00  0.00     0.040 A 
HETATM   19  C14 UNK     1       0.797   0.851  -2.896  1.00  0.00     0.017 A 
BRANCH  16  20
HETATM   20  O3  UNK     1       3.856   2.538  -0.651  1.00  0.00    -0.353 OA
HETATM   21  C18 UNK     1       3.664   3.876  -0.198  1.00  0.00     0.210 C 
ENDBRANCH  16  20
BRANCH  17  22
HETATM   22  O4  UNK     1       3.851   2.791  -3.418  1.00  0.00    -0.358 OA
HETATM   23  H13 UNK     1       3.683   2.777  -4.376  1.00  0.00     0.217 HD
ENDBRANCH  17  22
ENDBRANCH   6  14
TORSDOF 3
