REMARK  6 active torsions:
REMARK  status: ('A' for Active; 'I' for Inactive)
REMARK    1  A    between atoms: C14_21  and  O3_3 
REMARK    2  A    between atoms: C20_27  and  O3_3 
REMARK    3  A    between atoms: C24_31  and  O6_6 
REMARK    4  A    between atoms: C12_19  and  C6_13 
REMARK    5  A    between atoms: C10_17  and  C14_21 
REMARK    6  A    between atoms: C20_27  and  C24_31 
ROOT
HETATM    1  O1  UNK     1      -1.295   0.850   2.773  1.00  0.00    -0.293 OA
HETATM    2  N1  UNK     1      -2.525  -2.138  -0.689  1.00  0.00    -0.362 N 
HETATM    3  C1  UNK     1      -3.375  -2.113   2.984  1.00  0.00    -0.036 C 
HETATM    4  C2  UNK     1      -2.985  -2.763   1.641  1.00  0.00     0.067 C 
HETATM    5  C3  UNK     1      -2.214  -1.239   3.479  1.00  0.00     0.092 C 
HETATM    6  C4  UNK     1      -2.397  -1.797   0.644  1.00  0.00     0.021 C 
HETATM    7  C5  UNK     1      -1.808  -0.634   0.995  1.00  0.00     0.024 C 
HETATM    8  C6  UNK     1      -1.224   0.306  -0.059  1.00  0.00     0.104 C 
HETATM    9  C7  UNK     1      -1.750  -0.243   2.436  1.00  0.00     0.159 C 
HETATM   10  C8  UNK     1      -4.657  -1.269   2.829  1.00  0.00     0.015 C 
HETATM   11  C9  UNK     1      -3.654  -3.218   4.019  1.00  0.00     0.015 C 
HETATM   12  C10 UNK     1      -1.613  -0.103  -1.482  1.00  0.00     0.052 C 
HETATM   13  C11 UNK     1      -2.201  -1.294  -1.740  1.00  0.00     0.018 C 
HETATM   14  C13 UNK     1      -2.564  -1.810  -3.106  1.00  0.00     0.069 C 
HETATM   15  H12 UNK     1      -2.971  -3.020  -0.912  1.00  0.00     0.165 HD
ENDROOT
BRANCH   8  16
HETATM   16  C12 UNK     1       0.278   0.377   0.069  1.00  0.00     0.029 A 
HETATM   17  C15 UNK     1       0.900   1.687   0.389  1.00  0.00     0.194 A 
HETATM   18  O5  UNK     1       0.236   2.702   0.551  1.00  0.00    -0.287 OA
HETATM   19  C17 UNK     1       2.371   1.702   0.500  1.00  0.00     0.048 A 
HETATM   20  C18 UNK     1       3.078   0.515   0.305  1.00  0.00     0.089 A 
HETATM   21  C19 UNK     1       3.051   2.885   0.797  1.00  0.00     0.018 A 
HETATM   22  O2  UNK     1       2.461  -0.676   0.011  1.00  0.00    -0.321 OA
HETATM   23  C21 UNK     1       4.469   0.505   0.406  1.00  0.00     0.038 A 
HETATM   24  C16 UNK     1       1.092  -0.674  -0.090  1.00  0.00     0.154 A 
HETATM   25  C23 UNK     1       5.151   1.686   0.702  1.00  0.00     0.003 A 
HETATM   26  C22 UNK     1       4.443   2.873   0.898  1.00  0.00     0.001 A 
ENDBRANCH   8  16
BRANCH  12  27
HETATM   27  C14 UNK     1      -1.369   0.886  -2.546  1.00  0.00     0.292 C 
HETATM   28  O4  UNK     1      -2.171   1.747  -2.854  1.00  0.00    -0.259 OA
BRANCH  27  29
HETATM   29  O3  UNK     1      -0.144   0.651  -3.074  1.00  0.00    -0.316 OA
BRANCH  29  30
HETATM   30  C20 UNK     1       0.242   1.538  -4.129  1.00  0.00     0.205 C 
BRANCH  30  31
HETATM   31  C24 UNK     1       1.625   1.155  -4.617  1.00  0.00     0.193 C 
BRANCH  31  32
HETATM   32  O6  UNK     1       2.548   1.280  -3.542  1.00  0.00    -0.394 OA
HETATM   33  C25 UNK     1       3.862   0.911  -3.937  1.00  0.00     0.201 C 
ENDBRANCH  31  32
ENDBRANCH  30  31
ENDBRANCH  29  30
ENDBRANCH  27  29
ENDBRANCH  12  27
TORSDOF 6
