REMARK  0 active torsions:
REMARK  status: ('A' for Active; 'I' for Inactive)
ROOT
HETATM    1  O1  UNK     1       2.580   1.525  -1.520  1.00  0.00    -0.322 OA
HETATM    2  O2  UNK     1      -0.588  -0.295   1.436  1.00  0.00    -0.274 OA
HETATM    3  O3  UNK     1      -2.127  -1.179   2.883  1.00  0.00    -0.260 OA
HETATM    4  C1  UNK     1       1.027   0.641  -0.139  1.00  0.00     0.034 A 
HETATM    5  C2  UNK     1      -0.215   0.032   0.110  1.00  0.00     0.102 A 
HETATM    6  C3  UNK     1      -1.083  -0.251  -0.951  1.00  0.00    -0.001 A 
HETATM    7  C4  UNK     1       1.349   0.943  -1.457  1.00  0.00     0.088 A 
HETATM    8  C5  UNK     1      -0.713   0.073  -2.262  1.00  0.00     0.017 A 
HETATM    9  C6  UNK     1       0.517   0.680  -2.545  1.00  0.00     0.039 A 
HETATM   10  C7  UNK     1       2.135   1.069   0.638  1.00  0.00     0.041 A 
HETATM   11  C8  UNK     1      -2.361  -0.882  -0.658  1.00  0.00     0.020 A 
HETATM   12  C9  UNK     1       3.047   1.596  -0.246  1.00  0.00     0.143 A 
HETATM   13  C10 UNK     1      -2.698  -1.183   0.598  1.00  0.00     0.083 A 
HETATM   14  C11 UNK     1      -1.805  -0.896   1.734  1.00  0.00     0.288 A 
ENDROOT
TORSDOF 0
