REMARK  4 active torsions:
REMARK  status: ('A' for Active; 'I' for Inactive)
REMARK    1  A    between atoms: C20_28  and  O4_4 
REMARK    2  A    between atoms: C4_12  and  N2_7 
REMARK    3  A    between atoms: C2_10  and  N3_8 
REMARK       I    between atoms: C7_15  and  N3_8 
REMARK    4  A    between atoms: C10_18  and  C7_15 
ROOT
HETATM    1  O3  UNK     1       0.650  -0.196   0.963  1.00  0.00    -0.267 OA
HETATM    2  N3  UNK     1      -0.177   0.232  -1.180  1.00  0.00    -0.316 N 
HETATM    3  C7  UNK     1      -0.275  -0.127   0.154  1.00  0.00     0.262 C 
HETATM    4  H7  UNK     1      -0.968   0.046  -1.790  1.00  0.00     0.169 HD
ENDROOT
BRANCH   2   5
HETATM    5  C2  UNK     1       0.985   0.565  -1.784  1.00  0.00     0.130 A 
HETATM    6  C1  UNK     1       1.370   0.419  -3.058  1.00  0.00     0.057 A 
HETATM    7  N1  UNK     1       2.674   0.875  -3.252  1.00  0.00    -0.289 N 
HETATM    8  C6  UNK     1       0.590  -0.191  -4.174  1.00  0.00     0.072 C 
HETATM    9  C5  UNK     1       3.626   0.104  -4.047  1.00  0.00     0.178 C 
HETATM   10  N2  UNK     1       3.112   1.426  -2.032  1.00  0.00    -0.217 N 
HETATM   11  C3  UNK     1       2.122   1.200  -1.068  1.00  0.00     0.295 A 
HETATM   12  O1  UNK     1       2.081   1.505   0.113  1.00  0.00    -0.264 OA
BRANCH  10  13
HETATM   13  C4  UNK     1       4.199   2.330  -1.931  1.00  0.00     0.060 A 
HETATM   14  C8  UNK     1       4.752   2.628  -0.682  1.00  0.00     0.031 A 
HETATM   15  C14 UNK     1       5.822   3.518  -0.582  1.00  0.00     0.002 A 
HETATM   16  C18 UNK     1       6.344   4.113  -1.731  1.00  0.00     0.000 A 
HETATM   17  C15 UNK     1       5.796   3.819  -2.979  1.00  0.00     0.002 A 
HETATM   18  C9  UNK     1       4.726   2.929  -3.079  1.00  0.00     0.031 A 
ENDBRANCH  10  13
ENDBRANCH   2   5
BRANCH   3  19
HETATM   19  C10 UNK     1      -1.650  -0.441   0.559  1.00  0.00     0.108 A 
HETATM   20  C12 UNK     1      -1.788  -1.342   1.539  1.00  0.00     0.037 A 
HETATM   21  C11 UNK     1      -3.112  -1.719   2.008  1.00  0.00     0.002 A 
HETATM   22  C13 UNK     1      -4.227  -1.129   1.422  1.00  0.00     0.089 A 
HETATM   23  C17 UNK     1      -3.302  -2.655   3.028  1.00  0.00     0.051 A 
HETATM   24  O2  UNK     1      -4.076  -0.181   0.391  1.00  0.00    -0.274 OA
HETATM   25  C19 UNK     1      -5.523  -1.446   1.825  1.00  0.00     0.041 A 
HETATM   26  C16 UNK     1      -2.822   0.200  -0.079  1.00  0.00     0.304 A 
HETATM   27  O5  UNK     1      -2.700   1.025  -0.978  1.00  0.00    -0.259 OA
HETATM   28  C21 UNK     1      -5.704  -2.380   2.842  1.00  0.00     0.039 A 
HETATM   29  C20 UNK     1      -4.596  -2.983   3.443  1.00  0.00     0.069 A 
BRANCH  29  30
HETATM   30  O4  UNK     1      -4.778  -3.895   4.438  1.00  0.00    -0.356 OA
HETATM   31  C22 UNK     1      -6.123  -4.185   4.814  1.00  0.00     0.210 C 
ENDBRANCH  29  30
ENDBRANCH   3  19
TORSDOF 4
