REMARK  6 active torsions:
REMARK  status: ('A' for Active; 'I' for Inactive)
REMARK    1  A    between atoms: C1_7  and  O1_4 
REMARK    2  A    between atoms: C4_10  and  O1_4 
REMARK    3  A    between atoms: C3_9  and  O2_5 
REMARK    4  A    between atoms: C2_8  and  C9_15 
REMARK    5  A    between atoms: C4_10  and  C6_12 
REMARK    6  A    between atoms: C10_16  and  C11_17 
ROOT
HETATM    1  N1  UNK     1       2.799  -1.142  -0.728  1.00  0.00    -0.191 NA
HETATM    2  C9  UNK     1       1.476   2.007  -1.205  1.00  0.00     0.036 C 
HETATM    3  C10 UNK     1       2.658   1.365  -1.405  1.00  0.00     0.055 C 
HETATM    4  C23 UNK     1       2.727  -0.023  -1.027  1.00  0.00     0.100 C 
ENDROOT
BRANCH   3   5
HETATM    5  C11 UNK     1       3.836   1.997  -1.978  1.00  0.00    -0.014 A 
HETATM    6  C16 UNK     1       4.033   1.982  -3.359  1.00  0.00     0.036 A 
HETATM    7  C19 UNK     1       5.162   2.590  -3.908  1.00  0.00     0.034 A 
HETATM    8  C21 UNK     1       6.094   3.212  -3.077  1.00  0.00     0.024 A 
HETATM    9 Cl2  UNK     1       5.407   2.574  -5.612  1.00  0.00    -0.084 Cl
HETATM   10  C20 UNK     1       5.896   3.226  -1.696  1.00  0.00     0.003 A 
HETATM   11  C17 UNK     1       4.768   2.619  -1.147  1.00  0.00     0.013 A 
ENDBRANCH   3   5
BRANCH   2  12
HETATM   12  C2  UNK     1       0.261   1.407  -0.636  1.00  0.00    -0.015 A 
HETATM   13  C5  UNK     1       0.111   1.466   0.745  1.00  0.00     0.052 A 
HETATM   14  C3  UNK     1      -1.023   0.913   1.338  1.00  0.00     0.102 A 
HETATM   15  C1  UNK     1      -1.998   0.305   0.548  1.00  0.00     0.103 A 
HETATM   16  C7  UNK     1      -1.839   0.251  -0.837  1.00  0.00     0.059 A 
HETATM   17  C8  UNK     1      -0.705   0.804  -1.431  1.00  0.00     0.024 A 
HETATM   18 Br1  UNK     1      -0.551   0.696  -3.322  1.00  0.00    -0.050 Br
BRANCH  14  19
HETATM   19  O2  UNK     1      -1.167   0.971   2.692  1.00  0.00    -0.353 OA
HETATM   20  C22 UNK     1      -0.634  -0.113   3.448  1.00  0.00     0.210 C 
ENDBRANCH  14  19
BRANCH  15  21
HETATM   21  O1  UNK     1      -3.110  -0.239   1.116  1.00  0.00    -0.344 OA
BRANCH  21  22
HETATM   22  C4  UNK     1      -3.702  -1.351   0.448  1.00  0.00     0.216 C 
BRANCH  22  23
HETATM   23  C6  UNK     1      -4.391  -2.220   1.459  1.00  0.00    -0.012 A 
HETATM   24  C12 UNK     1      -3.722  -3.262   2.096  1.00  0.00     0.042 A 
HETATM   25  C14 UNK     1      -4.396  -4.048   3.031  1.00  0.00     0.024 A 
HETATM   26 Cl1  UNK     1      -2.066  -3.611   1.758  1.00  0.00    -0.084 Cl
HETATM   27  C18 UNK     1      -5.734  -3.790   3.325  1.00  0.00     0.002 A 
HETATM   28  C15 UNK     1      -6.400  -2.745   2.685  1.00  0.00     0.001 A 
HETATM   29  C13 UNK     1      -5.727  -1.958   1.750  1.00  0.00     0.011 A 
ENDBRANCH  22  23
ENDBRANCH  21  22
ENDBRANCH  15  21
ENDBRANCH   2  12
TORSDOF 6
