REMARK  2 active torsions:
REMARK  status: ('A' for Active; 'I' for Inactive)
REMARK    1  A    between atoms: C9_13  and  O2_3 
REMARK    2  A    between atoms: C2_6  and  C5_9 
ROOT
HETATM    1  O1  UNK     1       1.591   0.785   1.072  1.00  0.00    -0.321 OA
HETATM    2  O3  UNK     1      -1.207  -0.131  -1.753  1.00  0.00    -0.286 OA
HETATM    3  C1  UNK     1       0.924   0.741  -1.262  1.00  0.00     0.049 A 
HETATM    4  C2  UNK     1      -0.584  -0.158   0.545  1.00  0.00     0.048 A 
HETATM    5  C3  UNK     1       1.838   1.043  -0.253  1.00  0.00     0.091 A 
HETATM    6  C4  UNK     1      -0.365   0.123  -0.901  1.00  0.00     0.197 A 
HETATM    7  C6  UNK     1       1.229   1.028  -2.595  1.00  0.00     0.021 A 
HETATM    8  C7  UNK     1       3.061   1.633  -0.571  1.00  0.00     0.075 A 
HETATM    9  C8  UNK     1       0.396   0.189   1.393  1.00  0.00     0.159 A 
HETATM   10  C9  UNK     1       3.368   1.919  -1.901  1.00  0.00     0.070 A 
HETATM   11  C10 UNK     1       2.454   1.617  -2.911  1.00  0.00     0.038 A 
ENDROOT
BRANCH   4  12
HETATM   12  C5  UNK     1      -1.810  -0.808   1.035  1.00  0.00    -0.020 A 
HETATM   13  C11 UNK     1      -2.908  -0.036   1.419  1.00  0.00     0.014 A 
HETATM   14  C13 UNK     1      -4.070  -0.652   1.884  1.00  0.00     0.024 A 
HETATM   15  C15 UNK     1      -4.136  -2.043   1.966  1.00  0.00     0.034 A 
HETATM   16  C14 UNK     1      -3.041  -2.818   1.584  1.00  0.00     0.024 A 
HETATM   17 Cl1  UNK     1      -5.569  -2.804   2.541  1.00  0.00    -0.084 Cl
HETATM   18  C12 UNK     1      -1.879  -2.201   1.119  1.00  0.00     0.014 A 
ENDBRANCH   4  12
BRANCH  10  19
HETATM   19  O2  UNK     1       4.562   2.493  -2.215  1.00  0.00    -0.356 OA
HETATM   20  C16 UNK     1       4.812   2.758  -3.594  1.00  0.00     0.210 C 
ENDBRANCH  10  19
TORSDOF 2
