REMARK  3 active torsions:
REMARK  status: ('A' for Active; 'I' for Inactive)
REMARK    1  A    between atoms: C4_9  and  O2_2 
REMARK    2  A    between atoms: C2_7  and  N1_5 
REMARK       I    between atoms: C8_13  and  N1_5 
REMARK    3  A    between atoms: C1_6  and  C8_13 
ROOT
HETATM    1  O3  UNK     1       1.413   1.683   0.563  1.00  0.00    -0.267 OA
HETATM    2  N1  UNK     1       0.032   0.316  -0.760  1.00  0.00    -0.323 N 
HETATM    3  C8  UNK     1       1.102   1.185  -0.514  1.00  0.00     0.259 C 
HETATM    4  H2  UNK     1      -0.079  -0.053  -1.701  1.00  0.00     0.169 HD
ENDROOT
BRANCH   2   5
HETATM    5  C2  UNK     1      -0.905  -0.173   0.151  1.00  0.00     0.035 A 
HETATM    6  C6  UNK     1      -1.912  -1.040  -0.283  1.00  0.00     0.043 A 
HETATM    7  C3  UNK     1      -2.851  -1.530   0.627  1.00  0.00     0.000 A 
HETATM    8  C14 UNK     1      -3.917  -2.434   0.230  1.00  0.00     0.020 A 
HETATM    9  C7  UNK     1      -2.764  -1.140   1.960  1.00  0.00     0.089 A 
HETATM   10  C16 UNK     1      -4.794  -2.878   1.134  1.00  0.00     0.083 A 
HETATM   11  C17 UNK     1      -4.722  -2.478   2.552  1.00  0.00     0.288 A 
HETATM   12  O1  UNK     1      -3.694  -1.612   2.909  1.00  0.00    -0.275 OA
HETATM   13  O4  UNK     1      -5.535  -2.894   3.371  1.00  0.00    -0.260 OA
HETATM   14  C11 UNK     1      -1.766  -0.276   2.407  1.00  0.00     0.040 A 
HETATM   15  C9  UNK     1      -0.833   0.208   1.493  1.00  0.00     0.032 A 
ENDBRANCH   2   5
BRANCH   3  16
HETATM   16  C1  UNK     1       1.915   1.548  -1.705  1.00  0.00     0.066 A 
HETATM   17  C4  UNK     1       3.256   1.840  -1.559  1.00  0.00     0.089 A 
HETATM   18  C5  UNK     1       3.999   2.178  -2.690  1.00  0.00    -0.028 A 
HETATM   19  C12 UNK     1       3.385   2.217  -3.942  1.00  0.00     0.009 A 
HETATM   20  C15 UNK     1       5.453   2.501  -2.581  1.00  0.00     0.051 C 
HETATM   21  C13 UNK     1       2.028   1.918  -4.063  1.00  0.00     0.002 A 
HETATM   22  C10 UNK     1       1.285   1.580  -2.933  1.00  0.00     0.020 A 
BRANCH  17  23
HETATM   23  O2  UNK     1       3.859   1.802  -0.336  1.00  0.00    -0.354 OA
HETATM   24  C18 UNK     1       4.430   0.559   0.064  1.00  0.00     0.210 C 
ENDBRANCH  17  23
ENDBRANCH   3  16
TORSDOF 3
