REMARK  4 active torsions:
REMARK  status: ('A' for Active; 'I' for Inactive)
REMARK    1  A    between atoms: C12_16  and  O1_3 
REMARK    2  A    between atoms: C8_12  and  O1_3 
REMARK    3  A    between atoms: C5_9  and  C6_10 
REMARK    4  A    between atoms: C12_16  and  C13_17 
ROOT
HETATM    1  C5  UNK     1       0.217  -0.074   2.057  1.00  0.00    -0.035 A 
HETATM    2  C8  UNK     1       0.444  -2.810   1.459  1.00  0.00     0.069 A 
HETATM    3  C10 UNK     1      -0.896  -0.926   2.156  1.00  0.00     0.014 A 
HETATM    4  C11 UNK     1       1.447  -0.621   1.652  1.00  0.00     0.014 A 
HETATM    5  C14 UNK     1      -0.784  -2.284   1.859  1.00  0.00     0.037 A 
HETATM    6  C15 UNK     1       1.559  -1.979   1.355  1.00  0.00     0.037 A 
ENDROOT
BRANCH   1   7
HETATM    7  C6  UNK     1       0.102   1.322   2.362  1.00  0.00     0.034 C 
HETATM    8  C2  UNK     1      -0.244   2.265   1.484  1.00  0.00     0.057 A 
HETATM    9  S1  UNK     1      -0.618   1.982  -0.184  1.00  0.00    -0.086 SA
HETATM   10  C4  UNK     1      -0.350   3.703   1.852  1.00  0.00     0.200 A 
HETATM   11  C3  UNK     1      -0.922   3.708  -0.460  1.00  0.00     0.020 A 
HETATM   12  C1  UNK     1      -0.749   4.492   0.679  1.00  0.00     0.032 A 
HETATM   13  C9  UNK     1      -1.300   4.296  -1.658  1.00  0.00     0.020 A 
HETATM   14  C7  UNK     1      -0.943   5.865   0.662  1.00  0.00     0.017 A 
HETATM   15  C16 UNK     1      -1.323   6.458  -0.542  1.00  0.00     0.001 A 
HETATM   16  C17 UNK     1      -1.500   5.679  -1.695  1.00  0.00     0.001 A 
HETATM   17  O2  UNK     1      -0.141   4.177   2.953  1.00  0.00    -0.286 OA
ENDBRANCH   1   7
BRANCH   2  18
HETATM   18  O1  UNK     1       0.554  -4.136   1.169  1.00  0.00    -0.347 OA
BRANCH  18  19
HETATM   19  C12 UNK     1       1.839  -4.608   0.766  1.00  0.00     0.216 C 
BRANCH  19  20
HETATM   20  C13 UNK     1       1.748  -6.075   0.463  1.00  0.00    -0.012 A 
HETATM   21  C18 UNK     1       1.968  -7.034   1.447  1.00  0.00     0.042 A 
HETATM   22 Cl1  UNK     1       2.356  -6.590   3.069  1.00  0.00    -0.084 Cl
HETATM   23  C20 UNK     1       1.875  -8.389   1.128  1.00  0.00     0.024 A 
HETATM   24  C22 UNK     1       1.563  -8.779  -0.174  1.00  0.00     0.002 A 
HETATM   25  C21 UNK     1       1.343  -7.814  -1.157  1.00  0.00     0.001 A 
HETATM   26  C19 UNK     1       1.436  -6.459  -0.838  1.00  0.00     0.011 A 
ENDBRANCH  19  20
ENDBRANCH  18  19
ENDBRANCH   2  18
TORSDOF 4
