REMARK  4 active torsions:
REMARK  status: ('A' for Active; 'I' for Inactive)
REMARK       I    between atoms: C6_13  and  N1_6 
REMARK       I    between atoms: C14_21  and  N2_7 
REMARK    1  A    between atoms: C9_16  and  N2_7 
REMARK    2  A    between atoms: C6_13  and  C7_14 
REMARK    3  A    between atoms: C11_18  and  C8_15 
REMARK    4  A    between atoms: C14_21  and  C15_22 
ROOT
HETATM    1  S1  UNK     1       2.007   1.685   1.780  1.00  0.00    -0.076 SA
HETATM    2  C7  UNK     1       2.350   0.863  -0.632  1.00  0.00     0.073 A 
HETATM    3  C8  UNK     1       3.509   1.627  -0.303  1.00  0.00    -0.027 A 
HETATM    4  C9  UNK     1       1.452   0.814   0.414  1.00  0.00     0.093 A 
HETATM    5  C10 UNK     1       3.452   2.131   0.977  1.00  0.00    -0.012 A 
HETATM    6  C12 UNK     1       4.443   2.966   1.692  1.00  0.00     0.057 C 
ENDROOT
BRANCH   4   7
HETATM    7  N2  UNK     1       0.233   0.203   0.530  1.00  0.00    -0.316 N 
HETATM    8  C14 UNK     1      -0.607   0.217   1.651  1.00  0.00     0.262 C 
HETATM    9  O3  UNK     1      -0.427   0.766   2.731  1.00  0.00    -0.267 OA
HETATM   10  H13 UNK     1      -0.058  -0.319  -0.293  1.00  0.00     0.169 HD
BRANCH   8  11
HETATM   11  C15 UNK     1      -1.853  -0.549   1.433  1.00  0.00     0.108 A 
HETATM   12  C16 UNK     1      -2.396  -1.116   2.516  1.00  0.00     0.037 A 
HETATM   13  C17 UNK     1      -3.622  -1.891   2.402  1.00  0.00    -0.001 A 
HETATM   14  C19 UNK     1      -4.216  -2.030   1.152  1.00  0.00     0.089 A 
HETATM   15  C20 UNK     1      -4.223  -2.500   3.505  1.00  0.00     0.014 A 
HETATM   16  O2  UNK     1      -3.640  -1.430   0.015  1.00  0.00    -0.274 OA
HETATM   17  C21 UNK     1      -5.390  -2.759   0.974  1.00  0.00     0.038 A 
HETATM   18  C18 UNK     1      -2.468  -0.683   0.093  1.00  0.00     0.304 A 
HETATM   19  O4  UNK     1      -1.973  -0.165  -0.903  1.00  0.00    -0.259 OA
HETATM   20  C23 UNK     1      -5.983  -3.364   2.080  1.00  0.00     0.003 A 
HETATM   21  C22 UNK     1      -5.401  -3.235   3.343  1.00  0.00     0.001 A 
ENDBRANCH   8  11
ENDBRANCH   4   7
BRANCH   2  22
HETATM   22  C6  UNK     1       2.106   0.198  -1.906  1.00  0.00     0.257 C 
HETATM   23  O1  UNK     1       2.489  -0.962  -2.061  1.00  0.00    -0.267 OA
HETATM   24  N1  UNK     1       1.442   0.935  -2.899  1.00  0.00    -0.348 N 
HETATM   25  C4  UNK     1       0.892   2.289  -2.740  1.00  0.00     0.126 C 
HETATM   26  C5  UNK     1       1.175   0.321  -4.201  1.00  0.00     0.126 C 
HETATM   27  C2  UNK     1       1.419   3.214  -3.833  1.00  0.00     0.020 C 
HETATM   28  C1  UNK     1       1.155   2.629  -5.221  1.00  0.00     0.003 C 
HETATM   29  C3  UNK     1       1.698   1.205  -5.331  1.00  0.00     0.020 C 
ENDBRANCH   2  22
BRANCH   3  30
HETATM   30  C11 UNK     1       4.644   1.853  -1.232  1.00  0.00     0.036 C 
HETATM   31  C13 UNK     1       5.728   0.782  -1.121  1.00  0.00     0.010 C 
ENDBRANCH   3  30
TORSDOF 4
