REMARK  3 active torsions:
REMARK  status: ('A' for Active; 'I' for Inactive)
REMARK    1  A    between atoms: C17_23  and  O3_4 
REMARK    2  A    between atoms: C21_27  and  O3_4 
REMARK       I    between atoms: C7_13  and  N1_6 
REMARK    3  A    between atoms: C10_16  and  C7_13 
ROOT
HETATM    1  O2  UNK     1      -1.394  -1.877   1.395  1.00  0.00    -0.271 OA
HETATM    2  O4  UNK     1       0.871  -1.875   1.097  1.00  0.00    -0.259 OA
HETATM    3  C10 UNK     1      -0.413  -0.703  -0.513  1.00  0.00     0.108 A 
HETATM    4  C13 UNK     1      -1.624  -0.321  -0.935  1.00  0.00     0.037 A 
HETATM    5  C14 UNK     1      -2.815  -0.708  -0.195  1.00  0.00     0.002 A 
HETATM    6  C15 UNK     1      -0.237  -1.522   0.707  1.00  0.00     0.304 A 
HETATM    7  C16 UNK     1      -2.671  -1.478   0.955  1.00  0.00     0.123 A 
HETATM    8  C17 UNK     1      -3.771  -1.882   1.709  1.00  0.00     0.103 A 
HETATM    9  C18 UNK     1      -4.098  -0.332  -0.599  1.00  0.00     0.014 A 
HETATM   10  C19 UNK     1      -5.048  -1.503   1.299  1.00  0.00     0.040 A 
HETATM   11  C20 UNK     1      -5.211  -0.730   0.148  1.00  0.00     0.004 A 
ENDROOT
BRANCH   3  12
HETATM   12  C7  UNK     1       0.736  -0.260  -1.335  1.00  0.00     0.264 C 
HETATM   13  O1  UNK     1       1.098  -1.027  -2.228  1.00  0.00    -0.267 OA
HETATM   14  N1  UNK     1       1.325   0.975  -1.007  1.00  0.00    -0.309 N 
HETATM   15  C1  UNK     1       0.812   1.833   0.094  1.00  0.00     0.089 C 
HETATM   16  C5  UNK     1       2.511   1.454  -1.694  1.00  0.00     0.044 A 
HETATM   17  C2  UNK     1       1.960   2.335   0.971  1.00  0.00     0.030 C 
HETATM   18  C6  UNK     1      -0.067   2.966  -0.448  1.00  0.00     0.033 C 
HETATM   19  C3  UNK     1       2.949   3.157   0.168  1.00  0.00     0.043 C 
HETATM   20  C4  UNK     1       3.295   2.492  -1.138  1.00  0.00    -0.028 A 
HETATM   21  C8  UNK     1       4.431   2.965  -1.821  1.00  0.00     0.051 A 
HETATM   22  C11 UNK     1       4.806   2.423  -3.045  1.00  0.00     0.117 A 
HETATM   23  F1  UNK     1       5.889   2.882  -3.683  1.00  0.00    -0.206 F 
HETATM   24  C12 UNK     1       4.038   1.413  -3.607  1.00  0.00     0.044 A 
HETATM   25  C9  UNK     1       2.901   0.940  -2.944  1.00  0.00     0.033 A 
ENDBRANCH   3  12
BRANCH   8  26
HETATM   26  O3  UNK     1      -3.616  -2.636   2.830  1.00  0.00    -0.349 OA
BRANCH  26  27
HETATM   27  C21 UNK     1      -4.588  -2.473   3.863  1.00  0.00     0.171 C 
HETATM   28  C22 UNK     1      -3.939  -2.758   5.200  1.00  0.00     0.034 C 
ENDBRANCH  26  27
ENDBRANCH   8  26
TORSDOF 3
