REMARK  2 active torsions:
REMARK  status: ('A' for Active; 'I' for Inactive)
REMARK    1  A    between atoms: C3_9  and  N1_6 
REMARK    2  A    between atoms: C4_10  and  C9_15 
ROOT
HETATM    1  O1  UNK     1      -1.292  -0.146  -2.018  1.00  0.00    -0.275 OA
HETATM    2  O2  UNK     1      -3.382  -1.058  -2.193  1.00  0.00    -0.260 OA
HETATM    3  C1  UNK     1      -0.235   0.007   0.179  1.00  0.00     0.013 A 
HETATM    4  C2  UNK     1      -0.206   0.223  -1.199  1.00  0.00     0.092 A 
HETATM    5  C3  UNK     1       1.991   1.193  -1.083  1.00  0.00     0.032 A 
HETATM    6  C4  UNK     1      -1.428  -0.616   0.768  1.00  0.00     0.066 A 
HETATM    7  C5  UNK     1       0.888   0.809  -1.839  1.00  0.00     0.067 A 
HETATM    8  C6  UNK     1       0.885   0.401   0.923  1.00  0.00     0.017 A 
HETATM    9  C7  UNK     1       1.989   0.990   0.295  1.00  0.00     0.030 A 
HETATM   10  C8  UNK     1      -2.447  -0.956  -0.034  1.00  0.00     0.099 A 
HETATM   11  C10 UNK     1      -2.430  -0.735  -1.490  1.00  0.00     0.289 A 
ENDROOT
BRANCH   6  12
HETATM   12  C9  UNK     1      -1.491  -0.861   2.248  1.00  0.00     0.418 C 
HETATM   13  F1  UNK     1      -0.362  -0.442   2.851  1.00  0.00    -0.166 F 
HETATM   14  F2  UNK     1      -2.528  -0.202   2.801  1.00  0.00    -0.166 F 
HETATM   15  F3  UNK     1      -1.643  -2.173   2.514  1.00  0.00    -0.166 F 
ENDBRANCH   6  12
BRANCH   5  16
HETATM   16  N1  UNK     1       3.106   1.786  -1.709  1.00  0.00    -0.389 N 
HETATM   17  C11 UNK     1       3.929   2.739  -1.001  1.00  0.00     0.149 C 
HETATM   18  C12 UNK     1       3.455   1.449  -3.070  1.00  0.00     0.149 C 
ENDBRANCH   5  16
TORSDOF 2
