REMARK  5 active torsions:
REMARK  status: ('A' for Active; 'I' for Inactive)
REMARK       I    between atoms: C11_18  and  N1_6 
REMARK    1  A    between atoms: C3_10  and  N1_6 
REMARK    2  A    between atoms: C18_25  and  N2_7 
REMARK    3  A    between atoms: C10_17  and  C7_14 
REMARK    4  A    between atoms: C11_18  and  C7_14 
REMARK    5  A    between atoms: C12_19  and  C13_20 
ROOT
HETATM    1  C7  UNK     1       0.216   0.732  -0.968  1.00  0.00     0.043 C 
HETATM    2  C12 UNK     1       0.569   1.230  -2.172  1.00  0.00     0.029 C 
ENDROOT
BRANCH   1   3
HETATM    3  C10 UNK     1       1.059   0.886   0.234  1.00  0.00    -0.021 A 
HETATM    4  C14 UNK     1       0.881   1.992   1.047  1.00  0.00     0.012 A 
HETATM    5  C19 UNK     1       1.678   2.138   2.183  1.00  0.00     0.001 A 
HETATM    6  C23 UNK     1       2.640   1.175   2.488  1.00  0.00     0.000 A 
HETATM    7  C20 UNK     1       2.805   0.066   1.657  1.00  0.00     0.001 A 
HETATM    8  C15 UNK     1       2.009  -0.079   0.521  1.00  0.00     0.012 A 
ENDBRANCH   1   3
BRANCH   1   9
HETATM    9  C11 UNK     1      -1.123   0.030  -0.912  1.00  0.00     0.257 C 
HETATM   10  O3  UNK     1      -1.802  -0.090  -1.928  1.00  0.00    -0.267 OA
HETATM   11  N1  UNK     1      -1.459  -0.441   0.365  1.00  0.00    -0.323 N 
HETATM   12  H8  UNK     1      -0.803  -0.279   1.124  1.00  0.00     0.169 HD
BRANCH  11  13
HETATM   13  C3  UNK     1      -2.611  -1.125   0.757  1.00  0.00     0.037 A 
HETATM   14  C6  UNK     1      -2.773  -1.512   2.087  1.00  0.00     0.069 A 
HETATM   15  C1  UNK     1      -3.930  -2.188   2.476  1.00  0.00     0.104 A 
HETATM   16  O1  UNK     1      -4.042  -2.523   3.800  1.00  0.00    -0.346 OA
HETATM   17  C2  UNK     1      -4.909  -2.502   1.530  1.00  0.00     0.102 A 
HETATM   18  C4  UNK     1      -5.381  -2.887   4.147  1.00  0.00     0.202 C 
HETATM   19  C5  UNK     1      -5.950  -3.841   3.115  1.00  0.00     0.202 C 
HETATM   20  O2  UNK     1      -6.050  -3.192   1.844  1.00  0.00    -0.346 OA
HETATM   21  C8  UNK     1      -4.751  -2.103   0.203  1.00  0.00     0.042 A 
HETATM   22  C9  UNK     1      -3.600  -1.415  -0.183  1.00  0.00     0.032 A 
ENDBRANCH  11  13
ENDBRANCH   1   9
BRANCH   2  23
HETATM   23  C13 UNK     1       1.793   1.988  -2.469  1.00  0.00    -0.033 A 
HETATM   24  C16 UNK     1       2.941   1.309  -2.848  1.00  0.00     0.047 A 
HETATM   25  C18 UNK     1       4.102   2.029  -3.131  1.00  0.00     0.103 A 
HETATM   26  C22 UNK     1       4.101   3.420  -3.032  1.00  0.00     0.036 A 
HETATM   27  C21 UNK     1       2.939   4.092  -2.649  1.00  0.00     0.003 A 
HETATM   28  C17 UNK     1       1.779   3.371  -2.367  1.00  0.00     0.011 A 
BRANCH  25  29
HETATM   29  N2  UNK     1       5.285   1.347  -3.520  1.00  0.00    -0.116 N 
HETATM   30  O4  UNK     1       6.317   2.014  -3.770  1.00  0.00    -0.532 OA
HETATM   31  O5  UNK     1       5.265   0.095  -3.603  1.00  0.00    -0.532 OA
ENDBRANCH  25  29
ENDBRANCH   2  23
TORSDOF 5
