REMARK  1 active torsions:
REMARK  status: ('A' for Active; 'I' for Inactive)
REMARK    1  A    between atoms: C10_16  and  C13_19 
ROOT
HETATM    1  N2  UNK     1      -4.506  -3.296   3.359  1.00  0.00    -0.197 NA
HETATM    2  C13 UNK     1      -4.374  -2.551   0.831  1.00  0.00     0.190 C 
HETATM    3  C14 UNK     1      -4.454  -2.974   2.245  1.00  0.00     0.065 C 
ENDROOT
BRANCH   2   4
HETATM    4  C10 UNK     1      -3.416  -1.438   0.657  1.00  0.00     0.088 A 
HETATM    5  S1  UNK     1      -1.771  -1.797   0.325  1.00  0.00    -0.071 SA
HETATM    6  C5  UNK     1      -1.435  -0.114   0.282  1.00  0.00     0.040 A 
HETATM    7  C2  UNK     1      -0.109   0.358   0.026  1.00  0.00     0.059 A 
HETATM    8  C9  UNK     1      -2.597   0.593   0.523  1.00  0.00     0.137 A 
HETATM    9  C3  UNK     1       0.272   0.591  -1.239  1.00  0.00     0.033 A 
HETATM   10  C6  UNK     1       0.823   0.589   1.163  1.00  0.00     0.300 A 
HETATM   11  C1  UNK     1       1.609   1.079  -1.536  1.00  0.00     0.000 A 
HETATM   12  C4  UNK     1       2.489   1.306  -0.484  1.00  0.00     0.089 A 
HETATM   13  C7  UNK     1       2.039   1.329  -2.841  1.00  0.00     0.033 A 
HETATM   14  O1  UNK     1       2.092   1.065   0.845  1.00  0.00    -0.274 OA
HETATM   15  C8  UNK     1       3.784   1.775  -0.699  1.00  0.00     0.039 A 
HETATM   16  C12 UNK     1       4.205   2.022  -2.004  1.00  0.00     0.022 A 
HETATM   17  C11 UNK     1       3.334   1.799  -3.073  1.00  0.00     0.011 A 
HETATM   18 Br1  UNK     1       3.911   2.136  -4.842  1.00  0.00    -0.051 Br
HETATM   19  O2  UNK     1       0.503   0.369   2.327  1.00  0.00    -0.259 OA
HETATM   20  N1  UNK     1      -3.733  -0.164   0.738  1.00  0.00    -0.256 NA
ENDBRANCH   2   4
TORSDOF 1
