REMARK  3 active torsions:
REMARK  status: ('A' for Active; 'I' for Inactive)
REMARK    1  A    between atoms: C5_10  and  N1_4 
REMARK    2  A    between atoms: C6_11  and  N2_5 
REMARK    3  A    between atoms: C5_10  and  C7_12 
ROOT
HETATM    1  N1  UNK     1      -0.432   1.096   0.151  1.00  0.00     0.095 N 
HETATM    2  N2  UNK     1       2.000   1.625  -1.252  1.00  0.00    -0.377 N 
HETATM    3  C1  UNK     1       0.823   0.462   0.573  1.00  0.00     0.292 C 
HETATM    4  C2  UNK     1      -0.159   2.436  -0.382  1.00  0.00     0.292 C 
HETATM    5  C3  UNK     1       1.794   0.326  -0.602  1.00  0.00     0.153 C 
HETATM    6  C4  UNK     1       0.778   2.366  -1.590  1.00  0.00     0.153 C 
ENDROOT
BRANCH   1   7
HETATM    7  C5  UNK     1      -1.371   1.170   1.270  1.00  0.00     0.312 C 
BRANCH   7   8
HETATM    8  C7  UNK     1      -1.704  -0.193   1.807  1.00  0.00    -0.011 A 
HETATM    9  C11 UNK     1      -0.938  -0.685   2.792  1.00  0.00     0.092 A 
HETATM   10  C19 UNK     1      -1.166  -2.005   3.403  1.00  0.00     0.288 A 
HETATM   11  O1  UNK     1      -2.231  -2.744   2.911  1.00  0.00    -0.275 OA
HETATM   12  O2  UNK     1      -0.444  -2.422   4.302  1.00  0.00    -0.260 OA
HETATM   13  C12 UNK     1      -3.053  -2.253   1.877  1.00  0.00     0.091 A 
HETATM   14  C8  UNK     1      -2.825  -1.000   1.307  1.00  0.00     0.012 A 
HETATM   15  C16 UNK     1      -4.096  -3.083   1.461  1.00  0.00     0.045 A 
HETATM   16  C13 UNK     1      -3.687  -0.585   0.283  1.00  0.00    -0.048 A 
HETATM   17  C17 UNK     1      -4.737  -1.406  -0.145  1.00  0.00     0.014 A 
HETATM   18  C22 UNK     1      -3.587   0.722  -0.437  1.00  0.00     0.049 C 
HETATM   19  C20 UNK     1      -4.941  -2.653   0.443  1.00  0.00    -0.059 A 
HETATM   20  C23 UNK     1      -6.060  -3.523  -0.018  1.00  0.00     0.048 C 
ENDBRANCH   7   8
ENDBRANCH   1   7
BRANCH   2  21
HETATM   21  C6  UNK     1       3.136   1.833  -2.042  1.00  0.00     0.037 A 
HETATM   22  C10 UNK     1       3.346   1.025  -3.160  1.00  0.00     0.053 A 
HETATM   23  C18 UNK     1       4.473   1.219  -3.958  1.00  0.00     0.036 A 
HETATM   24 Cl1  UNK     1       4.733   0.223  -5.337  1.00  0.00    -0.084 Cl
HETATM   25  C21 UNK     1       5.390   2.220  -3.639  1.00  0.00     0.024 A 
HETATM   26  C14 UNK     1       5.180   3.028  -2.521  1.00  0.00     0.011 A 
HETATM   27  C9  UNK     1       4.053   2.835  -1.723  1.00  0.00    -0.035 A 
HETATM   28  C15 UNK     1       3.853   3.714  -0.532  1.00  0.00     0.050 C 
ENDBRANCH   2  21
TORSDOF 3
