REMARK  6 active torsions:
REMARK  status: ('A' for Active; 'I' for Inactive)
REMARK    1  A    between atoms: C6_10  and  O1_1 
REMARK    2  A    between atoms: C3_7  and  O2_2 
REMARK    3  A    between atoms: C13_17  and  O3_3 
REMARK    4  A    between atoms: C1_5  and  C5_9 
REMARK    5  A    between atoms: C2_6  and  C8_12 
REMARK    6  A    between atoms: C10_14  and  C5_9 
ROOT
HETATM    1  O4  UNK     1       0.203  -0.588   0.473  1.00  0.00    -0.287 OA
HETATM    2  C5  UNK     1       0.237  -0.244  -0.703  1.00  0.00     0.184 C 
ENDROOT
BRANCH   2   3
HETATM    3  C1  UNK     1       1.230   0.765  -1.146  1.00  0.00     0.047 A 
HETATM    4  C3  UNK     1       2.453   0.902  -0.489  1.00  0.00     0.082 A 
HETATM    5  C7  UNK     1       3.373   1.857  -0.921  1.00  0.00     0.074 A 
HETATM    6  C6  UNK     1       3.071   2.675  -2.010  1.00  0.00     0.070 A 
HETATM    7  C9  UNK     1       1.848   2.538  -2.667  1.00  0.00     0.038 A 
HETATM    8  C4  UNK     1       0.927   1.583  -2.235  1.00  0.00     0.021 A 
BRANCH   4   9
HETATM    9  O2  UNK     1       2.767   0.111   0.575  1.00  0.00    -0.360 OA
HETATM   10  H10 UNK     1       2.087  -0.567   0.712  1.00  0.00     0.217 HD
ENDBRANCH   4   9
BRANCH   6  11
HETATM   11  O1  UNK     1       3.969   3.607  -2.431  1.00  0.00    -0.356 OA
HETATM   12  C16 UNK     1       3.594   4.410  -3.549  1.00  0.00     0.210 C 
ENDBRANCH   6  11
ENDBRANCH   2   3
BRANCH   2  13
HETATM   13  C10 UNK     1      -0.667  -0.824  -1.735  1.00  0.00     0.056 C 
HETATM   14  C8  UNK     1      -1.899  -1.263  -1.394  1.00  0.00     0.015 C 
BRANCH  14  15
HETATM   15  C2  UNK     1      -2.462  -1.225  -0.054  1.00  0.00    -0.036 A 
HETATM   16  C11 UNK     1      -2.614  -0.004   0.604  1.00  0.00     0.014 A 
HETATM   17  C14 UNK     1      -3.153   0.032   1.890  1.00  0.00     0.037 A 
HETATM   18  C13 UNK     1      -3.541  -1.152   2.518  1.00  0.00     0.068 A 
HETATM   19  C15 UNK     1      -3.388  -2.372   1.860  1.00  0.00     0.037 A 
HETATM   20  C12 UNK     1      -2.849  -2.409   0.574  1.00  0.00     0.014 A 
BRANCH  18  21
HETATM   21  O3  UNK     1      -4.067  -1.116   3.772  1.00  0.00    -0.356 OA
HETATM   22  C17 UNK     1      -4.195   0.165   4.387  1.00  0.00     0.210 C 
ENDBRANCH  18  21
ENDBRANCH  14  15
ENDBRANCH   2  13
TORSDOF 6
