REMARK  5 active torsions:
REMARK  status: ('A' for Active; 'I' for Inactive)
REMARK    1  A    between atoms: C11_16  and  O2_2 
REMARK    2  A    between atoms: C14_19  and  O2_2 
REMARK    3  A    between atoms: C12_17  and  O4_4 
REMARK    4  A    between atoms: C14_19  and  C15_20 
REMARK    5  A    between atoms: C15_20  and  C17_22 
ROOT
HETATM    1  O1  UNK     1      -2.127   0.272  -0.223  1.00  0.00    -0.271 OA
HETATM    2  O3  UNK     1      -4.148   0.037  -1.240  1.00  0.00    -0.259 OA
HETATM    3  C1  UNK     1      -3.129  -3.019   2.419  1.00  0.00     0.040 C 
HETATM    4  C2  UNK     1      -2.817  -1.855   1.503  1.00  0.00    -0.033 A 
HETATM    5  C3  UNK     1      -4.349  -3.840   1.998  1.00  0.00     0.005 C 
HETATM    6  C4  UNK     1      -5.489  -2.935   1.561  1.00  0.00     0.005 C 
HETATM    7  C5  UNK     1      -5.056  -2.061   0.386  1.00  0.00     0.045 C 
HETATM    8  C6  UNK     1      -3.689  -1.442   0.563  1.00  0.00     0.025 A 
HETATM    9  C7  UNK     1      -1.526  -1.164   1.651  1.00  0.00     0.008 A 
HETATM   10  C8  UNK     1      -1.221  -0.124   0.776  1.00  0.00     0.126 A 
HETATM   11  C9  UNK     1      -3.366  -0.332  -0.370  1.00  0.00     0.295 A 
HETATM   12  C10 UNK     1      -0.574  -1.481   2.631  1.00  0.00     0.018 A 
HETATM   13  C11 UNK     1      -0.018   0.584   0.843  1.00  0.00     0.138 A 
HETATM   14  C12 UNK     1       0.914   0.248   1.818  1.00  0.00     0.104 A 
HETATM   15  C13 UNK     1       0.636  -0.782   2.713  1.00  0.00     0.040 A 
ENDROOT
BRANCH  13  16
HETATM   16  O2  UNK     1       0.240   1.593  -0.034  1.00  0.00    -0.333 OA
BRANCH  16  17
HETATM   17  C14 UNK     1       0.897   1.243  -1.251  1.00  0.00     0.199 C 
HETATM   18  C16 UNK     1      -0.025   1.637  -2.393  1.00  0.00     0.048 C 
BRANCH  17  19
HETATM   19  C15 UNK     1       2.220   1.999  -1.313  1.00  0.00     0.188 C 
HETATM   20  O5  UNK     1       2.546   2.796  -0.435  1.00  0.00    -0.289 OA
BRANCH  19  21
HETATM   21  C17 UNK     1       3.149   1.771  -2.457  1.00  0.00     0.012 A 
HETATM   22  C19 UNK     1       3.158   0.537  -3.067  1.00  0.00     0.015 A 
HETATM   23  C21 UNK     1       4.026   0.325  -4.137  1.00  0.00     0.001 A 
HETATM   24  C23 UNK     1       4.863   1.354  -4.570  1.00  0.00     0.000 A 
HETATM   25  C22 UNK     1       4.832   2.594  -3.932  1.00  0.00     0.001 A 
HETATM   26  C20 UNK     1       3.963   2.805  -2.861  1.00  0.00     0.015 A 
ENDBRANCH  19  21
ENDBRANCH  17  19
ENDBRANCH  16  17
ENDBRANCH  13  16
BRANCH  14  27
HETATM   27  O4  UNK     1       2.096   0.918   1.911  1.00  0.00    -0.353 OA
HETATM   28  C18 UNK     1       2.125   2.069   2.754  1.00  0.00     0.210 C 
ENDBRANCH  14  27
TORSDOF 5
