REMARK  3 active torsions:
REMARK  status: ('A' for Active; 'I' for Inactive)
REMARK    1  A    between atoms: C5_12  and  N1_6 
REMARK       I    between atoms: C6_13  and  N1_6 
REMARK    2  A    between atoms: C14_21  and  N2_7 
REMARK    3  A    between atoms: C2_9  and  C6_13 
ROOT
HETATM    1  O2  UNK     1       0.831   0.863   1.837  1.00  0.00    -0.267 OA
HETATM    2  N1  UNK     1      -0.732  -0.149   0.394  1.00  0.00    -0.323 N 
HETATM    3  C6  UNK     1       0.409   0.573   0.719  1.00  0.00     0.262 C 
HETATM    4  H3  UNK     1      -0.930  -0.322  -0.588  1.00  0.00     0.169 HD
ENDROOT
BRANCH   3   5
HETATM    5  C2  UNK     1       1.149   1.005  -0.473  1.00  0.00     0.108 A 
HETATM    6  C4  UNK     1       2.474   1.130  -0.334  1.00  0.00     0.037 A 
HETATM    7  C1  UNK     1       3.293   1.553  -1.459  1.00  0.00    -0.001 A 
HETATM    8  C3  UNK     1       2.676   1.826  -2.676  1.00  0.00     0.089 A 
HETATM    9  C7  UNK     1       4.679   1.696  -1.359  1.00  0.00     0.014 A 
HETATM   10  O1  UNK     1       1.280   1.694  -2.816  1.00  0.00    -0.274 OA
HETATM   11  C9  UNK     1       3.402   2.236  -3.792  1.00  0.00     0.038 A 
HETATM   12  C8  UNK     1       0.471   1.290  -1.758  1.00  0.00     0.304 A 
HETATM   13  O3  UNK     1      -0.743   1.178  -1.889  1.00  0.00    -0.259 OA
HETATM   14  C13 UNK     1       4.784   2.376  -3.683  1.00  0.00     0.003 A 
HETATM   15  C11 UNK     1       5.421   2.106  -2.470  1.00  0.00     0.001 A 
ENDBRANCH   3   5
BRANCH   2  16
HETATM   16  C5  UNK     1      -1.676  -0.718   1.283  1.00  0.00     0.037 A 
HETATM   17  C10 UNK     1      -2.759  -1.409   0.768  1.00  0.00     0.065 A 
HETATM   18  C14 UNK     1      -3.688  -1.971   1.644  1.00  0.00     0.105 A 
HETATM   19  C16 UNK     1      -3.519  -1.833   3.022  1.00  0.00     0.036 A 
HETATM   20  C15 UNK     1      -2.422  -1.133   3.523  1.00  0.00     0.005 A 
HETATM   21  C12 UNK     1      -1.493  -0.572   2.647  1.00  0.00     0.029 A 
BRANCH  18  22
HETATM   22  N2  UNK     1      -4.805  -2.684   1.134  1.00  0.00    -0.116 N 
HETATM   23  O4  UNK     1      -5.628  -3.182   1.939  1.00  0.00    -0.532 OA
HETATM   24  O5  UNK     1      -4.939  -2.796  -0.109  1.00  0.00    -0.532 OA
ENDBRANCH  18  22
ENDBRANCH   2  16
TORSDOF 3
