REMARK  2 active torsions:
REMARK  status: ('A' for Active; 'I' for Inactive)
REMARK    1  A    between atoms: C17_19  and  O2_2 
REMARK    2  A    between atoms: C10_12  and  C7_9 
ROOT
HETATM    1  O1  UNK     1      -0.323   1.094   0.404  1.00  0.00    -0.287 OA
HETATM    2  C1  UNK     1       1.887   0.414  -3.046  1.00  0.00     0.044 C 
HETATM    3  C2  UNK     1       0.369   0.304  -3.130  1.00  0.00     0.047 C 
HETATM    4  C3  UNK     1       2.297   1.475  -2.059  1.00  0.00    -0.044 A 
HETATM    5  C4  UNK     1      -0.225   0.111  -1.768  1.00  0.00    -0.006 C 
HETATM    6  C5  UNK     1       1.523   1.739  -0.917  1.00  0.00     0.021 A 
HETATM    7  C6  UNK     1       0.268   0.986  -0.664  1.00  0.00     0.189 C 
HETATM    8  C7  UNK     1      -1.169  -0.800  -1.494  1.00  0.00     0.022 C 
HETATM    9  C8  UNK     1       3.497   2.175  -2.247  1.00  0.00     0.008 A 
HETATM   10  C9  UNK     1       1.939   2.703   0.009  1.00  0.00     0.016 A 
HETATM   11  C11 UNK     1       3.906   3.138  -1.324  1.00  0.00     0.001 A 
HETATM   12  C12 UNK     1       3.127   3.403  -0.200  1.00  0.00     0.001 A 
ENDROOT
BRANCH   8  13
HETATM   13  C10 UNK     1      -1.749  -1.002  -0.202  1.00  0.00    -0.035 A 
HETATM   14  C13 UNK     1      -1.164  -1.887   0.721  1.00  0.00     0.014 A 
HETATM   15  C15 UNK     1      -1.730  -2.083   1.981  1.00  0.00     0.037 A 
HETATM   16  C17 UNK     1      -2.891  -1.397   2.338  1.00  0.00     0.068 A 
HETATM   17  C16 UNK     1      -3.486  -0.516   1.436  1.00  0.00     0.037 A 
HETATM   18  C14 UNK     1      -2.920  -0.320   0.176  1.00  0.00     0.014 A 
BRANCH  16  19
HETATM   19  O2  UNK     1      -3.443  -1.589   3.567  1.00  0.00    -0.356 OA
HETATM   20  C18 UNK     1      -4.630  -0.856   3.868  1.00  0.00     0.210 C 
ENDBRANCH  16  19
ENDBRANCH   8  13
TORSDOF 2
