REMARK  3 active torsions:
REMARK  status: ('A' for Active; 'I' for Inactive)
REMARK    1  A    between atoms: N1_4  and  N2_5 
REMARK       I    between atoms: C13_19  and  N2_5 
REMARK    2  A    between atoms: C11_17  and  C7_13 
REMARK    3  A    between atoms: C12_18  and  C13_19 
ROOT
HETATM    1  O1  UNK     1      -1.613  -1.167   3.288  1.00  0.00    -0.321 OA
HETATM    2  O2  UNK     1      -1.827  -0.503  -0.735  1.00  0.00    -0.286 OA
HETATM    3  C1  UNK     1      -2.874  -1.327   1.216  1.00  0.00     0.049 A 
HETATM    4  C2  UNK     1      -2.739  -1.527   2.591  1.00  0.00     0.089 A 
HETATM    5  C3  UNK     1      -5.079  -2.303   1.286  1.00  0.00    -0.061 A 
HETATM    6  C4  UNK     1      -4.044  -1.715   0.559  1.00  0.00     0.025 A 
HETATM    7  C5  UNK     1      -1.764  -0.703   0.471  1.00  0.00     0.198 A 
HETATM    8  C6  UNK     1      -3.776  -2.116   3.315  1.00  0.00     0.039 A 
HETATM    9  C7  UNK     1      -0.575  -0.334   1.269  1.00  0.00     0.056 A 
HETATM   10  C8  UNK     1      -4.946  -2.504   2.661  1.00  0.00     0.009 A 
HETATM   11  C9  UNK     1      -0.586  -0.586   2.582  1.00  0.00     0.159 A 
HETATM   12  C10 UNK     1      -6.332  -2.720   0.592  1.00  0.00     0.048 C 
ENDROOT
BRANCH   9  13
HETATM   13  C11 UNK     1       0.618   0.295   0.701  1.00  0.00     0.156 C 
HETATM   14  N1  UNK     1       0.722   0.577  -0.557  1.00  0.00    -0.183 NA
BRANCH  14  15
HETATM   15  N2  UNK     1       1.899   1.155  -0.896  1.00  0.00    -0.243 N 
HETATM   16  C13 UNK     1       2.123   1.465  -2.225  1.00  0.00     0.271 C 
HETATM   17  O3  UNK     1       1.329   1.256  -3.138  1.00  0.00    -0.266 OA
HETATM   18  H9  UNK     1       2.585   1.284  -0.160  1.00  0.00     0.192 HD
BRANCH  16  19
HETATM   19  C12 UNK     1       3.442   2.077  -2.532  1.00  0.00     0.036 A 
HETATM   20  C14 UNK     1       3.979   1.908  -3.787  1.00  0.00     0.036 A 
HETATM   21  C16 UNK     1       5.210   2.498  -4.023  1.00  0.00     0.117 A 
HETATM   22  N3  UNK     1       5.895   3.214  -3.104  1.00  0.00    -0.273 NA
HETATM   23  C17 UNK     1       5.315   3.344  -1.890  1.00  0.00     0.117 A 
HETATM   24  C15 UNK     1       4.088   2.794  -1.553  1.00  0.00     0.036 A 
ENDBRANCH  16  19
ENDBRANCH  14  15
ENDBRANCH   9  13
TORSDOF 3
