REMARK  6 active torsions:
REMARK  status: ('A' for Active; 'I' for Inactive)
REMARK    1  A    between atoms: C1_7  and  O2_2 
REMARK    2  A    between atoms: C7_13  and  O3_3 
REMARK    3  A    between atoms: C12_18  and  O4_4 
REMARK    4  A    between atoms: C13_19  and  O5_5 
REMARK    5  A    between atoms: C15_21  and  O6_6 
REMARK    6  A    between atoms: C2_8  and  C6_12 
ROOT
HETATM    1  O1  UNK     1      -0.009   1.160   0.110  1.00  0.00    -0.338 OA
HETATM    2  C1  UNK     1      -0.347  -0.766  -1.393  1.00  0.00     0.156 C 
HETATM    3  C2  UNK     1      -0.990   0.352  -0.560  1.00  0.00     0.191 C 
HETATM    4  C3  UNK     1       0.563  -0.148  -2.451  1.00  0.00     0.079 C 
HETATM    5  C4  UNK     1       1.404   0.946  -1.867  1.00  0.00     0.011 A 
HETATM    6  C5  UNK     1       1.069   1.538  -0.645  1.00  0.00     0.081 A 
HETATM    7  C7  UNK     1       2.529   1.409  -2.564  1.00  0.00     0.077 A 
HETATM    8  C8  UNK     1       1.869   2.550  -0.109  1.00  0.00     0.074 A 
HETATM    9  C11 UNK     1       3.320   2.428  -2.033  1.00  0.00     0.073 A 
HETATM   10  C12 UNK     1       2.992   2.996  -0.804  1.00  0.00     0.071 A 
ENDROOT
BRANCH   3  11
HETATM   11  C6  UNK     1      -1.917  -0.199   0.507  1.00  0.00    -0.024 A 
HETATM   12  C10 UNK     1      -3.261   0.166   0.515  1.00  0.00     0.013 A 
HETATM   13  C14 UNK     1      -4.113  -0.341   1.496  1.00  0.00     0.040 A 
HETATM   14  C15 UNK     1      -3.619  -1.212   2.466  1.00  0.00     0.098 A 
HETATM   15  C13 UNK     1      -2.273  -1.576   2.457  1.00  0.00     0.099 A 
HETATM   16  C9  UNK     1      -1.420  -1.069   1.476  1.00  0.00     0.049 A 
BRANCH  14  17
HETATM   17  O6  UNK     1      -4.461  -1.699   3.420  1.00  0.00    -0.358 OA
HETATM   18  H14 UNK     1      -5.352  -1.340   3.270  1.00  0.00     0.217 HD
ENDBRANCH  14  17
BRANCH  15  19
HETATM   19  O5  UNK     1      -1.778  -2.425   3.400  1.00  0.00    -0.358 OA
HETATM   20  H13 UNK     1      -0.830  -2.564   3.236  1.00  0.00     0.217 HD
ENDBRANCH  15  19
ENDBRANCH   3  11
BRANCH   2  21
HETATM   21  O2  UNK     1      -1.358  -1.526  -2.046  1.00  0.00    -0.392 OA
HETATM   22  H7  UNK     1      -0.913  -2.211  -2.575  1.00  0.00     0.210 HD
ENDBRANCH   2  21
BRANCH   7  23
HETATM   23  O3  UNK     1       2.873   0.876  -3.771  1.00  0.00    -0.360 OA
HETATM   24  H11 UNK     1       3.674   1.320  -4.099  1.00  0.00     0.217 HD
ENDBRANCH   7  23
BRANCH  10  25
HETATM   25  O4  UNK     1       3.766   3.988  -0.284  1.00  0.00    -0.361 OA
HETATM   26  H12 UNK     1       3.392   4.264   0.571  1.00  0.00     0.217 HD
ENDBRANCH  10  25
TORSDOF 6
