REMARK  6 active torsions:
REMARK  status: ('A' for Active; 'I' for Inactive)
REMARK    1  A    between atoms: C10_18  and  O2_2 
REMARK    2  A    between atoms: C11_19  and  O3_3 
REMARK    3  A    between atoms: C12_20  and  O4_4 
REMARK       I    between atoms: C17_25  and  N1_7 
REMARK    4  A    between atoms: N1_7  and  N2_8 
REMARK    5  A    between atoms: C18_26  and  C7_15 
REMARK    6  A    between atoms: C17_25  and  C9_17 
ROOT
HETATM    1  O6  UNK     1      -0.226   0.921  -2.424  1.00  0.00    -0.266 OA
HETATM    2  N1  UNK     1       0.538   0.478  -0.284  1.00  0.00    -0.243 N 
HETATM    3  C17 UNK     1       0.662   0.957  -1.575  1.00  0.00     0.271 C 
HETATM    4  H11 UNK     1       1.297   0.460   0.390  1.00  0.00     0.192 HD
ENDROOT
BRANCH   2   5
HETATM    5  N2  UNK     1      -0.640  -0.074   0.091  1.00  0.00    -0.183 NA
HETATM    6  C18 UNK     1      -0.649  -0.523   1.305  1.00  0.00     0.156 C 
BRANCH   6   7
HETATM    7  C7  UNK     1      -1.826  -1.155   1.900  1.00  0.00     0.056 A 
HETATM    8  C15 UNK     1      -1.734  -1.586   3.163  1.00  0.00     0.159 A 
HETATM    9  O1  UNK     1      -2.730  -2.201   3.884  1.00  0.00    -0.321 OA
HETATM   10  C2  UNK     1      -3.938  -2.397   3.261  1.00  0.00     0.089 A 
HETATM   11  C1  UNK     1      -4.183  -2.000   1.945  1.00  0.00     0.049 A 
HETATM   12  C6  UNK     1      -4.943  -3.022   4.001  1.00  0.00     0.039 A 
HETATM   13  C4  UNK     1      -5.432  -2.226   1.363  1.00  0.00     0.025 A 
HETATM   14  C5  UNK     1      -3.106  -1.342   1.183  1.00  0.00     0.198 A 
HETATM   15  C3  UNK     1      -6.435  -2.851   2.105  1.00  0.00    -0.061 A 
HETATM   16  C16 UNK     1      -7.772  -3.097   1.491  1.00  0.00     0.048 C 
HETATM   17  C8  UNK     1      -6.191  -3.248   3.421  1.00  0.00     0.009 A 
HETATM   18  O5  UNK     1      -3.265  -0.973   0.027  1.00  0.00    -0.286 OA
ENDBRANCH   6   7
ENDBRANCH   2   5
BRANCH   3  19
HETATM   19  C9  UNK     1       1.986   1.529  -1.929  1.00  0.00     0.039 A 
HETATM   20  C13 UNK     1       2.391   1.505  -3.247  1.00  0.00     0.057 A 
HETATM   21  C11 UNK     1       3.635   2.041  -3.579  1.00  0.00     0.105 A 
HETATM   22  C10 UNK     1       4.446   2.589  -2.586  1.00  0.00     0.135 A 
HETATM   23  C12 UNK     1       4.013   2.601  -1.260  1.00  0.00     0.105 A 
HETATM   24  C14 UNK     1       2.769   2.065  -0.928  1.00  0.00     0.057 A 
BRANCH  21  25
HETATM   25  O3  UNK     1       4.047   2.021  -4.878  1.00  0.00    -0.353 OA
HETATM   26  C20 UNK     1       4.781   0.877  -5.308  1.00  0.00     0.210 C 
ENDBRANCH  21  25
BRANCH  22  27
HETATM   27  O2  UNK     1       5.663   3.113  -2.910  1.00  0.00    -0.351 OA
HETATM   28  C19 UNK     1       5.700   4.497  -3.251  1.00  0.00     0.210 C 
ENDBRANCH  22  27
BRANCH  23  29
HETATM   29  O4  UNK     1       4.795   3.134  -0.280  1.00  0.00    -0.353 OA
HETATM   30  C21 UNK     1       5.706   2.252   0.373  1.00  0.00     0.210 C 
ENDBRANCH  23  29
ENDBRANCH   3  19
TORSDOF 6
