REMARK  4 active torsions:
REMARK  status: ('A' for Active; 'I' for Inactive)
REMARK    1  A    between atoms: C11_13  and  O1_1 
REMARK    2  A    between atoms: C1_3  and  C8_10 
REMARK    3  A    between atoms: C3_5  and  C9_11 
REMARK    4  A    between atoms: C10_12  and  C9_11 
ROOT
HETATM    1  O2  UNK     1      -2.392  -0.563  -1.495  1.00  0.00    -0.287 OA
HETATM    2  C9  UNK     1      -1.711  -0.564  -0.476  1.00  0.00     0.184 C 
ENDROOT
BRANCH   2   3
HETATM    3  C10 UNK     1      -0.332  -0.001  -0.431  1.00  0.00     0.056 C 
HETATM    4  C8  UNK     1       0.221   0.538  -1.540  1.00  0.00     0.015 C 
BRANCH   4   5
HETATM    5  C1  UNK     1       1.561   1.100  -1.620  1.00  0.00    -0.036 A 
HETATM    6  C4  UNK     1       2.222   1.495  -0.457  1.00  0.00     0.012 A 
HETATM    7  C6  UNK     1       3.506   2.034  -0.534  1.00  0.00     0.007 A 
HETATM    8  C2  UNK     1       4.129   2.177  -1.774  1.00  0.00    -0.062 A 
HETATM    9  C13 UNK     1       5.503   2.753  -1.855  1.00  0.00     0.048 C 
HETATM   10  C7  UNK     1       3.468   1.782  -2.936  1.00  0.00     0.007 A 
HETATM   11  C5  UNK     1       2.184   1.244  -2.860  1.00  0.00     0.012 A 
ENDBRANCH   4   5
ENDBRANCH   2   3
BRANCH   2  12
HETATM   12  C3  UNK     1      -2.247  -1.172   0.766  1.00  0.00     0.047 A 
HETATM   13  C11 UNK     1      -2.940  -0.392   1.672  1.00  0.00     0.079 A 
HETATM   14  C14 UNK     1      -3.436  -0.983   2.834  1.00  0.00     0.037 A 
HETATM   15  C16 UNK     1      -3.229  -2.343   3.068  1.00  0.00     0.003 A 
HETATM   16  C15 UNK     1      -2.526  -3.111   2.140  1.00  0.00     0.001 A 
HETATM   17  C12 UNK     1      -2.030  -2.520   0.978  1.00  0.00     0.018 A 
BRANCH  13  18
HETATM   18  O1  UNK     1      -3.152   0.937   1.462  1.00  0.00    -0.360 OA
HETATM   19  H14 UNK     1      -3.655   1.301   2.210  1.00  0.00     0.217 HD
ENDBRANCH  13  18
ENDBRANCH   2  12
TORSDOF 4
