REMARK  1 active torsions:
REMARK  status: ('A' for Active; 'I' for Inactive)
REMARK    1  A    between atoms: C3_5  and  C8_10 
ROOT
HETATM    1  O1  UNK     1      -1.635  -0.277  -1.596  1.00  0.00    -0.340 OA
HETATM    2  O2  UNK     1      -0.525   0.235   1.833  1.00  0.00    -0.340 OA
HETATM    3  C1  UNK     1       0.362  -0.819  -0.218  1.00  0.00     0.058 C 
HETATM    4  C2  UNK     1      -1.052  -1.209  -0.672  1.00  0.00     0.172 C 
HETATM    5  C3  UNK     1       0.260   0.462   0.646  1.00  0.00     0.169 C 
HETATM    6  C4  UNK     1       1.257  -0.701  -1.455  1.00  0.00     0.051 C 
HETATM    7  C5  UNK     1      -1.968  -1.239   0.522  1.00  0.00     0.005 A 
HETATM    8  C6  UNK     1       0.579   0.048  -2.563  1.00  0.00    -0.024 A 
HETATM    9  C7  UNK     1      -1.662  -0.513   1.680  1.00  0.00     0.078 A 
HETATM   10  C9  UNK     1      -0.811   0.195  -2.581  1.00  0.00     0.076 A 
HETATM   11  C10 UNK     1      -3.158  -1.979   0.476  1.00  0.00     0.012 A 
HETATM   12  C11 UNK     1       1.336   0.577  -3.617  1.00  0.00     0.010 A 
HETATM   13  C12 UNK     1      -2.521  -0.551   2.781  1.00  0.00     0.037 A 
HETATM   14  C13 UNK     1      -1.432   0.893  -3.620  1.00  0.00     0.037 A 
HETATM   15  C16 UNK     1      -4.018  -2.008   1.574  1.00  0.00     0.001 A 
HETATM   16  C17 UNK     1      -3.698  -1.296   2.727  1.00  0.00     0.003 A 
HETATM   17  C18 UNK     1       0.714   1.265  -4.659  1.00  0.00     0.001 A 
HETATM   18  C19 UNK     1      -0.670   1.426  -4.658  1.00  0.00     0.003 A 
ENDROOT
BRANCH   5  19
HETATM   19  C8  UNK     1       1.605   0.977   1.119  1.00  0.00    -0.029 A 
HETATM   20  C14 UNK     1       2.131   0.535   2.332  1.00  0.00     0.010 A 
HETATM   21  C20 UNK     1       3.368   1.009   2.767  1.00  0.00     0.001 A 
HETATM   22  C22 UNK     1       4.077   1.924   1.990  1.00  0.00     0.000 A 
HETATM   23  C21 UNK     1       3.549   2.365   0.776  1.00  0.00     0.001 A 
HETATM   24  C15 UNK     1       2.312   1.891   0.340  1.00  0.00     0.010 A 
ENDBRANCH   5  19
TORSDOF 1
