REMARK  4 active torsions:
REMARK  status: ('A' for Active; 'I' for Inactive)
REMARK       I    between atoms: C10_22  and  N1_9 
REMARK    1  A    between atoms: C4_16  and  N1_9 
REMARK    2  A    between atoms: C11_23  and  N4_12 
REMARK    3  A    between atoms: C12_24  and  C3_15 
REMARK    4  A    between atoms: C10_22  and  C8_20 
ROOT
HETATM    1  O1  UNK     1      -2.752  -1.540  -0.917  1.00  0.00    -0.275 OA
HETATM    2  O3  UNK     1      -4.697  -2.655  -1.369  1.00  0.00    -0.260 OA
HETATM    3  C1  UNK     1      -2.202  -0.985   1.397  1.00  0.00     0.013 A 
HETATM    4  C2  UNK     1      -1.890  -0.963   0.037  1.00  0.00     0.092 A 
HETATM    5  C3  UNK     1      -3.455  -1.624   1.822  1.00  0.00     0.066 A 
HETATM    6  C4  UNK     1       0.169   0.208   0.444  1.00  0.00     0.037 A 
HETATM    7  C5  UNK     1      -0.721  -0.377  -0.451  1.00  0.00     0.067 A 
HETATM    8  C6  UNK     1      -1.293  -0.390   2.282  1.00  0.00     0.017 A 
HETATM    9  C7  UNK     1      -0.117   0.202   1.808  1.00  0.00     0.030 A 
HETATM   10  C9  UNK     1      -4.256  -2.164   0.892  1.00  0.00     0.099 A 
HETATM   11  C14 UNK     1      -3.940  -2.150  -0.547  1.00  0.00     0.289 A 
ENDROOT
BRANCH   6  12
HETATM   12  N1  UNK     1       1.344   0.799  -0.021  1.00  0.00    -0.321 N 
HETATM   13  C10 UNK     1       1.793   0.900  -1.345  1.00  0.00     0.279 C 
HETATM   14  O2  UNK     1       1.226   0.481  -2.348  1.00  0.00    -0.265 OA
HETATM   15  H4  UNK     1       1.944   1.201   0.696  1.00  0.00     0.169 HD
BRANCH  13  16
HETATM   16  C8  UNK     1       3.110   1.567  -1.521  1.00  0.00     0.179 A 
HETATM   17  C11 UNK     1       3.513   2.295  -2.619  1.00  0.00     0.155 A 
HETATM   18  C13 UNK     1       4.786   2.681  -2.278  1.00  0.00     0.150 A 
HETATM   19  N2  UNK     1       5.015   2.159  -1.039  1.00  0.00    -0.282 N 
HETATM   20  C15 UNK     1       6.224   2.296  -0.262  1.00  0.00     0.179 C 
HETATM   21  N3  UNK     1       3.980   1.458  -0.546  1.00  0.00    -0.165 NA
BRANCH  17  22
HETATM   22  N4  UNK     1       2.855   2.610  -3.819  1.00  0.00    -0.112 N 
HETATM   23  O4  UNK     1       3.451   3.306  -4.686  1.00  0.00    -0.532 OA
HETATM   24  O5  UNK     1       1.682   2.191  -4.009  1.00  0.00    -0.532 OA
ENDBRANCH  17  22
ENDBRANCH  13  16
ENDBRANCH   6  12
BRANCH   5  25
HETATM   25  C12 UNK     1      -3.820  -1.664   3.277  1.00  0.00     0.418 C 
HETATM   26  F1  UNK     1      -2.873  -1.063   4.024  1.00  0.00    -0.166 F 
HETATM   27  F2  UNK     1      -4.988  -1.030   3.498  1.00  0.00    -0.166 F 
HETATM   28  F3  UNK     1      -3.948  -2.933   3.709  1.00  0.00    -0.166 F 
ENDBRANCH   5  25
TORSDOF 4
