REMARK  9 active torsions:
REMARK  status: ('A' for Active; 'I' for Inactive)
REMARK    1  A    between atoms: C1_10  and  O2_2 
REMARK    2  A    between atoms: C2_11  and  O3_3 
REMARK    3  A    between atoms: C4_13  and  O4_4 
REMARK    4  A    between atoms: C7_16  and  O5_5 
REMARK    5  A    between atoms: C9_18  and  O7_7 
REMARK    6  A    between atoms: C21_30  and  O9_9 
REMARK    7  A    between atoms: C3_12  and  C6_15 
REMARK    8  A    between atoms: C5_14  and  C7_16 
REMARK    9  A    between atoms: C14_23  and  C16_25 
ROOT
HETATM    1  O6  UNK     1      -0.635  -0.187  -0.424  1.00  0.00    -0.320 OA
HETATM    2  O8  UNK     1      -2.219   0.457   3.281  1.00  0.00    -0.286 OA
HETATM    3  C6  UNK     1       0.935   1.551  -0.123  1.00  0.00     0.041 A 
HETATM    4  C8  UNK     1      -0.123   0.795   0.384  1.00  0.00     0.101 A 
HETATM    5  C9  UNK     1       1.496   2.565   0.653  1.00  0.00     0.077 A 
HETATM    6  C10 UNK     1      -0.617   1.053   1.662  1.00  0.00     0.050 A 
HETATM    7  C11 UNK     1       1.002   2.823   1.932  1.00  0.00     0.038 A 
HETATM    8  C12 UNK     1      -0.056   2.069   2.441  1.00  0.00     0.021 A 
HETATM    9  C13 UNK     1      -1.738   0.244   2.176  1.00  0.00     0.197 A 
HETATM   10  C14 UNK     1      -2.250  -0.825   1.274  1.00  0.00     0.048 A 
HETATM   11  C15 UNK     1      -1.665  -0.949   0.073  1.00  0.00     0.159 A 
ENDROOT
BRANCH   3  12
HETATM   12  C3  UNK     1       1.478   1.278  -1.513  1.00  0.00     0.192 C 
HETATM   13  C1  UNK     1       0.749   2.100  -2.595  1.00  0.00     0.183 C 
HETATM   14  C2  UNK     1       1.354   1.842  -3.979  1.00  0.00     0.181 C 
HETATM   15  C4  UNK     1       2.882   1.977  -3.938  1.00  0.00     0.180 C 
HETATM   16  C5  UNK     1       3.492   1.160  -2.792  1.00  0.00     0.177 C 
HETATM   17  O1  UNK     1       2.889   1.530  -1.548  1.00  0.00    -0.368 OA
BRANCH  13  18
HETATM   18  O2  UNK     1       0.879   3.491  -2.299  1.00  0.00    -0.390 OA
HETATM   19  H8  UNK     1       1.818   3.682  -2.133  1.00  0.00     0.210 HD
ENDBRANCH  13  18
BRANCH  14  20
HETATM   20  O3  UNK     1       0.972   0.545  -4.438  1.00  0.00    -0.390 OA
HETATM   21  H9  UNK     1       1.352  -0.123  -3.847  1.00  0.00     0.210 HD
ENDBRANCH  14  20
BRANCH  15  22
HETATM   22  O4  UNK     1       3.444   1.573  -5.180  1.00  0.00    -0.390 OA
HETATM   23  H10 UNK     1       3.205   0.642  -5.324  1.00  0.00     0.210 HD
ENDBRANCH  15  22
BRANCH  16  24
HETATM   24  C7  UNK     1       4.992   1.407  -2.662  1.00  0.00     0.198 C 
BRANCH  24  25
HETATM   25  O5  UNK     1       5.485   0.632  -1.584  1.00  0.00    -0.398 OA
HETATM   26  H13 UNK     1       6.439   0.809  -1.516  1.00  0.00     0.209 HD
ENDBRANCH  24  25
ENDBRANCH  16  24
ENDBRANCH   3  12
BRANCH   5  27
HETATM   27  O7  UNK     1       2.529   3.316   0.178  1.00  0.00    -0.360 OA
HETATM   28  H15 UNK     1       2.785   3.968   0.852  1.00  0.00     0.217 HD
ENDBRANCH   5  27
BRANCH  10  29
HETATM   29  C16 UNK     1      -3.338  -1.730   1.679  1.00  0.00    -0.020 A 
HETATM   30  C17 UNK     1      -3.048  -2.923   2.343  1.00  0.00     0.015 A 
HETATM   31  C19 UNK     1      -4.081  -3.779   2.726  1.00  0.00     0.037 A 
HETATM   32  C21 UNK     1      -5.406  -3.444   2.446  1.00  0.00     0.065 A 
HETATM   33  C20 UNK     1      -5.698  -2.253   1.782  1.00  0.00     0.037 A 
HETATM   34  C18 UNK     1      -4.665  -1.397   1.399  1.00  0.00     0.015 A 
BRANCH  32  35
HETATM   35  O9  UNK     1      -6.412  -4.280   2.820  1.00  0.00    -0.361 OA
HETATM   36  H20 UNK     1      -7.261  -3.892   2.547  1.00  0.00     0.217 HD
ENDBRANCH  32  35
ENDBRANCH  10  29
TORSDOF 9
