REMARK  0 active torsions:
REMARK  status: ('A' for Active; 'I' for Inactive)
ROOT
HETATM    1  O1  UNK     1      -0.094  -0.095   1.712  1.00  0.00    -0.313 OA
HETATM    2  O2  UNK     1       0.075   0.459  -2.437  1.00  0.00    -0.274 OA
HETATM    3  O3  UNK     1      -3.290  -1.339  -0.416  1.00  0.00    -0.287 OA
HETATM    4  O4  UNK     1      -1.988  -0.478  -2.663  1.00  0.00    -0.259 OA
HETATM    5  C1  UNK     1      -0.110   0.056   0.337  1.00  0.00     0.109 A 
HETATM    6  C2  UNK     1       1.084   0.679  -0.234  1.00  0.00     0.033 A 
HETATM    7  C3  UNK     1      -1.127  -0.329  -0.452  1.00  0.00     0.124 A 
HETATM    8  C4  UNK     1       1.142   0.863  -1.613  1.00  0.00     0.092 A 
HETATM    9  C5  UNK     1      -2.308  -0.955   0.211  1.00  0.00     0.193 A 
HETATM   10  C6  UNK     1      -1.179  -0.675   2.341  1.00  0.00     0.053 A 
HETATM   11  C7  UNK     1       2.178   1.103   0.531  1.00  0.00     0.017 A 
HETATM   12  C8  UNK     1      -1.072  -0.135  -1.924  1.00  0.00     0.305 A 
HETATM   13  C9  UNK     1      -2.260  -1.103   1.680  1.00  0.00     0.088 A 
HETATM   14  C10 UNK     1       2.242   1.449  -2.239  1.00  0.00     0.038 A 
HETATM   15  C11 UNK     1       3.289   1.692  -0.082  1.00  0.00     0.001 A 
HETATM   16  C12 UNK     1       3.320   1.865  -1.465  1.00  0.00     0.003 A 
HETATM   17  C13 UNK     1      -1.037  -0.781   3.825  1.00  0.00     0.077 C 
ENDROOT
TORSDOF 0
