REMARK  2 active torsions:
REMARK  status: ('A' for Active; 'I' for Inactive)
REMARK    1  A    between atoms: C1_3  and  C3_5 
REMARK    2  A    between atoms: C2_4  and  C4_6 
ROOT
HETATM    1  N1  UNK     1      -5.648  -2.899   3.319  1.00  0.00    -0.191 NA
HETATM    2  C1  UNK     1      -1.720  -0.688   0.381  1.00  0.00    -0.036 A 
HETATM    3  C5  UNK     1      -1.795  -0.433   1.751  1.00  0.00     0.013 A 
HETATM    4  C7  UNK     1      -2.664  -1.516  -0.226  1.00  0.00     0.013 A 
HETATM    5  C9  UNK     1      -2.813  -1.006   2.512  1.00  0.00     0.023 A 
HETATM    6  C11 UNK     1      -3.682  -2.089   0.535  1.00  0.00     0.023 A 
HETATM    7  C13 UNK     1      -3.757  -1.835   1.905  1.00  0.00     0.044 A 
HETATM    8  C15 UNK     1      -4.800  -2.422   2.685  1.00  0.00     0.099 C 
ENDROOT
BRANCH   2   9
HETATM    9  C3  UNK     1      -0.658  -0.090  -0.413  1.00  0.00     0.012 C 
HETATM   10  C4  UNK     1       0.505   0.397   0.080  1.00  0.00     0.012 C 
BRANCH  10  11
HETATM   11  C2  UNK     1       1.589   0.984  -0.727  1.00  0.00    -0.036 A 
HETATM   12  C6  UNK     1       1.310   1.448  -2.003  1.00  0.00     0.013 A 
HETATM   13  C10 UNK     1       2.336   2.005  -2.767  1.00  0.00     0.023 A 
HETATM   14  C14 UNK     1       3.627   2.090  -2.245  1.00  0.00     0.044 A 
HETATM   15  C12 UNK     1       3.892   1.619  -0.959  1.00  0.00     0.023 A 
HETATM   16  C16 UNK     1       4.678   2.660  -3.027  1.00  0.00     0.099 C 
HETATM   17  C8  UNK     1       2.866   1.062  -0.195  1.00  0.00     0.013 A 
HETATM   18  N2  UNK     1       5.532   3.124  -3.664  1.00  0.00    -0.191 NA
ENDBRANCH  10  11
ENDBRANCH   2   9
TORSDOF 2
