REMARK  5 active torsions:
REMARK  status: ('A' for Active; 'I' for Inactive)
REMARK    1  A    between atoms: C11_17  and  O2_2 
REMARK    2  A    between atoms: C17_23  and  O2_2 
REMARK    3  A    between atoms: C9_15  and  O3_3 
REMARK    4  A    between atoms: C6_12  and  N1_6 
REMARK       I    between atoms: C7_13  and  N1_6 
REMARK    5  A    between atoms: C3_9  and  C7_13 
ROOT
HETATM    1  O1  UNK     1       2.471   0.090   0.203  1.00  0.00    -0.274 OA
HETATM    2  O5  UNK     1       0.864  -1.230   1.149  1.00  0.00    -0.259 OA
HETATM    3  C1  UNK     1       1.963   1.333  -1.824  1.00  0.00     0.002 A 
HETATM    4  C2  UNK     1       2.859   0.976  -0.821  1.00  0.00     0.089 A 
HETATM    5  C3  UNK     1       0.257  -0.066  -0.824  1.00  0.00     0.108 A 
HETATM    6  C4  UNK     1       0.620   0.775  -1.799  1.00  0.00     0.037 A 
HETATM    7  C5  UNK     1       2.385   2.214  -2.823  1.00  0.00     0.051 A 
HETATM    8  C8  UNK     1       4.160   1.473  -0.789  1.00  0.00     0.041 A 
HETATM    9  C9  UNK     1       3.688   2.722  -2.803  1.00  0.00     0.069 A 
HETATM   10  C10 UNK     1       1.193  -0.459   0.254  1.00  0.00     0.304 A 
HETATM   11  C12 UNK     1       4.573   2.352  -1.788  1.00  0.00     0.039 A 
ENDROOT
BRANCH   5  12
HETATM   12  C7  UNK     1      -1.118  -0.575  -0.884  1.00  0.00     0.262 C 
HETATM   13  O4  UNK     1      -1.673  -0.708  -1.974  1.00  0.00    -0.267 OA
HETATM   14  N1  UNK     1      -1.631  -0.850   0.376  1.00  0.00    -0.320 N 
HETATM   15  H4  UNK     1      -1.049  -0.664   1.190  1.00  0.00     0.169 HD
BRANCH  14  16
HETATM   16  C6  UNK     1      -2.917  -1.349   0.696  1.00  0.00     0.068 A 
HETATM   17  C11 UNK     1      -3.266  -1.566   2.019  1.00  0.00     0.095 A 
HETATM   18  C14 UNK     1      -4.537  -2.057   2.318  1.00  0.00     0.039 A 
HETATM   19  C16 UNK     1      -5.441  -2.324   1.290  1.00  0.00     0.003 A 
HETATM   20  C15 UNK     1      -5.075  -2.101  -0.037  1.00  0.00     0.002 A 
HETATM   21  C13 UNK     1      -3.804  -1.609  -0.336  1.00  0.00     0.032 A 
BRANCH  17  22
HETATM   22  O2  UNK     1      -2.397  -1.311   3.038  1.00  0.00    -0.349 OA
BRANCH  22  23
HETATM   23  C17 UNK     1      -2.803  -0.351   4.010  1.00  0.00     0.171 C 
HETATM   24  C18 UNK     1      -1.573   0.325   4.579  1.00  0.00     0.034 C 
ENDBRANCH  22  23
ENDBRANCH  17  22
ENDBRANCH  14  16
ENDBRANCH   5  12
BRANCH   9  25
HETATM   25  O3  UNK     1       4.095   3.581  -3.777  1.00  0.00    -0.356 OA
HETATM   26  C19 UNK     1       5.435   4.063  -3.699  1.00  0.00     0.210 C 
ENDBRANCH   9  25
TORSDOF 5
