REMARK  3 active torsions:
REMARK  status: ('A' for Active; 'I' for Inactive)
REMARK    1  A    between atoms: C8_12  and  O2_2 
REMARK    2  A    between atoms: C10_14  and  O4_4 
REMARK    3  A    between atoms: C2_6  and  C5_9 
ROOT
HETATM    1  O1  UNK     1       0.248   1.118   1.839  1.00  0.00    -0.321 OA
HETATM    2  O3  UNK     1      -0.485   0.029  -2.025  1.00  0.00    -0.286 OA
HETATM    3  C1  UNK     1      -1.137  -0.065   0.235  1.00  0.00     0.052 A 
HETATM    4  C2  UNK     1       0.938   1.165  -0.490  1.00  0.00     0.048 A 
HETATM    5  C3  UNK     1      -0.843   0.346   1.535  1.00  0.00     0.092 A 
HETATM    6  C4  UNK     1      -0.246   0.344  -0.866  1.00  0.00     0.198 A 
HETATM    7  C6  UNK     1      -2.265  -0.851  -0.015  1.00  0.00     0.058 A 
HETATM    8  C7  UNK     1      -1.675  -0.026   2.592  1.00  0.00     0.077 A 
HETATM    9  C8  UNK     1      -3.095  -1.223   1.044  1.00  0.00     0.102 A 
HETATM   10  C9  UNK     1       1.083   1.476   0.807  1.00  0.00     0.159 A 
HETATM   11  C10 UNK     1      -2.801  -0.811   2.344  1.00  0.00     0.101 A 
ENDROOT
BRANCH   4  12
HETATM   12  C5  UNK     1       1.927   1.607  -1.486  1.00  0.00    -0.020 A 
HETATM   13  C11 UNK     1       2.170   2.968  -1.672  1.00  0.00     0.012 A 
HETATM   14  C13 UNK     1       3.108   3.386  -2.616  1.00  0.00     0.001 A 
HETATM   15  C15 UNK     1       3.803   2.444  -3.374  1.00  0.00     0.000 A 
HETATM   16  C14 UNK     1       3.560   1.083  -3.188  1.00  0.00     0.001 A 
HETATM   17  C12 UNK     1       2.623   0.664  -2.244  1.00  0.00     0.012 A 
ENDBRANCH   4  12
BRANCH   9  18
HETATM   18  O2  UNK     1      -4.194  -1.988   0.794  1.00  0.00    -0.353 OA
HETATM   19  C16 UNK     1      -4.025  -3.403   0.851  1.00  0.00     0.210 C 
ENDBRANCH   9  18
BRANCH  11  20
HETATM   20  O4  UNK     1      -3.608  -1.169   3.382  1.00  0.00    -0.358 OA
HETATM   21  H9  UNK     1      -3.250  -0.796   4.205  1.00  0.00     0.217 HD
ENDBRANCH  11  20
TORSDOF 3
