REMARK  2 active torsions:
REMARK  status: ('A' for Active; 'I' for Inactive)
REMARK       I    between atoms: C6_13  and  N1_7 
REMARK    1  A    between atoms: C9_16  and  N1_7 
REMARK    2  A    between atoms: C2_9  and  C6_13 
ROOT
HETATM    1 Br1  UNK     1       6.034   4.044  -1.634  1.00  0.00    -0.051 Br
HETATM    2  O1  UNK     1       1.210   0.592  -2.908  1.00  0.00    -0.274 OA
HETATM    3  O3  UNK     1      -0.546  -0.697  -2.217  1.00  0.00    -0.259 OA
HETATM    4  C1  UNK     1       2.677   1.606  -1.256  1.00  0.00     0.000 A 
HETATM    5  C2  UNK     1       0.816   0.239  -0.520  1.00  0.00     0.108 A 
HETATM    6  C3  UNK     1       2.325   1.389  -2.584  1.00  0.00     0.089 A 
HETATM    7  C4  UNK     1       1.875   0.996  -0.207  1.00  0.00     0.037 A 
HETATM    8  C5  UNK     1       3.790   2.403  -0.975  1.00  0.00     0.033 A 
HETATM    9  C7  UNK     1       0.423  -0.005  -1.926  1.00  0.00     0.304 A 
HETATM   10  C8  UNK     1       3.050   1.945  -3.636  1.00  0.00     0.039 A 
HETATM   11  C10 UNK     1       4.528   2.967  -2.020  1.00  0.00     0.011 A 
HETATM   12  C11 UNK     1       4.159   2.738  -3.347  1.00  0.00     0.022 A 
ENDROOT
BRANCH   5  13
HETATM   13  C6  UNK     1       0.071  -0.332   0.607  1.00  0.00     0.262 C 
HETATM   14  O2  UNK     1       0.658  -0.599   1.655  1.00  0.00    -0.267 OA
HETATM   15  N1  UNK     1      -1.275  -0.503   0.312  1.00  0.00    -0.323 N 
HETATM   16  H4  UNK     1      -1.610  -0.210  -0.602  1.00  0.00     0.169 HD
BRANCH  15  17
HETATM   17  C9  UNK     1      -2.284  -1.027   1.157  1.00  0.00     0.036 A 
HETATM   18  C12 UNK     1      -3.582  -1.120   0.683  1.00  0.00     0.054 A 
HETATM   19  C14 UNK     1      -4.576  -1.635   1.515  1.00  0.00     0.053 A 
HETATM   20 Cl1  UNK     1      -6.181  -1.731   0.878  1.00  0.00    -0.083 Cl
HETATM   21  C16 UNK     1      -4.258  -2.049   2.808  1.00  0.00     0.032 A 
HETATM   22 Br2  UNK     1      -5.553  -2.760   4.003  1.00  0.00    -0.049 Br
HETATM   23  C15 UNK     1      -2.945  -1.948   3.269  1.00  0.00     0.023 A 
HETATM   24  C13 UNK     1      -1.951  -1.433   2.437  1.00  0.00     0.031 A 
ENDBRANCH  15  17
ENDBRANCH   5  13
TORSDOF 2
