REMARK  7 active torsions:
REMARK  status: ('A' for Active; 'I' for Inactive)
REMARK    1  A    between atoms: C18_25  and  O3_3 
REMARK    2  A    between atoms: C26_33  and  O3_3 
REMARK    3  A    between atoms: C5_12  and  N1_5 
REMARK    4  A    between atoms: C6_13  and  N2_6 
REMARK    5  A    between atoms: C5_12  and  C7_14 
REMARK    6  A    between atoms: C6_13  and  C8_15 
REMARK    7  A    between atoms: C14_21  and  C19_26 
ROOT
HETATM    1  N1  UNK     1      -1.211  -1.321  -0.062  1.00  0.00     0.096 N 
HETATM    2  N2  UNK     1       0.087   0.123  -2.205  1.00  0.00     0.097 N 
HETATM    3  C1  UNK     1       0.091  -0.672   0.135  1.00  0.00     0.303 C 
HETATM    4  C2  UNK     1      -1.373  -1.728  -1.463  1.00  0.00     0.303 C 
HETATM    5  C3  UNK     1       0.250   0.529  -0.803  1.00  0.00     0.303 C 
HETATM    6  C4  UNK     1      -1.215  -0.527  -2.402  1.00  0.00     0.303 C 
ENDROOT
BRANCH   1   7
HETATM    7  C5  UNK     1      -1.361  -2.467   0.832  1.00  0.00     0.312 C 
BRANCH   7   8
HETATM    8  C7  UNK     1      -1.748  -2.057   2.211  1.00  0.00    -0.011 A 
HETATM    9  C11 UNK     1      -0.819  -1.789   3.140  1.00  0.00     0.092 A 
HETATM   10  C15 UNK     1      -1.152  -1.381   4.515  1.00  0.00     0.288 A 
HETATM   11  O2  UNK     1      -2.499  -1.280   4.825  1.00  0.00    -0.275 OA
HETATM   12  O4  UNK     1      -0.275  -1.143   5.338  1.00  0.00    -0.260 OA
HETATM   13  C12 UNK     1      -3.498  -1.556   3.871  1.00  0.00     0.090 A 
HETATM   14  C9  UNK     1      -3.167  -1.942   2.571  1.00  0.00     0.009 A 
HETATM   15  C17 UNK     1      -4.822  -1.423   4.295  1.00  0.00     0.041 A 
HETATM   16  C13 UNK     1      -4.219  -2.200   1.682  1.00  0.00     0.051 A 
HETATM   17  C18 UNK     1      -5.551  -2.072   2.093  1.00  0.00     0.069 A 
HETATM   18  C20 UNK     1      -5.852  -1.684   3.398  1.00  0.00     0.039 A 
BRANCH  17  19
HETATM   19  O3  UNK     1      -6.559  -2.327   1.213  1.00  0.00    -0.351 OA
BRANCH  19  20
HETATM   20  C26 UNK     1      -6.296  -2.074  -0.166  1.00  0.00     0.171 C 
HETATM   21  C28 UNK     1      -7.591  -1.704  -0.855  1.00  0.00     0.034 C 
ENDBRANCH  19  20
ENDBRANCH  17  19
ENDBRANCH   7   8
ENDBRANCH   1   7
BRANCH   2  22
HETATM   22  C6  UNK     1       0.235   1.270  -3.098  1.00  0.00     0.334 C 
BRANCH  22  23
HETATM   23  C8  UNK     1       1.689   1.557  -3.294  1.00  0.00     0.095 A 
HETATM   24  C10 UNK     1       2.546   1.066  -4.247  1.00  0.00     0.078 A 
HETATM   25  O1  UNK     1       3.775   1.612  -4.028  1.00  0.00    -0.294 OA
HETATM   26  C16 UNK     1       2.419   0.138  -5.377  1.00  0.00     0.079 C 
HETATM   27  C14 UNK     1       3.580   2.408  -2.942  1.00  0.00     0.180 A 
HETATM   28  N3  UNK     1       2.357   2.417  -2.460  1.00  0.00    -0.224 NA
BRANCH  27  29
HETATM   29  C19 UNK     1       4.743   3.119  -2.488  1.00  0.00     0.023 A 
HETATM   30  C21 UNK     1       5.244   2.932  -1.200  1.00  0.00    -0.048 A 
HETATM   31  C23 UNK     1       6.376   3.634  -0.783  1.00  0.00     0.007 A 
HETATM   32  C24 UNK     1       4.596   1.988  -0.238  1.00  0.00     0.049 C 
HETATM   33  C27 UNK     1       7.005   4.522  -1.654  1.00  0.00     0.001 A 
HETATM   34  C25 UNK     1       6.504   4.709  -2.942  1.00  0.00     0.001 A 
HETATM   35  C22 UNK     1       5.373   4.008  -3.359  1.00  0.00     0.016 A 
ENDBRANCH  27  29
ENDBRANCH  22  23
ENDBRANCH   2  22
TORSDOF 7
