REMARK  3 active torsions:
REMARK  status: ('A' for Active; 'I' for Inactive)
REMARK       I    between atoms: C11_18  and  N1_6 
REMARK    1  A    between atoms: C9_16  and  N1_6 
REMARK       I    between atoms: C10_17  and  N2_7 
REMARK    2  A    between atoms: C10_17  and  C8_15 
REMARK    3  A    between atoms: C11_18  and  C12_19 
ROOT
HETATM    1  S1  UNK     1       2.347   1.241   0.432  1.00  0.00    -0.075 SA
HETATM    2  C1  UNK     1       4.719   2.193  -3.522  1.00  0.00     0.005 C 
HETATM    3  C2  UNK     1       5.848   2.645  -2.590  1.00  0.00     0.001 C 
HETATM    4  C3  UNK     1       3.345   2.761  -3.165  1.00  0.00     0.041 C 
HETATM    5  C4  UNK     1       5.795   2.066  -1.173  1.00  0.00     0.005 C 
HETATM    6  C5  UNK     1       2.731   2.111  -1.963  1.00  0.00    -0.026 A 
HETATM    7  C6  UNK     1       4.656   2.614  -0.313  1.00  0.00     0.046 C 
HETATM    8  C7  UNK     1       3.324   2.056  -0.714  1.00  0.00    -0.008 A 
HETATM    9  C8  UNK     1       1.452   1.466  -1.956  1.00  0.00     0.073 A 
HETATM   10  C9  UNK     1       1.124   0.952  -0.723  1.00  0.00     0.093 A 
ENDROOT
BRANCH  10  11
HETATM   11  N1  UNK     1       0.019   0.270  -0.290  1.00  0.00    -0.316 N 
HETATM   12  C11 UNK     1      -0.213  -0.213   1.005  1.00  0.00     0.262 C 
HETATM   13  O3  UNK     1       0.509  -0.127   1.991  1.00  0.00    -0.267 OA
HETATM   14  H11 UNK     1      -0.696   0.130  -0.998  1.00  0.00     0.169 HD
BRANCH  12  15
HETATM   15  C12 UNK     1      -1.513  -0.906   1.125  1.00  0.00     0.108 A 
HETATM   16  C13 UNK     1      -2.105  -0.850   2.324  1.00  0.00     0.037 A 
HETATM   17  C14 UNK     1      -3.387  -1.502   2.540  1.00  0.00    -0.001 A 
HETATM   18  C15 UNK     1      -3.984  -2.181   1.482  1.00  0.00     0.089 A 
HETATM   19  C17 UNK     1      -4.040  -1.470   3.774  1.00  0.00     0.014 A 
HETATM   20  O2  UNK     1      -3.357  -2.235   0.222  1.00  0.00    -0.274 OA
HETATM   21  C18 UNK     1      -5.211  -2.826   1.623  1.00  0.00     0.038 A 
HETATM   22  C16 UNK     1      -2.130  -1.622  -0.015  1.00  0.00     0.304 A 
HETATM   23  O4  UNK     1      -1.591  -1.675  -1.115  1.00  0.00    -0.259 OA
HETATM   24  C20 UNK     1      -5.855  -2.789   2.858  1.00  0.00     0.003 A 
HETATM   25  C19 UNK     1      -5.272  -2.113   3.931  1.00  0.00     0.001 A 
ENDBRANCH  12  15
ENDBRANCH  10  11
BRANCH   9  26
HETATM   26  C10 UNK     1       0.565   1.341  -3.088  1.00  0.00     0.252 C 
HETATM   27  O1  UNK     1      -0.293   2.195  -3.376  1.00  0.00    -0.268 OA
HETATM   28  N2  UNK     1       0.711   0.214  -3.892  1.00  0.00    -0.366 N 
HETATM   29  H12 UNK     1       1.404  -0.501  -3.698  1.00  0.00     0.159 HD
HETATM   30  H13 UNK     1       0.121   0.074  -4.706  1.00  0.00     0.159 HD
ENDBRANCH   9  26
TORSDOF 3
