REMARK  5 active torsions:
REMARK  status: ('A' for Active; 'I' for Inactive)
REMARK    1  A    between atoms: C3_6  and  O1_1 
REMARK    2  A    between atoms: C8_11  and  O1_1 
REMARK    3  A    between atoms: C1_4  and  C6_9 
REMARK    4  A    between atoms: C11_14  and  C7_10 
REMARK    5  A    between atoms: C7_10  and  C8_11 
ROOT
HETATM    1  O2  UNK     1      -2.585  -1.147  -0.789  1.00  0.00    -0.275 OA
HETATM    2  O3  UNK     1      -4.775  -1.758  -0.550  1.00  0.00    -0.260 OA
HETATM    3  C1  UNK     1       1.051   0.045   0.874  1.00  0.00    -0.024 A 
HETATM    4  C2  UNK     1      -1.275  -0.595   1.198  1.00  0.00     0.005 A 
HETATM    5  C3  UNK     1       0.921  -0.114  -0.504  1.00  0.00     0.077 A 
HETATM    6  C4  UNK     1      -0.038  -0.193   1.720  1.00  0.00     0.024 A 
HETATM    7  C5  UNK     1      -1.376  -0.745  -0.186  1.00  0.00     0.092 A 
HETATM    8  C9  UNK     1      -0.298  -0.511  -1.042  1.00  0.00     0.075 A 
HETATM    9  C10 UNK     1      -2.461  -0.863   2.023  1.00  0.00    -0.043 A 
HETATM   10  C13 UNK     1      -3.597  -1.243   1.422  1.00  0.00     0.090 A 
HETATM   11  C14 UNK     1      -2.385  -0.711   3.514  1.00  0.00     0.049 C 
HETATM   12  C16 UNK     1      -3.719  -1.406  -0.036  1.00  0.00     0.288 A 
ENDROOT
BRANCH   5  13
HETATM   13  O1  UNK     1       1.975   0.116  -1.336  1.00  0.00    -0.350 OA
BRANCH  13  14
HETATM   14  C8  UNK     1       1.811   1.131  -2.325  1.00  0.00     0.175 C 
BRANCH  14  15
HETATM   15  C7  UNK     1       3.171   1.741  -2.634  1.00  0.00     0.026 C 
BRANCH  15  16
HETATM   16  C11 UNK     1       3.068   2.849  -3.677  1.00  0.00    -0.002 C 
HETATM   17  C15 UNK     1       4.422   3.485  -3.951  1.00  0.00     0.005 C 
ENDBRANCH  15  16
ENDBRANCH  14  15
ENDBRANCH  13  14
ENDBRANCH   5  13
BRANCH   3  18
HETATM   18  C6  UNK     1       2.353   0.473   1.470  1.00  0.00     0.037 C 
HETATM   19  C12 UNK     1       2.468   1.990   1.580  1.00  0.00     0.010 C 
ENDBRANCH   3  18
TORSDOF 5
