REMARK  6 active torsions:
REMARK  status: ('A' for Active; 'I' for Inactive)
REMARK    1  A    between atoms: C14_20  and  O2_3 
REMARK    2  A    between atoms: C8_14  and  O2_3 
REMARK    3  A    between atoms: C11_17  and  O3_4 
REMARK    4  A    between atoms: C17_23  and  O3_4 
REMARK    5  A    between atoms: C3_9  and  C5_11 
REMARK    6  A    between atoms: C14_20  and  C17_23 
ROOT
HETATM    1  O1  UNK     1      -1.151   1.454   1.521  1.00  0.00    -0.321 OA
HETATM    2  O4  UNK     1      -1.555  -2.397   0.236  1.00  0.00    -0.286 OA
HETATM    3  C1  UNK     1      -0.273  -0.423   0.258  1.00  0.00     0.049 A 
HETATM    4  C2  UNK     1      -0.193   0.891   0.718  1.00  0.00     0.091 A 
HETATM    5  C3  UNK     1      -2.438  -0.605   1.532  1.00  0.00     0.048 A 
HETATM    6  C4  UNK     1      -1.432  -1.249   0.643  1.00  0.00     0.197 A 
HETATM    7  C6  UNK     1       0.893   1.692   0.362  1.00  0.00     0.075 A 
HETATM    8  C7  UNK     1       0.733  -0.944  -0.560  1.00  0.00     0.021 A 
HETATM    9  C8  UNK     1       1.899   1.174  -0.454  1.00  0.00     0.072 A 
HETATM   10  C9  UNK     1       1.819  -0.141  -0.914  1.00  0.00     0.038 A 
HETATM   11  C10 UNK     1      -2.216   0.668   1.890  1.00  0.00     0.159 A 
ENDROOT
BRANCH   9  12
HETATM   12  O2  UNK     1       2.960   1.952  -0.802  1.00  0.00    -0.341 OA
BRANCH  12  13
HETATM   13  C14 UNK     1       3.573   1.688  -2.062  1.00  0.00     0.286 C 
BRANCH  13  14
HETATM   14  C17 UNK     1       4.164   2.967  -2.593  1.00  0.00     0.283 C 
HETATM   15  O5  UNK     1       4.102   4.053  -2.034  1.00  0.00    -0.263 OA
BRANCH  14  16
HETATM   16  O3  UNK     1       4.774   2.712  -3.788  1.00  0.00    -0.315 OA
BRANCH  16  17
HETATM   17  C11 UNK     1       4.789   3.801  -4.717  1.00  0.00     0.123 C 
HETATM   18  C15 UNK     1       5.525   3.375  -5.977  1.00  0.00     0.040 C 
HETATM   19  C16 UNK     1       3.359   4.227  -5.013  1.00  0.00     0.040 C 
ENDBRANCH  16  17
ENDBRANCH  14  16
ENDBRANCH  13  14
ENDBRANCH  12  13
ENDBRANCH   9  12
BRANCH   5  20
HETATM   20  C5  UNK     1      -3.622  -1.330   2.022  1.00  0.00    -0.020 A 
HETATM   21  C12 UNK     1      -4.815  -1.296   1.296  1.00  0.00     0.014 A 
HETATM   22  C18 UNK     1      -5.936  -1.984   1.759  1.00  0.00     0.024 A 
HETATM   23  C20 UNK     1      -5.867  -2.708   2.949  1.00  0.00     0.034 A 
HETATM   24  C19 UNK     1      -4.677  -2.745   3.676  1.00  0.00     0.024 A 
HETATM   25 Cl1  UNK     1      -7.251  -3.557   3.522  1.00  0.00    -0.084 Cl
HETATM   26  C13 UNK     1      -3.556  -2.056   3.213  1.00  0.00     0.014 A 
ENDBRANCH   5  20
TORSDOF 6
