REMARK  16 active torsions:
REMARK  status: ('A' for Active; 'I' for Inactive)
REMARK    1  A    between atoms: C10_26  and  O2_2 
REMARK    2  A    between atoms: C6_22  and  O2_2 
REMARK    3  A    between atoms: C2_18  and  O4_4 
REMARK    4  A    between atoms: C3_19  and  O5_5 
REMARK    5  A    between atoms: C13_29  and  O6_6 
REMARK    6  A    between atoms: C9_25  and  O6_6 
REMARK    7  A    between atoms: C4_20  and  O7_7 
REMARK    8  A    between atoms: C5_21  and  O8_8 
REMARK    9  A    between atoms: C7_23  and  O9_9 
REMARK   10  A    between atoms: C8_24  and  O10_10 
REMARK   11  A    between atoms: C19_35  and  O13_13 
REMARK   12  A    between atoms: C21_37  and  O14_14 
REMARK   13  A    between atoms: C24_40  and  O15_15 
REMARK   14  A    between atoms: C25_41  and  O16_16 
REMARK   15  A    between atoms: C1_17  and  C10_26 
REMARK   16  A    between atoms: C14_30  and  C17_33 
ROOT
HETATM    1  O1  UNK     1       0.485  -0.173  -1.355  1.00  0.00    -0.348 OA
HETATM    2  C1  UNK     1       1.482  -1.052  -1.878  1.00  0.00     0.180 C 
HETATM    3  C2  UNK     1       1.044  -1.585  -3.244  1.00  0.00     0.180 C 
HETATM    4  C3  UNK     1      -0.321  -2.267  -3.148  1.00  0.00     0.183 C 
HETATM    5  C4  UNK     1      -1.332  -1.381  -2.422  1.00  0.00     0.205 C 
HETATM    6  C9  UNK     1      -0.756  -0.834  -1.116  1.00  0.00     0.298 C 
ENDROOT
BRANCH   6   7
HETATM    7  O6  UNK     1      -1.697   0.090  -0.572  1.00  0.00    -0.311 OA
BRANCH   7   8
HETATM    8  C13 UNK     1      -1.631   0.131   0.804  1.00  0.00     0.158 A 
HETATM    9  C15 UNK     1      -0.717   1.118   1.429  1.00  0.00     0.223 A 
HETATM   10  C16 UNK     1      -0.693   1.144   2.900  1.00  0.00     0.084 A 
HETATM   11  O12 UNK     1      -0.023   1.869   0.758  1.00  0.00    -0.284 OA
HETATM   12  C19 UNK     1       0.137   2.035   3.584  1.00  0.00     0.085 A 
HETATM   13  C18 UNK     1      -1.513   0.265   3.603  1.00  0.00     0.096 A 
HETATM   14  C23 UNK     1       0.140   2.040   4.980  1.00  0.00     0.074 A 
HETATM   15  C24 UNK     1      -0.682   1.160   5.685  1.00  0.00     0.071 A 
HETATM   16  C20 UNK     1      -1.510   0.272   4.998  1.00  0.00     0.075 A 
HETATM   17  O11 UNK     1      -2.348  -0.629   2.984  1.00  0.00    -0.306 OA
HETATM   18  C14 UNK     1      -2.366  -0.667   1.599  1.00  0.00     0.126 A 
BRANCH  12  19
HETATM   19  O13 UNK     1       0.958   2.914   2.945  1.00  0.00    -0.360 OA
HETATM   20  H27 UNK     1       1.448   3.438   3.601  1.00  0.00     0.217 HD
ENDBRANCH  12  19
BRANCH  15  21
HETATM   21  O15 UNK     1      -0.677   1.169   7.047  1.00  0.00    -0.361 OA
HETATM   22  H29 UNK     1      -0.048   1.843   7.356  1.00  0.00     0.217 HD
ENDBRANCH  15  21
BRANCH  18  23
HETATM   23  C17 UNK     1      -3.305  -1.670   1.064  1.00  0.00     0.037 A 
HETATM   24  C21 UNK     1      -4.640  -1.349   0.810  1.00  0.00     0.112 A 
HETATM   25  C25 UNK     1      -5.508  -2.316   0.303  1.00  0.00     0.099 A 
HETATM   26  C27 UNK     1      -5.042  -3.606   0.049  1.00  0.00     0.039 A 
HETATM   27  C26 UNK     1      -3.709  -3.929   0.302  1.00  0.00     0.004 A 
HETATM   28  C22 UNK     1      -2.841  -2.962   0.809  1.00  0.00     0.017 A 
BRANCH  24  29
HETATM   29  O14 UNK     1      -5.108  -0.090   1.053  1.00  0.00    -0.357 OA
HETATM   30  H28 UNK     1      -4.420   0.467   1.449  1.00  0.00     0.217 HD
ENDBRANCH  24  29
BRANCH  25  31
HETATM   31  O16 UNK     1      -6.812  -2.015   0.050  1.00  0.00    -0.358 OA
HETATM   32  H30 UNK     1      -6.960  -1.082   0.283  1.00  0.00     0.217 HD
ENDBRANCH  25  31
ENDBRANCH  18  23
ENDBRANCH   7   8
ENDBRANCH   6   7
BRANCH   5  33
HETATM   33  O7  UNK     1      -2.496  -2.146  -2.111  1.00  0.00    -0.388 OA
HETATM   34  H18 UNK     1      -3.168  -1.524  -1.785  1.00  0.00     0.210 HD
ENDBRANCH   5  33
BRANCH   4  35
HETATM   35  O5  UNK     1      -0.780  -2.523  -4.476  1.00  0.00    -0.390 OA
HETATM   36  H17 UNK     1      -0.112  -3.077  -4.914  1.00  0.00     0.210 HD
ENDBRANCH   4  35
BRANCH   2  37
HETATM   37  C10 UNK     1       2.786  -0.266  -1.969  1.00  0.00     0.205 C 
BRANCH  37  38
HETATM   38  O2  UNK     1       2.604   0.830  -2.855  1.00  0.00    -0.356 OA
BRANCH  38  39
HETATM   39  C6  UNK     1       3.793   1.602  -2.980  1.00  0.00     0.291 C 
HETATM   40  C5  UNK     1       3.554   2.766  -3.938  1.00  0.00     0.204 C 
HETATM   41  C7  UNK     1       2.626   3.808  -3.312  1.00  0.00     0.183 C 
HETATM   42  C8  UNK     1       3.130   4.230  -1.931  1.00  0.00     0.178 C 
HETATM   43  C11 UNK     1       3.386   2.992  -1.062  1.00  0.00     0.152 C 
HETATM   44  O3  UNK     1       4.271   2.077  -1.717  1.00  0.00    -0.351 OA
HETATM   45  C12 UNK     1       4.028   3.354   0.275  1.00  0.00     0.042 C 
BRANCH  40  46
HETATM   46  O8  UNK     1       4.822   3.357  -4.230  1.00  0.00    -0.388 OA
HETATM   47  H19 UNK     1       5.280   3.531  -3.391  1.00  0.00     0.210 HD
ENDBRANCH  40  46
BRANCH  41  48
HETATM   48  O9  UNK     1       2.546   4.956  -4.154  1.00  0.00    -0.390 OA
HETATM   49  H20 UNK     1       3.448   5.298  -4.276  1.00  0.00     0.210 HD
ENDBRANCH  41  48
BRANCH  42  50
HETATM   50  O10 UNK     1       2.137   5.059  -1.331  1.00  0.00    -0.390 OA
HETATM   51  H21 UNK     1       2.524   5.453  -0.531  1.00  0.00     0.210 HD
ENDBRANCH  42  50
ENDBRANCH  38  39
ENDBRANCH  37  38
ENDBRANCH   2  37
BRANCH   3  52
HETATM   52  O4  UNK     1       2.008  -2.524  -3.715  1.00  0.00    -0.390 OA
HETATM   53  H16 UNK     1       2.064  -3.247  -3.067  1.00  0.00     0.210 HD
ENDBRANCH   3  52
TORSDOF 16
