REMARK  6 active torsions:
REMARK  status: ('A' for Active; 'I' for Inactive)
REMARK    1  A    between atoms: C17_26  and  O3_3 
REMARK    2  A    between atoms: C18_27  and  O3_3 
REMARK       I    between atoms: C8_17  and  N1_8 
REMARK    3  A    between atoms: C9_18  and  N1_8 
REMARK    4  A    between atoms: C7_16  and  N2_9 
REMARK    5  A    between atoms: C3_12  and  C8_17 
REMARK    6  A    between atoms: C12_21  and  C17_26 
ROOT
HETATM    1  O2  UNK     1       0.230   1.176   1.385  1.00  0.00    -0.267 OA
HETATM    2  N1  UNK     1      -1.029  -0.218  -0.035  1.00  0.00    -0.323 N 
HETATM    3  C8  UNK     1      -0.027   0.688   0.286  1.00  0.00     0.262 C 
HETATM    4  H5  UNK     1      -1.096  -0.544  -0.996  1.00  0.00     0.169 HD
ENDROOT
BRANCH   3   5
HETATM    5  C3  UNK     1       0.781   1.058  -0.882  1.00  0.00     0.108 A 
HETATM    6  C10 UNK     1       0.218   1.077  -2.251  1.00  0.00     0.304 A 
HETATM    7  O1  UNK     1       1.084   1.446  -3.277  1.00  0.00    -0.274 OA
HETATM    8  O4  UNK     1      -0.951   0.785  -2.476  1.00  0.00    -0.259 OA
HETATM    9  C2  UNK     1       2.429   1.784  -3.030  1.00  0.00     0.089 A 
HETATM   10  C1  UNK     1       2.937   1.759  -1.735  1.00  0.00     0.001 A 
HETATM   11  C6  UNK     1       3.218   2.140  -4.121  1.00  0.00     0.041 A 
HETATM   12  C4  UNK     1       2.057   1.378  -0.641  1.00  0.00     0.037 A 
HETATM   13  C5  UNK     1       4.276   2.100  -1.530  1.00  0.00     0.050 A 
HETATM   14  C7  UNK     1       5.080   2.459  -2.615  1.00  0.00     0.103 A 
HETATM   15  C11 UNK     1       4.553   2.479  -3.908  1.00  0.00     0.039 A 
BRANCH  14  16
HETATM   16  N2  UNK     1       6.441   2.806  -2.402  1.00  0.00    -0.116 N 
HETATM   17  O5  UNK     1       7.148   3.126  -3.388  1.00  0.00    -0.532 OA
HETATM   18  O6  UNK     1       6.899   2.784  -1.234  1.00  0.00    -0.532 OA
ENDBRANCH  14  16
ENDBRANCH   3   5
BRANCH   2  19
HETATM   19  C9  UNK     1      -1.988  -0.790   0.836  1.00  0.00     0.035 A 
HETATM   20  C13 UNK     1      -1.977  -0.445   2.176  1.00  0.00     0.030 A 
HETATM   21  C15 UNK     1      -2.922  -1.009   3.033  1.00  0.00     0.020 A 
HETATM   22  C12 UNK     1      -3.864  -1.910   2.537  1.00  0.00     0.039 A 
HETATM   23  C16 UNK     1      -3.861  -2.247   1.183  1.00  0.00     0.020 A 
HETATM   24  C14 UNK     1      -2.916  -1.683   0.326  1.00  0.00     0.030 A 
BRANCH  22  25
HETATM   25  C17 UNK     1      -4.850  -2.497   3.430  1.00  0.00     0.293 C 
HETATM   26  O7  UNK     1      -4.928  -2.256   4.642  1.00  0.00    -0.259 OA
BRANCH  25  27
HETATM   27  O3  UNK     1      -5.686  -3.352   2.764  1.00  0.00    -0.318 OA
BRANCH  27  28
HETATM   28  C18 UNK     1      -6.704  -3.994   3.538  1.00  0.00     0.174 C 
HETATM   29  C19 UNK     1      -7.519  -4.893   2.632  1.00  0.00     0.034 C 
ENDBRANCH  27  28
ENDBRANCH  25  27
ENDBRANCH  22  25
ENDBRANCH   2  19
TORSDOF 6
