REMARK  15 active torsions:
REMARK  status: ('A' for Active; 'I' for Inactive)
REMARK    1  A    between atoms: C1_16  and  O2_2 
REMARK    2  A    between atoms: C8_23  and  O2_2 
REMARK    3  A    between atoms: C2_17  and  O3_3 
REMARK    4  A    between atoms: C9_24  and  O3_3 
REMARK    5  A    between atoms: C10_25  and  O4_4 
REMARK    6  A    between atoms: C3_18  and  O4_4 
REMARK    7  A    between atoms: C5_20  and  O5_5 
REMARK    8  A    between atoms: C7_22  and  O5_5 
REMARK    9  A    between atoms: C15_30  and  O6_6 
REMARK   10  A    between atoms: C6_21  and  O6_6 
REMARK   11  A    between atoms: C18_33  and  O11_11 
REMARK   12  A    between atoms: C25_40  and  O11_11 
REMARK   13  A    between atoms: C31_46  and  O15_15 
REMARK   14  A    between atoms: C4_19  and  C6_21 
REMARK   15  A    between atoms: C22_37  and  C24_39 
ROOT
HETATM    1  O5  UNK     1      -2.376   0.684   0.805  1.00  0.00    -0.318 OA
ENDROOT
BRANCH   1   2
HETATM    2  C5  UNK     1      -2.911  -0.587   0.445  1.00  0.00     0.299 C 
HETATM    3  C3  UNK     1      -4.261  -0.849   1.124  1.00  0.00     0.219 C 
HETATM    4  C1  UNK     1      -4.103  -1.232   2.601  1.00  0.00     0.198 C 
HETATM    5  C2  UNK     1      -3.005  -2.281   2.804  1.00  0.00     0.195 C 
HETATM    6  C4  UNK     1      -1.717  -1.892   2.063  1.00  0.00     0.181 C 
HETATM    7  O1  UNK     1      -1.985  -1.653   0.678  1.00  0.00    -0.348 OA
BRANCH   3   8
HETATM    8  O4  UNK     1      -4.904  -1.912   0.423  1.00  0.00    -0.308 OA
BRANCH   8   9
HETATM    9  C10 UNK     1      -5.672  -1.539  -0.642  1.00  0.00     0.255 C 
HETATM   10  O9  UNK     1      -5.851  -0.395  -1.039  1.00  0.00    -0.266 OA
HETATM   11  C16 UNK     1      -6.280  -2.752  -1.277  1.00  0.00     0.126 C 
ENDBRANCH   8   9
ENDBRANCH   3   8
BRANCH   4  12
HETATM   12  O2  UNK     1      -3.761  -0.073   3.359  1.00  0.00    -0.311 OA
BRANCH  12  13
HETATM   13  C8  UNK     1      -4.814   0.644   3.851  1.00  0.00     0.255 C 
HETATM   14  C13 UNK     1      -4.307   1.825   4.621  1.00  0.00     0.126 C 
HETATM   15  O7  UNK     1      -6.000   0.383   3.699  1.00  0.00    -0.266 OA
ENDBRANCH  12  13
ENDBRANCH   4  12
BRANCH   5  16
HETATM   16  O3  UNK     1      -3.474  -3.550   2.355  1.00  0.00    -0.311 OA
BRANCH  16  17
HETATM   17  C9  UNK     1      -4.129  -4.302   3.288  1.00  0.00     0.255 C 
HETATM   18  C14 UNK     1      -4.562  -5.601   2.678  1.00  0.00     0.126 C 
HETATM   19  O8  UNK     1      -4.344  -3.986   4.450  1.00  0.00    -0.266 OA
ENDBRANCH  16  17
ENDBRANCH   5  16
BRANCH   6  20
HETATM   20  C6  UNK     1      -0.656  -2.985   2.136  1.00  0.00     0.213 C 
BRANCH  20  21
HETATM   21  O6  UNK     1       0.606  -2.410   1.850  1.00  0.00    -0.319 OA
BRANCH  21  22
HETATM   22  C15 UNK     1       0.978  -2.403   0.532  1.00  0.00     0.254 C 
HETATM   23  O12 UNK     1       0.321  -2.846  -0.401  1.00  0.00    -0.266 OA
HETATM   24  C20 UNK     1       2.327  -1.767   0.381  1.00  0.00     0.126 C 
ENDBRANCH  21  22
ENDBRANCH  20  21
ENDBRANCH   6  20
ENDBRANCH   1   2
BRANCH   1  25
HETATM   25  C7  UNK     1      -1.186   1.035   0.226  1.00  0.00     0.077 A 
HETATM   26  C11 UNK     1      -1.088   1.132  -1.162  1.00  0.00     0.075 A 
HETATM   27  C17 UNK     1       0.125   1.493  -1.749  1.00  0.00     0.094 A 
HETATM   28  O10 UNK     1       0.161   1.572  -3.117  1.00  0.00    -0.321 OA
HETATM   29  C19 UNK     1       1.237   1.756  -0.949  1.00  0.00     0.083 A 
HETATM   30  C23 UNK     1       1.347   1.943  -3.703  1.00  0.00     0.159 A 
HETATM   31  C22 UNK     1       2.500   2.225  -3.078  1.00  0.00     0.048 A 
HETATM   32  C21 UNK     1       2.510   2.132  -1.592  1.00  0.00     0.200 A 
HETATM   33  O13 UNK     1       3.517   2.342  -0.928  1.00  0.00    -0.286 OA
HETATM   34  C18 UNK     1       1.142   1.658   0.441  1.00  0.00     0.098 A 
HETATM   35  C12 UNK     1      -0.073   1.298   1.026  1.00  0.00     0.075 A 
BRANCH  31  36
HETATM   36  C24 UNK     1       3.692   2.628  -3.841  1.00  0.00    -0.020 A 
HETATM   37  C26 UNK     1       4.232   1.767  -4.797  1.00  0.00     0.015 A 
HETATM   38  C29 UNK     1       5.362   2.148  -5.520  1.00  0.00     0.037 A 
HETATM   39  C31 UNK     1       5.952   3.391  -5.288  1.00  0.00     0.068 A 
HETATM   40  C30 UNK     1       5.412   4.252  -4.332  1.00  0.00     0.037 A 
HETATM   41  C27 UNK     1       4.282   3.870  -3.609  1.00  0.00     0.015 A 
BRANCH  39  42
HETATM   42  O15 UNK     1       7.055   3.763  -5.994  1.00  0.00    -0.356 OA
HETATM   43  C32 UNK     1       7.607   5.047  -5.706  1.00  0.00     0.210 C 
ENDBRANCH  39  42
ENDBRANCH  31  36
BRANCH  34  44
HETATM   44  O11 UNK     1       2.197   1.902   1.269  1.00  0.00    -0.278 OA
BRANCH  44  45
HETATM   45  C25 UNK     1       2.304   3.240   1.681  1.00  0.00     0.260 C 
HETATM   46  O14 UNK     1       1.552   4.151   1.359  1.00  0.00    -0.265 OA
HETATM   47  C28 UNK     1       3.490   3.405   2.584  1.00  0.00     0.126 C 
ENDBRANCH  44  45
ENDBRANCH  34  44
ENDBRANCH   1  25
TORSDOF 15
