REMARK  5 active torsions:
REMARK  status: ('A' for Active; 'I' for Inactive)
REMARK    1  A    between atoms: C13_19  and  O3_3 
REMARK    2  A    between atoms: C18_24  and  O3_3 
REMARK    3  A    between atoms: C5_11  and  N1_5 
REMARK       I    between atoms: C6_12  and  N2_6 
REMARK    4  A    between atoms: C5_11  and  C8_14 
REMARK    5  A    between atoms: C6_12  and  C7_13 
ROOT
HETATM    1  O2  UNK     1       2.126   0.129  -0.719  1.00  0.00    -0.271 OA
HETATM    2  O4  UNK     1       1.189  -1.871  -0.132  1.00  0.00    -0.259 OA
HETATM    3  C7  UNK     1      -0.196  -0.354  -1.313  1.00  0.00     0.108 A 
HETATM    4  C9  UNK     1      -0.321   0.840  -1.903  1.00  0.00     0.037 A 
HETATM    5  C10 UNK     1       0.801   1.766  -1.932  1.00  0.00     0.002 A 
HETATM    6  C11 UNK     1       1.070  -0.777  -0.674  1.00  0.00     0.304 A 
HETATM    7  C12 UNK     1       2.000   1.387  -1.339  1.00  0.00     0.123 A 
HETATM    8  C13 UNK     1       3.113   2.226  -1.332  1.00  0.00     0.103 A 
HETATM    9  C14 UNK     1       0.714   3.022  -2.537  1.00  0.00     0.014 A 
HETATM   10  C16 UNK     1       3.018   3.478  -1.937  1.00  0.00     0.040 A 
HETATM   11  C17 UNK     1       1.822   3.875  -2.538  1.00  0.00     0.004 A 
ENDROOT
BRANCH   3  12
HETATM   12  C6  UNK     1      -1.391  -1.222  -1.335  1.00  0.00     0.260 C 
HETATM   13  O1  UNK     1      -1.523  -1.986  -2.293  1.00  0.00    -0.267 OA
HETATM   14  N2  UNK     1      -2.290  -1.114  -0.277  1.00  0.00    -0.344 N 
HETATM   15  C3  UNK     1      -2.163  -0.216   0.878  1.00  0.00     0.156 C 
HETATM   16  C4  UNK     1      -3.558  -1.843  -0.345  1.00  0.00     0.156 C 
HETATM   17  C1  UNK     1      -2.556  -0.915   2.182  1.00  0.00     0.292 C 
HETATM   18  N1  UNK     1      -3.883  -1.536   2.076  1.00  0.00     0.095 N 
HETATM   19  C2  UNK     1      -3.897  -2.517   0.982  1.00  0.00     0.292 C 
BRANCH  18  20
HETATM   20  C5  UNK     1      -4.256  -2.170   3.340  1.00  0.00     0.299 C 
BRANCH  20  21
HETATM   21  C8  UNK     1      -4.303  -1.179   4.462  1.00  0.00    -0.007 C 
HETATM   22  C15 UNK     1      -3.556  -1.266   5.568  1.00  0.00     0.008 C 
ENDBRANCH  20  21
ENDBRANCH  18  20
ENDBRANCH   3  12
BRANCH   8  23
HETATM   23  O3  UNK     1       4.280   1.844  -0.748  1.00  0.00    -0.349 OA
BRANCH  23  24
HETATM   24  C18 UNK     1       5.486   2.371  -1.300  1.00  0.00     0.171 C 
HETATM   25  C19 UNK     1       6.605   1.375  -1.080  1.00  0.00     0.034 C 
ENDBRANCH  23  24
ENDBRANCH   8  23
TORSDOF 5
