REMARK  6 active torsions:
REMARK  status: ('A' for Active; 'I' for Inactive)
REMARK    1  A    between atoms: C21_28  and  O3_3 
REMARK    2  A    between atoms: C23_30  and  O3_3 
REMARK       I    between atoms: C11_18  and  N1_5 
REMARK    3  A    between atoms: C10_17  and  N2_6 
REMARK    4  A    between atoms: C13_20  and  N3_7 
REMARK    5  A    between atoms: C10_17  and  C11_18 
REMARK    6  A    between atoms: C13_20  and  C14_21 
ROOT
HETATM    1  N2  UNK     1      -0.947  -1.751   0.916  1.00  0.00     0.100 N 
HETATM    2  N3  UNK     1       1.065  -0.571  -0.794  1.00  0.00     0.096 N 
HETATM    3  C6  UNK     1       0.371  -1.370   1.440  1.00  0.00     0.303 C 
HETATM    4  C7  UNK     1      -1.317  -0.890  -0.214  1.00  0.00     0.303 C 
HETATM    5  C8  UNK     1       1.434  -1.432   0.337  1.00  0.00     0.303 C 
HETATM    6  C9  UNK     1      -0.254  -0.950  -1.317  1.00  0.00     0.303 C 
ENDROOT
BRANCH   2   7
HETATM    7  C13 UNK     1       2.078  -0.633  -1.846  1.00  0.00     0.312 C 
BRANCH   7   8
HETATM    8  C14 UNK     1       2.052   0.571  -2.721  1.00  0.00    -0.011 A 
HETATM    9  C15 UNK     1       2.874   1.741  -2.383  1.00  0.00     0.009 A 
HETATM   10  C17 UNK     1       2.830   2.855  -3.223  1.00  0.00     0.090 A 
HETATM   11  C18 UNK     1       3.708   1.808  -1.259  1.00  0.00     0.051 A 
HETATM   12  O2  UNK     1       2.017   2.867  -4.374  1.00  0.00    -0.275 OA
HETATM   13  C20 UNK     1       3.579   4.007  -2.974  1.00  0.00     0.041 A 
HETATM   14  C19 UNK     1       1.232   1.778  -4.719  1.00  0.00     0.288 A 
HETATM   15  C16 UNK     1       1.290   0.611  -3.823  1.00  0.00     0.092 A 
HETATM   16  O4  UNK     1       0.522   1.778  -5.719  1.00  0.00    -0.260 OA
HETATM   17  C22 UNK     1       4.400   4.053  -1.853  1.00  0.00     0.039 A 
HETATM   18  C21 UNK     1       4.465   2.956  -0.997  1.00  0.00     0.069 A 
BRANCH  18  19
HETATM   19  O3  UNK     1       5.270   3.000   0.101  1.00  0.00    -0.351 OA
BRANCH  19  20
HETATM   20  C23 UNK     1       4.860   2.240   1.237  1.00  0.00     0.171 C 
HETATM   21  C24 UNK     1       5.369   2.916   2.492  1.00  0.00     0.034 C 
ENDBRANCH  19  20
ENDBRANCH  18  19
ENDBRANCH   7   8
ENDBRANCH   2   7
BRANCH   1  22
HETATM   22  C10 UNK     1      -1.960  -1.691   1.968  1.00  0.00     0.374 C 
BRANCH  22  23
HETATM   23  C11 UNK     1      -3.143  -2.569   1.645  1.00  0.00     0.248 C 
HETATM   24  O1  UNK     1      -3.131  -3.240   0.611  1.00  0.00    -0.271 OA
HETATM   25  N1  UNK     1      -4.196  -2.559   2.560  1.00  0.00    -0.351 N 
HETATM   26  C4  UNK     1      -5.363  -3.414   2.337  1.00  0.00     0.126 C 
HETATM   27  C5  UNK     1      -4.239  -1.771   3.798  1.00  0.00     0.126 C 
HETATM   28  C2  UNK     1      -6.651  -2.594   2.360  1.00  0.00     0.024 C 
HETATM   29  C1  UNK     1      -6.765  -1.775   3.655  1.00  0.00    -0.015 C 
HETATM   30  C3  UNK     1      -5.505  -0.918   3.853  1.00  0.00     0.024 C 
HETATM   31  C12 UNK     1      -8.018  -0.903   3.638  1.00  0.00     0.010 C 
ENDBRANCH  22  23
ENDBRANCH   1  22
TORSDOF 6
