REMARK  5 active torsions:
REMARK  status: ('A' for Active; 'I' for Inactive)
REMARK    1  A    between atoms: C20_25  and  O2_2 
REMARK    2  A    between atoms: C7_12  and  O2_2 
REMARK    3  A    between atoms: C4_9  and  N1_5 
REMARK       I    between atoms: C9_14  and  N1_5 
REMARK    4  A    between atoms: C3_8  and  C8_13 
REMARK    5  A    between atoms: C5_10  and  C9_14 
ROOT
HETATM    1  O3  UNK     1       0.744  -0.210   2.957  1.00  0.00    -0.267 OA
HETATM    2  N1  UNK     1      -0.969  -0.559   1.379  1.00  0.00    -0.322 N 
HETATM    3  C9  UNK     1       0.289  -0.168   1.815  1.00  0.00     0.262 C 
HETATM    4  H2  UNK     1      -1.185  -0.431   0.395  1.00  0.00     0.169 HD
ENDROOT
BRANCH   3   5
HETATM    5  C5  UNK     1       1.119   0.348   0.720  1.00  0.00     0.108 A 
HETATM    6  C11 UNK     1       0.967  -0.130  -0.673  1.00  0.00     0.304 A 
HETATM    7  O1  UNK     1       1.812   0.435  -1.624  1.00  0.00    -0.271 OA
HETATM    8  O4  UNK     1       0.139  -0.982  -0.979  1.00  0.00    -0.259 OA
HETATM    9  C2  UNK     1       2.766   1.413  -1.282  1.00  0.00     0.123 A 
HETATM   10  C1  UNK     1       2.893   1.848   0.033  1.00  0.00     0.002 A 
HETATM   11  C7  UNK     1       3.567   1.920  -2.303  1.00  0.00     0.103 A 
HETATM   12  C6  UNK     1       2.023   1.277   1.050  1.00  0.00     0.037 A 
HETATM   13  C10 UNK     1       3.851   2.819   0.333  1.00  0.00     0.014 A 
HETATM   14  C15 UNK     1       4.663   3.337  -0.681  1.00  0.00     0.004 A 
HETATM   15  C14 UNK     1       4.520   2.889  -1.996  1.00  0.00     0.040 A 
BRANCH  11  16
HETATM   16  O2  UNK     1       3.432   1.487  -3.585  1.00  0.00    -0.349 OA
BRANCH  16  17
HETATM   17  C20 UNK     1       3.745   2.416  -4.623  1.00  0.00     0.171 C 
HETATM   18  C24 UNK     1       2.906   2.094  -5.841  1.00  0.00     0.034 C 
ENDBRANCH  16  17
ENDBRANCH  11  16
ENDBRANCH   3   5
BRANCH   2  19
HETATM   19  C4  UNK     1      -2.023  -1.101   2.156  1.00  0.00     0.046 A 
HETATM   20  C13 UNK     1      -1.807  -1.274   3.515  1.00  0.00     0.030 A 
HETATM   21  C17 UNK     1      -2.826  -1.803   4.307  1.00  0.00     0.002 A 
HETATM   22  C16 UNK     1      -4.047  -2.154   3.731  1.00  0.00     0.001 A 
HETATM   23  C12 UNK     1      -4.249  -1.975   2.362  1.00  0.00     0.014 A 
HETATM   24  C3  UNK     1      -3.231  -1.445   1.570  1.00  0.00     0.001 A 
BRANCH  24  25
HETATM   25  C8  UNK     1      -3.472  -1.269   0.151  1.00  0.00    -0.024 A 
HETATM   26  C18 UNK     1      -4.005  -0.071  -0.319  1.00  0.00     0.012 A 
HETATM   27  C21 UNK     1      -4.237   0.099  -1.684  1.00  0.00     0.001 A 
HETATM   28  C23 UNK     1      -3.935  -0.931  -2.576  1.00  0.00     0.000 A 
HETATM   29  C22 UNK     1      -3.403  -2.130  -2.102  1.00  0.00     0.001 A 
HETATM   30  C19 UNK     1      -3.170  -2.299  -0.737  1.00  0.00     0.012 A 
ENDBRANCH  24  25
ENDBRANCH   2  19
TORSDOF 5
