REMARK  8 active torsions:
REMARK  status: ('A' for Active; 'I' for Inactive)
REMARK    1  A    between atoms: C12_21  and  O2_2 
REMARK    2  A    between atoms: C14_23  and  O5_5 
REMARK    3  A    between atoms: C21_30  and  O5_5 
REMARK    4  A    between atoms: C25_34  and  O8_8 
REMARK    5  A    between atoms: C12_21  and  C2_11 
REMARK    6  A    between atoms: C11_20  and  C6_15 
REMARK    7  A    between atoms: C14_23  and  C8_17 
REMARK    8  A    between atoms: C21_30  and  C25_34 
ROOT
HETATM    1  O1  UNK     1      -0.564  -2.769   0.944  1.00  0.00    -0.292 OA
HETATM    2  N1  UNK     1      -2.890   0.575  -1.473  1.00  0.00    -0.362 N 
HETATM    3  C1  UNK     1      -4.056  -1.765   1.231  1.00  0.00     0.008 C 
HETATM    4  C2  UNK     1      -2.701  -2.166   1.827  1.00  0.00     0.164 C 
HETATM    5  C3  UNK     1      -3.963  -0.421   0.496  1.00  0.00     0.063 C 
HETATM    6  C4  UNK     1      -1.663  -1.066  -0.286  1.00  0.00     0.025 C 
HETATM    7  C5  UNK     1      -2.777  -0.318  -0.425  1.00  0.00     0.020 C 
HETATM    8  C6  UNK     1      -0.486  -0.912  -1.247  1.00  0.00     0.104 C 
HETATM    9  C7  UNK     1      -1.568  -2.067   0.821  1.00  0.00     0.172 C 
HETATM   10  C8  UNK     1      -0.805  -0.000  -2.434  1.00  0.00     0.052 C 
HETATM   11  C9  UNK     1      -4.597  -2.866   0.306  1.00  0.00     0.011 C 
HETATM   12  C10 UNK     1      -1.959   0.704  -2.492  1.00  0.00     0.018 C 
HETATM   13  C13 UNK     1      -2.376   1.623  -3.609  1.00  0.00     0.069 C 
HETATM   14  H9  UNK     1      -3.747   1.111  -1.547  1.00  0.00     0.165 HD
ENDROOT
BRANCH   8  15
HETATM   15  C11 UNK     1       0.726  -0.401  -0.515  1.00  0.00     0.029 A 
HETATM   16  C15 UNK     1       0.657   0.938   0.123  1.00  0.00     0.194 A 
HETATM   17  O7  UNK     1      -0.350   1.633   0.071  1.00  0.00    -0.287 OA
HETATM   18  C17 UNK     1       1.872   1.392   0.825  1.00  0.00     0.048 A 
HETATM   19  C18 UNK     1       2.991   0.558   0.851  1.00  0.00     0.089 A 
HETATM   20  C19 UNK     1       1.907   2.637   1.456  1.00  0.00     0.018 A 
HETATM   21  O4  UNK     1       3.012  -0.674   0.248  1.00  0.00    -0.321 OA
HETATM   22  C22 UNK     1       4.151   0.967   1.509  1.00  0.00     0.038 A 
HETATM   23  C16 UNK     1       1.873  -1.083  -0.402  1.00  0.00     0.154 A 
HETATM   24  C24 UNK     1       4.189   2.210   2.141  1.00  0.00     0.003 A 
HETATM   25  C23 UNK     1       3.069   3.043   2.114  1.00  0.00     0.001 A 
ENDBRANCH   8  15
BRANCH  10  26
HETATM   26  C14 UNK     1       0.207   0.062  -3.502  1.00  0.00     0.292 C 
HETATM   27  O6  UNK     1       0.214  -0.689  -4.460  1.00  0.00    -0.259 OA
BRANCH  26  28
HETATM   28  O5  UNK     1       1.071   1.065  -3.214  1.00  0.00    -0.316 OA
BRANCH  28  29
HETATM   29  C21 UNK     1       2.121   1.253  -4.169  1.00  0.00     0.205 C 
BRANCH  29  30
HETATM   30  C25 UNK     1       3.001   2.401  -3.715  1.00  0.00     0.193 C 
BRANCH  30  31
HETATM   31  O8  UNK     1       3.538   2.097  -2.433  1.00  0.00    -0.394 OA
HETATM   32  C26 UNK     1       4.391   3.133  -1.967  1.00  0.00     0.201 C 
ENDBRANCH  30  31
ENDBRANCH  29  30
ENDBRANCH  28  29
ENDBRANCH  26  28
ENDBRANCH  10  26
BRANCH   4  33
HETATM   33  C12 UNK     1      -2.421  -1.364   3.063  1.00  0.00     0.270 C 
HETATM   34  O3  UNK     1      -1.431  -0.662   3.214  1.00  0.00    -0.264 OA
BRANCH  33  35
HETATM   35  O2  UNK     1      -3.430  -1.546   3.962  1.00  0.00    -0.326 OA
HETATM   36  C20 UNK     1      -3.290  -0.834   5.195  1.00  0.00     0.213 C 
ENDBRANCH  33  35
ENDBRANCH   4  33
TORSDOF 8
