REMARK  2 active torsions:
REMARK  status: ('A' for Active; 'I' for Inactive)
REMARK       I    between atoms: C5_11  and  N1_6 
REMARK    1  A    between atoms: C7_13  and  N1_6 
REMARK    2  A    between atoms: C2_8  and  C5_11 
ROOT
HETATM    1  O2  UNK     1      -0.920  -0.736  -1.884  1.00  0.00    -0.267 OA
HETATM    2  N1  UNK     1      -0.879  -0.330   0.435  1.00  0.00    -0.323 N 
HETATM    3  C5  UNK     1      -0.399  -0.283  -0.867  1.00  0.00     0.262 C 
HETATM    4  H3  UNK     1      -0.332   0.115   1.168  1.00  0.00     0.169 HD
ENDROOT
BRANCH   3   5
HETATM    5  C2  UNK     1       0.894   0.407  -0.955  1.00  0.00     0.108 A 
HETATM    6  C4  UNK     1       1.146   1.045  -2.104  1.00  0.00     0.037 A 
HETATM    7  C1  UNK     1       2.400   1.757  -2.288  1.00  0.00    -0.001 A 
HETATM    8  C3  UNK     1       3.328   1.764  -1.251  1.00  0.00     0.089 A 
HETATM    9  C6  UNK     1       2.705   2.437  -3.470  1.00  0.00     0.014 A 
HETATM   10  O1  UNK     1       3.057   1.091  -0.044  1.00  0.00    -0.274 OA
HETATM   11  C9  UNK     1       4.549   2.427  -1.363  1.00  0.00     0.038 A 
HETATM   12  C8  UNK     1       1.866   0.400   0.161  1.00  0.00     0.304 A 
HETATM   13  O3  UNK     1       1.639  -0.184   1.215  1.00  0.00    -0.259 OA
HETATM   14  C11 UNK     1       4.845   3.101  -2.545  1.00  0.00     0.003 A 
HETATM   15  C10 UNK     1       3.926   3.107  -3.596  1.00  0.00     0.001 A 
ENDBRANCH   3   5
BRANCH   2  16
HETATM   16  C7  UNK     1      -2.088  -0.912   0.889  1.00  0.00     0.036 A 
HETATM   17  C12 UNK     1      -2.400  -0.859   2.237  1.00  0.00     0.050 A 
HETATM   18  C14 UNK     1      -3.590  -1.433   2.684  1.00  0.00     0.030 A 
HETATM   19 Br1  UNK     1      -3.957  -1.325   4.546  1.00  0.00    -0.050 Br
HETATM   20  C16 UNK     1      -4.450  -2.051   1.776  1.00  0.00     0.028 A 
HETATM   21 Br2  UNK     1      -6.091  -2.859   2.292  1.00  0.00    -0.050 Br
HETATM   22  C15 UNK     1      -4.120  -2.096   0.422  1.00  0.00     0.023 A 
HETATM   23  C13 UNK     1      -2.930  -1.522  -0.025  1.00  0.00     0.031 A 
ENDBRANCH   2  16
TORSDOF 2
