REMARK  6 active torsions:
REMARK  status: ('A' for Active; 'I' for Inactive)
REMARK    1  A    between atoms: C19_26  and  O4_4 
REMARK    2  A    between atoms: C5_12  and  N1_5 
REMARK    3  A    between atoms: C6_13  and  N2_6 
REMARK    4  A    between atoms: C17_24  and  N3_7 
REMARK       I    between atoms: C9_16  and  N3_7 
REMARK    5  A    between atoms: C5_12  and  C7_14 
REMARK    6  A    between atoms: C6_13  and  C9_16 
ROOT
HETATM    1  N1  UNK     1       2.073  -0.231  -0.868  1.00  0.00     0.096 N 
HETATM    2  N2  UNK     1       0.160  -1.375   0.973  1.00  0.00     0.100 N 
HETATM    3  C1  UNK     1       0.667  -0.416  -1.247  1.00  0.00     0.303 C 
HETATM    4  C2  UNK     1       2.475  -1.240   0.120  1.00  0.00     0.303 C 
HETATM    5  C3  UNK     1      -0.242  -0.366  -0.015  1.00  0.00     0.303 C 
HETATM    6  C4  UNK     1       1.566  -1.188   1.353  1.00  0.00     0.303 C 
ENDROOT
BRANCH   2   7
HETATM    7  C6  UNK     1      -0.706  -1.325   2.149  1.00  0.00     0.375 C 
BRANCH   7   8
HETATM    8  C9  UNK     1      -2.004  -2.056   1.852  1.00  0.00     0.250 C 
HETATM    9  O2  UNK     1      -2.067  -3.002   1.073  1.00  0.00    -0.271 OA
HETATM   10  N3  UNK     1      -3.050  -1.497   2.583  1.00  0.00    -0.323 N 
HETATM   11  H15 UNK     1      -2.834  -0.719   3.202  1.00  0.00     0.169 HD
BRANCH  10  12
HETATM   12  C17 UNK     1      -4.409  -1.892   2.586  1.00  0.00     0.069 A 
HETATM   13  C19 UNK     1      -5.342  -1.226   3.381  1.00  0.00     0.095 A 
HETATM   14  C22 UNK     1      -6.678  -1.626   3.372  1.00  0.00     0.039 A 
HETATM   15  C23 UNK     1      -7.081  -2.693   2.569  1.00  0.00     0.009 A 
HETATM   16  C21 UNK     1      -6.148  -3.359   1.774  1.00  0.00    -0.060 A 
HETATM   17  C20 UNK     1      -4.812  -2.958   1.783  1.00  0.00     0.039 A 
HETATM   18  C24 UNK     1      -6.580  -4.500   0.916  1.00  0.00     0.048 C 
BRANCH  13  19
HETATM   19  O4  UNK     1      -4.969  -0.180   4.172  1.00  0.00    -0.354 OA
HETATM   20  C25 UNK     1      -5.028   1.122   3.595  1.00  0.00     0.210 C 
ENDBRANCH  13  19
ENDBRANCH  10  12
ENDBRANCH   7   8
ENDBRANCH   2   7
BRANCH   1  21
HETATM   21  C5  UNK     1       2.939  -0.283  -2.045  1.00  0.00     0.312 C 
BRANCH  21  22
HETATM   22  C7  UNK     1       2.947   1.004  -2.795  1.00  0.00    -0.011 A 
HETATM   23  C10 UNK     1       2.066   1.238  -3.778  1.00  0.00     0.092 A 
HETATM   24  C13 UNK     1       2.036   2.494  -4.546  1.00  0.00     0.288 A 
HETATM   25  O1  UNK     1       2.976   3.455  -4.207  1.00  0.00    -0.275 OA
HETATM   26  O3  UNK     1       1.215   2.674  -5.439  1.00  0.00    -0.260 OA
HETATM   27  C11 UNK     1       3.914   3.237  -3.178  1.00  0.00     0.090 A 
HETATM   28  C8  UNK     1       3.931   2.041  -2.459  1.00  0.00     0.006 A 
HETATM   29  C14 UNK     1       4.814   4.273  -2.924  1.00  0.00     0.045 A 
HETATM   30  C12 UNK     1       4.896   1.902  -1.452  1.00  0.00     0.015 A 
HETATM   31  C16 UNK     1       5.805   2.932  -1.185  1.00  0.00     0.007 A 
HETATM   32  C15 UNK     1       5.764   4.116  -1.920  1.00  0.00    -0.059 A 
HETATM   33  C18 UNK     1       6.735   5.209  -1.630  1.00  0.00     0.048 C 
ENDBRANCH  21  22
ENDBRANCH   1  21
TORSDOF 6
