REMARK  3 active torsions:
REMARK  status: ('A' for Active; 'I' for Inactive)
REMARK       I    between atoms: C10_15  and  N1_5 
REMARK    1  A    between atoms: C8_13  and  N1_5 
REMARK    2  A    between atoms: C3_8  and  C8_13 
REMARK    3  A    between atoms: C10_15  and  C11_16 
ROOT
HETATM    1  O1  UNK     1       0.137   1.026   1.876  1.00  0.00    -0.267 OA
HETATM    2  N1  UNK     1      -0.689  -0.838   0.745  1.00  0.00    -0.352 N 
HETATM    3  C10 UNK     1       0.053   0.320   0.877  1.00  0.00     0.258 C 
HETATM    4  H16 UNK     1      -0.622  -1.386  -0.107  1.00  0.00     0.163 HD
ENDROOT
BRANCH   3   5
HETATM    5  C11 UNK     1       0.788   0.668  -0.352  1.00  0.00     0.108 A 
HETATM    6  C13 UNK     1       0.283   0.310  -1.697  1.00  0.00     0.304 A 
HETATM    7  O2  UNK     1       1.067   0.693  -2.782  1.00  0.00    -0.274 OA
HETATM    8  O3  UNK     1      -0.773  -0.295  -1.853  1.00  0.00    -0.259 OA
HETATM    9  C15 UNK     1       2.281   1.387  -2.613  1.00  0.00     0.089 A 
HETATM   10  C14 UNK     1       2.737   1.714  -1.340  1.00  0.00     0.001 A 
HETATM   11  C17 UNK     1       2.996   1.729  -3.759  1.00  0.00     0.040 A 
HETATM   12  C12 UNK     1       1.941   1.327  -0.186  1.00  0.00     0.037 A 
HETATM   13  C16 UNK     1       3.946   2.403  -1.213  1.00  0.00     0.038 A 
HETATM   14  C18 UNK     1       4.675   2.752  -2.354  1.00  0.00     0.035 A 
HETATM   15 Cl1  UNK     1       6.164   3.601  -2.194  1.00  0.00    -0.084 Cl
HETATM   16  C19 UNK     1       4.200   2.416  -3.624  1.00  0.00     0.026 A 
ENDBRANCH   3   5
BRANCH   2  17
HETATM   17  C8  UNK     1      -1.491  -1.381   1.816  1.00  0.00     0.085 C 
HETATM   18  C9  UNK     1      -0.649  -2.308   2.685  1.00  0.00     0.032 C 
BRANCH  17  19
HETATM   19  C3  UNK     1      -2.712  -2.097   1.263  1.00  0.00     0.012 C 
HETATM   20  C1  UNK     1      -3.718  -2.623   2.314  1.00  0.00    -0.008 C 
HETATM   21  C4  UNK     1      -4.954  -2.852   1.438  1.00  0.00     0.010 C 
HETATM   22  C6  UNK     1      -4.216  -1.500   3.239  1.00  0.00     0.005 C 
HETATM   23  C2  UNK     1      -5.001  -1.398   0.968  1.00  0.00    -0.014 C 
HETATM   24  C5  UNK     1      -3.596  -1.205   0.366  1.00  0.00     0.011 C 
HETATM   25  C7  UNK     1      -5.073  -0.637   2.303  1.00  0.00     0.005 C 
ENDBRANCH  17  19
ENDBRANCH   2  17
TORSDOF 3
