REMARK  7 active torsions:
REMARK  status: ('A' for Active; 'I' for Inactive)
REMARK    1  A    between atoms: C15_24  and  O3_5 
REMARK    2  A    between atoms: C20_29  and  O3_5 
REMARK    3  A    between atoms: C5_14  and  N1_7 
REMARK    4  A    between atoms: C6_15  and  N2_8 
REMARK    5  A    between atoms: C17_26  and  N3_9 
REMARK       I    between atoms: C9_18  and  N3_9 
REMARK    6  A    between atoms: C5_14  and  C7_16 
REMARK    7  A    between atoms: C6_15  and  C9_18 
ROOT
HETATM    1  N1  UNK     1       1.301  -0.471  -1.437  1.00  0.00     0.096 N 
HETATM    2  N2  UNK     1      -1.385  -1.524  -1.243  1.00  0.00     0.100 N 
HETATM    3  C1  UNK     1       0.711  -1.259  -2.526  1.00  0.00     0.303 C 
HETATM    4  C2  UNK     1       0.731  -0.873  -0.145  1.00  0.00     0.303 C 
HETATM    5  C3  UNK     1      -0.816  -1.121  -2.535  1.00  0.00     0.303 C 
HETATM    6  C4  UNK     1      -0.795  -0.734  -0.155  1.00  0.00     0.303 C 
ENDROOT
BRANCH   1   7
HETATM    7  C5  UNK     1       2.756  -0.606  -1.427  1.00  0.00     0.312 C 
BRANCH   7   8
HETATM    8  C7  UNK     1       3.419   0.503  -0.688  1.00  0.00    -0.011 A 
HETATM    9  C10 UNK     1       3.663   0.410   0.627  1.00  0.00     0.092 A 
HETATM   10  C13 UNK     1       4.315   1.480   1.401  1.00  0.00     0.288 A 
HETATM   11  O1  UNK     1       4.679   2.621   0.702  1.00  0.00    -0.275 OA
HETATM   12  O4  UNK     1       4.522   1.360   2.603  1.00  0.00    -0.260 OA
HETATM   13  C11 UNK     1       4.435   2.748  -0.680  1.00  0.00     0.090 A 
HETATM   14  C8  UNK     1       3.816   1.725  -1.400  1.00  0.00     0.009 A 
HETATM   15  C14 UNK     1       4.844   3.941  -1.279  1.00  0.00     0.041 A 
HETATM   16  C12 UNK     1       3.608   1.930  -2.771  1.00  0.00     0.051 A 
HETATM   17  C15 UNK     1       4.012   3.121  -3.386  1.00  0.00     0.069 A 
HETATM   18  C16 UNK     1       4.629   4.124  -2.641  1.00  0.00     0.039 A 
BRANCH  17  19
HETATM   19  O3  UNK     1       3.800   3.299  -4.719  1.00  0.00    -0.351 OA
BRANCH  19  20
HETATM   20  C20 UNK     1       3.595   4.637  -5.170  1.00  0.00     0.171 C 
HETATM   21  C24 UNK     1       2.707   4.614  -6.396  1.00  0.00     0.034 C 
ENDBRANCH  19  20
ENDBRANCH  17  19
ENDBRANCH   7   8
ENDBRANCH   1   7
BRANCH   2  22
HETATM   22  C6  UNK     1      -2.840  -1.391  -1.252  1.00  0.00     0.375 C 
BRANCH  22  23
HETATM   23  C9  UNK     1      -3.433  -2.247  -0.146  1.00  0.00     0.250 C 
HETATM   24  O2  UNK     1      -3.272  -3.462  -0.093  1.00  0.00    -0.271 OA
HETATM   25  N3  UNK     1      -4.146  -1.452   0.749  1.00  0.00    -0.326 N 
HETATM   26  H15 UNK     1      -4.183  -0.451   0.572  1.00  0.00     0.169 HD
BRANCH  25  27
HETATM   27  C17 UNK     1      -4.843  -1.868   1.908  1.00  0.00     0.036 A 
HETATM   28  C18 UNK     1      -5.508  -0.930   2.697  1.00  0.00     0.056 A 
HETATM   29  C21 UNK     1      -6.195  -1.341   3.840  1.00  0.00     0.074 A 
HETATM   30 Cl1  UNK     1      -7.013  -0.179   4.810  1.00  0.00    -0.081 Cl
HETATM   31  C23 UNK     1      -6.216  -2.690   4.193  1.00  0.00     0.138 A 
HETATM   32  C22 UNK     1      -5.551  -3.628   3.404  1.00  0.00     0.046 A 
HETATM   33  F1  UNK     1      -6.870  -3.101   5.289  1.00  0.00    -0.204 F 
HETATM   34  C19 UNK     1      -4.864  -3.218   2.261  1.00  0.00     0.032 A 
ENDBRANCH  25  27
ENDBRANCH  22  23
ENDBRANCH   2  22
TORSDOF 7
