REMARK  3 active torsions:
REMARK  status: ('A' for Active; 'I' for Inactive)
REMARK       I    between atoms: C17_23  and  N1_6 
REMARK    1  A    between atoms: C4_10  and  N1_6 
REMARK    2  A    between atoms: C1_7  and  C3_9 
REMARK    3  A    between atoms: C14_20  and  C17_23 
ROOT
HETATM    1  C1  UNK     1       1.656   0.912  -1.322  1.00  0.00    -0.014 A 
HETATM    2  C2  UNK     1       1.800  -0.346  -0.733  1.00  0.00    -0.049 A 
HETATM    3  C4  UNK     1      -0.509  -0.283  -0.025  1.00  0.00     0.035 A 
HETATM    4  C5  UNK     1       0.719  -0.943  -0.085  1.00  0.00     0.037 A 
HETATM    5  C6  UNK     1       0.427   1.570  -1.261  1.00  0.00     0.015 A 
HETATM    6  C9  UNK     1      -0.655   0.974  -0.613  1.00  0.00     0.030 A 
HETATM    7  C12 UNK     1       3.101  -1.081  -0.777  1.00  0.00     0.049 C 
ENDROOT
BRANCH   3   8
HETATM    8  N1  UNK     1      -1.591  -0.879   0.624  1.00  0.00    -0.322 N 
HETATM    9  C17 UNK     1      -2.887  -0.372   0.783  1.00  0.00     0.264 C 
HETATM   10  O3  UNK     1      -3.311   0.704   0.376  1.00  0.00    -0.267 OA
HETATM   11  H8  UNK     1      -1.405  -1.795   1.028  1.00  0.00     0.169 HD
BRANCH   9  12
HETATM   12  C14 UNK     1      -3.820  -1.237   1.553  1.00  0.00     0.096 A 
HETATM   13  S1  UNK     1      -5.216  -1.729   0.765  1.00  0.00    -0.082 SA
HETATM   14  C15 UNK     1      -5.724  -2.603   2.162  1.00  0.00     0.017 A 
HETATM   15  C11 UNK     1      -4.795  -2.487   3.200  1.00  0.00     0.004 A 
HETATM   16  C21 UNK     1      -6.905  -3.356   2.311  1.00  0.00     0.020 A 
HETATM   17  C16 UNK     1      -3.679  -1.673   2.810  1.00  0.00     0.068 A 
HETATM   18  C20 UNK     1      -5.068  -3.152   4.420  1.00  0.00     0.014 A 
HETATM   19 Cl1  UNK     1      -2.360  -1.332   3.858  1.00  0.00    -0.082 Cl
HETATM   20  C24 UNK     1      -6.239  -3.900   4.572  1.00  0.00     0.001 A 
HETATM   21  C25 UNK     1      -7.146  -3.999   3.527  1.00  0.00     0.001 A 
ENDBRANCH   9  12
ENDBRANCH   3   8
BRANCH   1  22
HETATM   22  C3  UNK     1       2.755   1.556  -1.997  1.00  0.00     0.051 A 
HETATM   23  C13 UNK     1       2.930   1.307  -3.459  1.00  0.00     0.299 A 
HETATM   24  O1  UNK     1       4.012   1.924  -4.084  1.00  0.00    -0.274 OA
HETATM   25  O2  UNK     1       2.159   0.597  -4.099  1.00  0.00    -0.259 OA
HETATM   26  C10 UNK     1       4.896   2.768  -3.389  1.00  0.00     0.089 A 
HETATM   27  C8  UNK     1       4.719   3.008  -2.033  1.00  0.00    -0.001 A 
HETATM   28  C19 UNK     1       5.941   3.348  -4.106  1.00  0.00     0.038 A 
HETATM   29  C18 UNK     1       5.614   3.854  -1.374  1.00  0.00     0.014 A 
HETATM   30  C7  UNK     1       3.609   2.365  -1.349  1.00  0.00     0.032 A 
HETATM   31  C22 UNK     1       6.667   4.444  -2.079  1.00  0.00     0.001 A 
HETATM   32  C23 UNK     1       6.829   4.191  -3.443  1.00  0.00     0.003 A 
ENDBRANCH   1  22
TORSDOF 3
