REMARK  2 active torsions:
REMARK  status: ('A' for Active; 'I' for Inactive)
REMARK    1  A    between atoms: C4_7  and  N1_3 
REMARK    2  A    between atoms: C4_7  and  C7_10 
ROOT
HETATM    1  O1  UNK     1      -1.312  -1.126   2.946  1.00  0.00    -0.275 OA
HETATM    2  O2  UNK     1       0.092   0.210   4.160  1.00  0.00    -0.260 OA
HETATM    3  C7  UNK     1      -1.104   0.745   0.834  1.00  0.00    -0.011 A 
HETATM    4  C8  UNK     1      -1.934  -0.457   0.680  1.00  0.00     0.012 A 
HETATM    5  C11 UNK     1      -2.659  -0.760  -0.480  1.00  0.00    -0.048 A 
HETATM    6  C12 UNK     1      -2.012  -1.357   1.745  1.00  0.00     0.091 A 
HETATM    7  C13 UNK     1      -0.449   0.939   1.987  1.00  0.00     0.092 A 
HETATM    8  C16 UNK     1      -3.431  -1.925  -0.559  1.00  0.00     0.014 A 
HETATM    9  C17 UNK     1      -2.777  -2.523   1.682  1.00  0.00     0.045 A 
HETATM   10  C18 UNK     1      -3.490  -2.805   0.521  1.00  0.00    -0.059 A 
HETATM   11  C19 UNK     1      -0.521  -0.001   3.119  1.00  0.00     0.288 A 
HETATM   12  C20 UNK     1      -2.688   0.088  -1.712  1.00  0.00     0.049 C 
HETATM   13  C21 UNK     1      -4.312  -4.045   0.431  1.00  0.00     0.048 C 
ENDROOT
BRANCH   3  14
HETATM   14  C4  UNK     1      -0.954   1.771  -0.235  1.00  0.00     0.312 C 
BRANCH  14  15
HETATM   15  N1  UNK     1       0.167   1.479  -1.128  1.00  0.00     0.097 N 
HETATM   16  C1  UNK     1       0.253   2.478  -2.201  1.00  0.00     0.277 C 
HETATM   17  C3  UNK     1       1.294   2.041  -3.236  1.00  0.00     0.069 C 
HETATM   18  C6  UNK     1       2.596   1.611  -2.611  1.00  0.00    -0.049 A 
HETATM   19  C10 UNK     1       3.745   1.482  -3.402  1.00  0.00     0.007 A 
HETATM   20  C5  UNK     1       2.650   1.279  -1.247  1.00  0.00    -0.024 A 
HETATM   21  C15 UNK     1       4.945   1.051  -2.837  1.00  0.00     0.001 A 
HETATM   22  C14 UNK     1       5.005   0.742  -1.480  1.00  0.00     0.001 A 
HETATM   23  C9  UNK     1       3.864   0.858  -0.686  1.00  0.00     0.009 A 
HETATM   24  C2  UNK     1       1.430   1.438  -0.369  1.00  0.00     0.311 C 
ENDBRANCH  14  15
ENDBRANCH   3  14
TORSDOF 2
