REMARK  1 active torsions:
REMARK  status: ('A' for Active; 'I' for Inactive)
REMARK    1  A    between atoms: C2_5  and  O2_2 
ROOT
HETATM    1  O1  UNK     1       1.354   0.789   1.144  1.00  0.00    -0.274 OA
HETATM    2  O3  UNK     1       3.166   1.725   0.136  1.00  0.00    -0.259 OA
HETATM    3  C1  UNK     1      -0.438  -0.158  -0.196  1.00  0.00     0.033 A 
HETATM    4  C2  UNK     1       0.308   0.214  -1.400  1.00  0.00     0.093 A 
HETATM    5  C3  UNK     1       0.111   0.142   1.046  1.00  0.00     0.092 A 
HETATM    6  C4  UNK     1       1.502   0.830  -1.312  1.00  0.00     0.048 A 
HETATM    7  C5  UNK     1      -1.681  -0.804  -0.223  1.00  0.00     0.024 A 
HETATM    8  C6  UNK     1      -2.341  -1.132   0.966  1.00  0.00    -0.061 A 
HETATM    9  C7  UNK     1      -0.534  -0.178   2.242  1.00  0.00     0.039 A 
HETATM   10  C8  UNK     1      -1.767  -0.819   2.198  1.00  0.00     0.009 A 
HETATM   11  C9  UNK     1       2.085   1.155   0.022  1.00  0.00     0.297 A 
HETATM   12  C10 UNK     1       2.361   1.246  -2.476  1.00  0.00     0.058 C 
HETATM   13  C11 UNK     1      -3.664  -1.820   0.916  1.00  0.00     0.048 C 
ENDROOT
BRANCH   4  14
HETATM   14  O2  UNK     1      -0.316  -0.118  -2.584  1.00  0.00    -0.354 OA
HETATM   15  C12 UNK     1      -1.148   0.936  -3.028  1.00  0.00     0.210 C 
ENDBRANCH   4  14
TORSDOF 1
