REMARK  3 active torsions:
REMARK  status: ('A' for Active; 'I' for Inactive)
REMARK    1  A    between atoms: C5_11  and  N1_5 
REMARK       I    between atoms: C6_12  and  N1_5 
REMARK       I    between atoms: C17_23  and  N2_6 
REMARK    2  A    between atoms: C7_13  and  N2_6 
REMARK    3  A    between atoms: C2_8  and  C6_12 
ROOT
HETATM    1  O2  UNK     1      -0.398  -0.293  -2.468  1.00  0.00    -0.267 OA
HETATM    2  N1  UNK     1      -0.464  -0.169  -0.113  1.00  0.00    -0.323 N 
HETATM    3  C6  UNK     1       0.076   0.019  -1.377  1.00  0.00     0.262 C 
HETATM    4  H2  UNK     1       0.050   0.169   0.697  1.00  0.00     0.169 HD
ENDROOT
BRANCH   2   5
HETATM    5  C5  UNK     1      -1.693  -0.769   0.178  1.00  0.00     0.037 A 
HETATM    6  C12 UNK     1      -2.496  -1.243  -0.858  1.00  0.00     0.029 A 
HETATM    7  C15 UNK     1      -3.722  -1.841  -0.568  1.00  0.00     0.004 A 
HETATM    8  C13 UNK     1      -4.143  -1.964   0.756  1.00  0.00     0.029 A 
HETATM    9  C7  UNK     1      -3.338  -1.489   1.791  1.00  0.00     0.036 A 
HETATM   10  C8  UNK     1      -2.111  -0.891   1.501  1.00  0.00     0.059 A 
BRANCH   9  11
HETATM   11  N2  UNK     1      -3.759  -1.612   3.115  1.00  0.00    -0.327 N 
HETATM   12  C17 UNK     1      -4.947  -2.178   3.596  1.00  0.00     0.218 C 
HETATM   13  O4  UNK     1      -5.853  -2.682   2.938  1.00  0.00    -0.274 OA
HETATM   14  C18 UNK     1      -5.027  -2.117   5.100  1.00  0.00     0.117 C 
HETATM   15  H11 UNK     1      -3.116  -1.241   3.812  1.00  0.00     0.169 HD
ENDBRANCH   9  11
ENDBRANCH   2   5
BRANCH   3  16
HETATM   16  C2  UNK     1       1.385   0.682  -1.320  1.00  0.00     0.108 A 
HETATM   17  C10 UNK     1       2.300   0.515  -0.169  1.00  0.00     0.304 A 
HETATM   18  O1  UNK     1       3.514   1.194  -0.231  1.00  0.00    -0.274 OA
HETATM   19  O3  UNK     1       2.009  -0.186   0.794  1.00  0.00    -0.259 OA
HETATM   20  C3  UNK     1       3.858   2.001  -1.333  1.00  0.00     0.089 A 
HETATM   21  C1  UNK     1       2.983   2.144  -2.405  1.00  0.00    -0.001 A 
HETATM   22  C11 UNK     1       5.095   2.641  -1.306  1.00  0.00     0.038 A 
HETATM   23  C4  UNK     1       1.706   1.447  -2.370  1.00  0.00     0.037 A 
HETATM   24  C9  UNK     1       3.360   2.954  -3.480  1.00  0.00     0.014 A 
HETATM   25  C14 UNK     1       4.598   3.602  -3.466  1.00  0.00     0.001 A 
HETATM   26  C16 UNK     1       5.463   3.446  -2.381  1.00  0.00     0.003 A 
ENDBRANCH   3  16
TORSDOF 3
