REMARK  9 active torsions:
REMARK  status: ('A' for Active; 'I' for Inactive)
REMARK    1  A    between atoms: C15_23  and  O1_2 
REMARK    2  A    between atoms: C21_29  and  O1_2 
REMARK    3  A    between atoms: C24_32  and  O5_6 
REMARK    4  A    between atoms: C13_21  and  N1_8 
REMARK       I    between atoms: C16_24  and  N1_8 
REMARK    5  A    between atoms: C1_9  and  C2_10 
REMARK    6  A    between atoms: C11_19  and  C8_16 
REMARK    7  A    between atoms: C12_20  and  C15_23 
REMARK    8  A    between atoms: C16_24  and  C17_25 
REMARK    9  A    between atoms: C21_29  and  C22_30 
ROOT
HETATM    1  S1  UNK     1       1.124  -0.006   2.653  1.00  0.00    -0.082 SA
HETATM    2  C11 UNK     1      -1.256  -0.843   2.169  1.00  0.00    -0.000 A 
HETATM    3  C12 UNK     1      -0.731  -0.402   0.920  1.00  0.00     0.085 A 
HETATM    4  C13 UNK     1       0.555   0.077   1.040  1.00  0.00     0.094 A 
HETATM    5  C14 UNK     1      -0.352  -0.684   3.196  1.00  0.00     0.065 A 
ENDROOT
BRANCH   4   6
HETATM    6  N1  UNK     1       1.438   0.600   0.092  1.00  0.00    -0.316 N 
HETATM    7  C16 UNK     1       2.726   1.057   0.336  1.00  0.00     0.262 C 
HETATM    8  O4  UNK     1       3.337   1.093   1.403  1.00  0.00    -0.267 OA
HETATM    9  H15 UNK     1       1.075   0.642  -0.858  1.00  0.00     0.169 HD
BRANCH   7  10
HETATM   10  C17 UNK     1       3.376   1.542  -0.887  1.00  0.00     0.108 A 
HETATM   11  C19 UNK     1       3.759   2.824  -0.884  1.00  0.00     0.037 A 
HETATM   12  C18 UNK     1       4.413   3.396  -2.051  1.00  0.00     0.002 A 
HETATM   13  C20 UNK     1       4.629   2.591  -3.164  1.00  0.00     0.123 A 
HETATM   14  C25 UNK     1       4.831   4.729  -2.092  1.00  0.00     0.014 A 
HETATM   15  C24 UNK     1       5.249   3.078  -4.313  1.00  0.00     0.102 A 
HETATM   16  O2  UNK     1       4.223   1.242  -3.161  1.00  0.00    -0.271 OA
HETATM   17  C26 UNK     1       5.662   4.408  -4.346  1.00  0.00     0.040 A 
HETATM   18  C27 UNK     1       5.454   5.232  -3.238  1.00  0.00     0.004 A 
HETATM   19  C23 UNK     1       3.597   0.666  -2.060  1.00  0.00     0.304 A 
HETATM   20  O6  UNK     1       3.247  -0.509  -2.066  1.00  0.00    -0.259 OA
BRANCH  15  21
HETATM   21  O5  UNK     1       5.454   2.279  -5.395  1.00  0.00    -0.353 OA
HETATM   22  C29 UNK     1       6.097   2.868  -6.525  1.00  0.00     0.210 C 
ENDBRANCH  15  21
ENDBRANCH   7  10
ENDBRANCH   4   6
BRANCH   3  23
HETATM   23  C15 UNK     1      -1.428  -0.436  -0.342  1.00  0.00     0.297 C 
HETATM   24  O3  UNK     1      -0.939  -0.044  -1.411  1.00  0.00    -0.259 OA
BRANCH  23  25
HETATM   25  O1  UNK     1      -2.704  -0.949  -0.262  1.00  0.00    -0.317 OA
BRANCH  25  26
HETATM   26  C21 UNK     1      -3.454  -1.011  -1.481  1.00  0.00     0.178 C 
BRANCH  26  27
HETATM   27  C22 UNK     1      -4.824  -1.601  -1.186  1.00  0.00     0.022 C 
HETATM   28  C28 UNK     1      -5.673  -1.711  -2.439  1.00  0.00     0.007 C 
ENDBRANCH  26  27
ENDBRANCH  25  26
ENDBRANCH  23  25
ENDBRANCH   3  23
BRANCH   2  29
HETATM   29  C8  UNK     1      -2.559  -1.400   2.429  1.00  0.00    -0.024 A 
HETATM   30  C10 UNK     1      -3.622  -0.562   2.764  1.00  0.00     0.013 A 
HETATM   31  C7  UNK     1      -4.884  -1.102   3.014  1.00  0.00     0.009 A 
HETATM   32  C2  UNK     1      -5.081  -2.480   2.930  1.00  0.00    -0.051 A 
HETATM   33  C6  UNK     1      -4.018  -3.318   2.595  1.00  0.00     0.009 A 
HETATM   34  C9  UNK     1      -2.757  -2.778   2.345  1.00  0.00     0.013 A 
BRANCH  32  35
HETATM   35  C1  UNK     1      -6.430  -3.058   3.199  1.00  0.00    -0.024 C 
HETATM   36  C3  UNK     1      -7.495  -2.493   2.208  1.00  0.00     0.019 C 
HETATM   37  C4  UNK     1      -6.910  -2.725   4.646  1.00  0.00     0.019 C 
HETATM   38  C5  UNK     1      -6.530  -4.614   3.076  1.00  0.00     0.019 C 
ENDBRANCH  32  35
ENDBRANCH   2  29
TORSDOF 9
