REMARK  7 active torsions:
REMARK  status: ('A' for Active; 'I' for Inactive)
REMARK    1  A    between atoms: C10_19  and  S1_2 
REMARK    2  A    between atoms: C8_17  and  S1_2 
REMARK    3  A    between atoms: C9_18  and  N2_7 
REMARK    4  A    between atoms: C1_10  and  C2_11 
REMARK    5  A    between atoms: C2_11  and  C3_12 
REMARK    6  A    between atoms: C10_19  and  C13_22 
REMARK    7  A    between atoms: C11_20  and  C13_22 
ROOT
HETATM    1  N1  UNK     1      -2.856   0.776  -0.285  1.00  0.00    -0.222 NA
HETATM    2  N3  UNK     1      -2.572  -4.048  -0.080  1.00  0.00    -0.191 NA
HETATM    3  N4  UNK     1      -2.131   1.137   4.476  1.00  0.00    -0.191 NA
HETATM    4  C3  UNK     1      -2.439  -1.076   1.767  1.00  0.00    -0.010 A 
HETATM    5  C6  UNK     1      -2.620  -1.513   0.459  1.00  0.00     0.088 A 
HETATM    6  C7  UNK     1      -2.466   0.285   2.050  1.00  0.00     0.098 A 
HETATM    7  C8  UNK     1      -2.827  -0.561  -0.545  1.00  0.00     0.117 A 
HETATM    8  C9  UNK     1      -2.676   1.162   0.998  1.00  0.00     0.144 A 
HETATM    9  C16 UNK     1      -2.593  -2.915   0.161  1.00  0.00     0.103 C 
HETATM   10  C17 UNK     1      -2.281   0.756   3.391  1.00  0.00     0.104 C 
ENDROOT
BRANCH   4  11
HETATM   11  C2  UNK     1      -2.215  -2.068   2.869  1.00  0.00     0.045 C 
BRANCH  11  12
HETATM   12  C1  UNK     1      -0.729  -2.414   3.117  1.00  0.00    -0.018 C 
HETATM   13  C4  UNK     1       0.015  -1.187   3.650  1.00  0.00     0.010 C 
HETATM   14  C5  UNK     1      -0.042  -2.921   1.847  1.00  0.00     0.010 C 
ENDBRANCH  11  12
ENDBRANCH   4  11
BRANCH   7  15
HETATM   15  S1  UNK     1      -3.069  -0.999  -2.240  1.00  0.00    -0.101 SA
BRANCH  15  16
HETATM   16  C10 UNK     1      -1.668  -0.136  -2.992  1.00  0.00     0.165 C 
BRANCH  16  17
HETATM   17  C13 UNK     1      -0.348  -0.625  -2.432  1.00  0.00     0.175 C 
HETATM   18  O2  UNK     1      -0.151  -1.783  -2.056  1.00  0.00    -0.291 OA
BRANCH  17  19
HETATM   19  C11 UNK     1       0.748   0.350  -2.388  1.00  0.00     0.087 A 
HETATM   20  C14 UNK     1       1.643   0.191  -1.406  1.00  0.00     0.035 A 
HETATM   21  C12 UNK     1       2.765   1.109  -1.281  1.00  0.00     0.000 A 
HETATM   22  C15 UNK     1       2.889   2.149  -2.196  1.00  0.00     0.089 A 
HETATM   23  C19 UNK     1       3.722   0.981  -0.271  1.00  0.00     0.033 A 
HETATM   24  O1  UNK     1       1.944   2.311  -3.228  1.00  0.00    -0.274 OA
HETATM   25  C20 UNK     1       3.940   3.062  -2.131  1.00  0.00     0.039 A 
HETATM   26  C18 UNK     1       0.860   1.449  -3.373  1.00  0.00     0.302 A 
HETATM   27  O3  UNK     1       0.042   1.598  -4.275  1.00  0.00    -0.259 OA
HETATM   28  C22 UNK     1       4.890   2.927  -1.121  1.00  0.00     0.022 A 
HETATM   29  C21 UNK     1       4.782   1.889  -0.193  1.00  0.00     0.011 A 
HETATM   30 Br1  UNK     1       6.076   1.711   1.174  1.00  0.00    -0.051 Br
ENDBRANCH  17  19
ENDBRANCH  16  17
ENDBRANCH  15  16
ENDBRANCH   7  15
BRANCH   8  31
HETATM   31  N2  UNK     1      -2.706   2.554   1.267  1.00  0.00    -0.383 N 
HETATM   32  H13 UNK     1      -3.058   2.868   2.163  1.00  0.00     0.157 HD
HETATM   33  H14 UNK     1      -2.854   3.161   0.470  1.00  0.00     0.157 HD
ENDBRANCH   8  31
TORSDOF 7
