REMARK  3 active torsions:
REMARK  status: ('A' for Active; 'I' for Inactive)
REMARK    1  A    between atoms: C13_19  and  O4_4 
REMARK    2  A    between atoms: C8_14  and  N1_5 
REMARK    3  A    between atoms: C1_7  and  C3_9 
ROOT
HETATM    1  O1  UNK     1       1.507  -0.515   1.756  1.00  0.00    -0.269 OA
HETATM    2  O2  UNK     1       2.733   0.327  -0.055  1.00  0.00    -0.286 OA
HETATM    3  O3  UNK     1      -0.508   2.338  -1.471  1.00  0.00    -0.287 OA
HETATM    4  N2  UNK     1      -2.771   0.088   3.887  1.00  0.00    -0.191 NA
HETATM    5  C1  UNK     1      -0.927   0.730   0.895  1.00  0.00     0.109 C 
HETATM    6  C2  UNK     1       0.391   0.859   0.162  1.00  0.00     0.065 A 
HETATM    7  C4  UNK     1      -0.762   0.058   2.251  1.00  0.00     0.086 C 
HETATM    8  C5  UNK     1       1.511   0.251   0.596  1.00  0.00     0.204 A 
HETATM    9  C6  UNK     1       0.457   1.710  -1.056  1.00  0.00     0.197 A 
HETATM   10  C7  UNK     1       1.754   1.763  -1.745  1.00  0.00     0.049 A 
HETATM   11  C8  UNK     1       0.405  -0.522   2.609  1.00  0.00     0.162 C 
HETATM   12  C9  UNK     1       2.828   1.063  -1.206  1.00  0.00     0.092 A 
HETATM   13  C12 UNK     1       1.911   2.502  -2.920  1.00  0.00     0.018 A 
HETATM   14  C15 UNK     1       4.071   1.096  -1.840  1.00  0.00     0.038 A 
HETATM   15  C17 UNK     1      -1.872   0.075   3.155  1.00  0.00     0.100 C 
HETATM   16  C18 UNK     1       3.155   2.534  -3.553  1.00  0.00     0.001 A 
HETATM   17  C19 UNK     1       4.233   1.832  -3.013  1.00  0.00     0.003 A 
ENDROOT
BRANCH   5  18
HETATM   18  C3  UNK     1      -1.921  -0.023   0.060  1.00  0.00    -0.041 A 
HETATM   19  C10 UNK     1      -1.660  -1.341  -0.300  1.00  0.00     0.044 A 
HETATM   20  C13 UNK     1      -2.585  -2.040  -1.075  1.00  0.00     0.068 A 
HETATM   21  C16 UNK     1      -3.764  -1.418  -1.485  1.00  0.00     0.037 A 
HETATM   22  C14 UNK     1      -4.019  -0.096  -1.119  1.00  0.00     0.003 A 
HETATM   23  C11 UNK     1      -3.094   0.604  -0.344  1.00  0.00     0.008 A 
BRANCH  20  24
HETATM   24  O4  UNK     1      -2.337  -3.331  -1.430  1.00  0.00    -0.356 OA
HETATM   25  C20 UNK     1      -1.112  -3.905  -0.977  1.00  0.00     0.210 C 
ENDBRANCH  20  24
ENDBRANCH   5  18
BRANCH  11  26
HETATM   26  N1  UNK     1       0.635  -1.159   3.798  1.00  0.00    -0.379 N 
HETATM   27  H10 UNK     1       1.548  -1.562   3.967  1.00  0.00     0.158 HD
HETATM   28  H9  UNK     1      -0.091  -1.232   4.499  1.00  0.00     0.158 HD
ENDBRANCH  11  26
TORSDOF 3
