REMARK  7 active torsions:
REMARK  status: ('A' for Active; 'I' for Inactive)
REMARK    1  A    between atoms: N1_6  and  S1_1 
REMARK    2  A    between atoms: C22_29  and  O4_5 
REMARK    3  A    between atoms: C1_8  and  N1_6 
REMARK       I    between atoms: C10_17  and  N2_7 
REMARK    4  A    between atoms: C2_9  and  N2_7 
REMARK    5  A    between atoms: C10_17  and  C5_12 
REMARK    6  A    between atoms: C11_18  and  C5_12 
REMARK    7  A    between atoms: C12_19  and  C13_20 
ROOT
HETATM    1  C5  UNK     1       0.698   0.615  -1.518  1.00  0.00     0.043 C 
HETATM    2  C12 UNK     1       1.184   1.169  -2.648  1.00  0.00     0.029 C 
ENDROOT
BRANCH   1   3
HETATM    3  C10 UNK     1      -0.667  -0.025  -1.633  1.00  0.00     0.257 C 
HETATM    4  O3  UNK     1      -1.251  -0.051  -2.713  1.00  0.00    -0.267 OA
HETATM    5  N2  UNK     1      -1.144  -0.558  -0.426  1.00  0.00    -0.323 N 
HETATM    6  H7  UNK     1      -0.557  -0.475   0.400  1.00  0.00     0.169 HD
BRANCH   5   7
HETATM    7  C2  UNK     1      -2.355  -1.209  -0.189  1.00  0.00     0.037 A 
HETATM    8  C3  UNK     1      -2.659  -1.675   1.090  1.00  0.00     0.059 A 
HETATM    9  C1  UNK     1      -3.866  -2.320   1.310  1.00  0.00     0.046 A 
HETATM   10  C4  UNK     1      -4.777  -2.511   0.282  1.00  0.00     0.030 A 
HETATM   11  C8  UNK     1      -4.472  -2.046  -0.997  1.00  0.00     0.004 A 
HETATM   12  C7  UNK     1      -3.262  -1.395  -1.233  1.00  0.00     0.029 A 
BRANCH   9  13
HETATM   13  N1  UNK     1      -4.182  -2.801   2.635  1.00  0.00    -0.281 N 
HETATM   14  C6  UNK     1      -3.258  -3.801   3.223  1.00  0.00     0.169 C 
BRANCH  13  15
HETATM   15  S1  UNK     1      -4.980  -1.704   3.691  1.00  0.00     0.228 S 
HETATM   16  C9  UNK     1      -3.598  -0.908   4.483  1.00  0.00     0.186 C 
HETATM   17  O1  UNK     1      -5.675  -2.459   4.717  1.00  0.00    -0.206 OA
HETATM   18  O2  UNK     1      -5.685  -0.691   2.928  1.00  0.00    -0.206 OA
ENDBRANCH  13  15
ENDBRANCH   9  13
ENDBRANCH   5   7
ENDBRANCH   1   3
BRANCH   1  19
HETATM   19  C11 UNK     1       1.428   0.654  -0.234  1.00  0.00    -0.021 A 
HETATM   20  C14 UNK     1       1.218   1.715   0.629  1.00  0.00     0.012 A 
HETATM   21  C18 UNK     1       1.907   1.753   1.841  1.00  0.00     0.001 A 
HETATM   22  C23 UNK     1       2.796   0.729   2.170  1.00  0.00     0.000 A 
HETATM   23  C19 UNK     1       2.995  -0.332   1.287  1.00  0.00     0.001 A 
HETATM   24  C15 UNK     1       2.305  -0.370   0.075  1.00  0.00     0.012 A 
ENDBRANCH   1  19
BRANCH   2  25
HETATM   25  C13 UNK     1       2.462   1.886  -2.779  1.00  0.00    -0.035 A 
HETATM   26  C16 UNK     1       3.611   1.176  -3.093  1.00  0.00     0.014 A 
HETATM   27  C20 UNK     1       4.823   1.855  -3.218  1.00  0.00     0.037 A 
HETATM   28  C22 UNK     1       4.872   3.236  -3.027  1.00  0.00     0.068 A 
HETATM   29  C21 UNK     1       3.708   3.938  -2.712  1.00  0.00     0.037 A 
HETATM   30  C17 UNK     1       2.496   3.259  -2.587  1.00  0.00     0.014 A 
BRANCH  28  31
HETATM   31  O4  UNK     1       6.054   3.899  -3.148  1.00  0.00    -0.356 OA
HETATM   32  C24 UNK     1       7.205   3.121  -3.472  1.00  0.00     0.210 C 
ENDBRANCH  28  31
ENDBRANCH   2  25
TORSDOF 7
