REMARK  2 active torsions:
REMARK  status: ('A' for Active; 'I' for Inactive)
REMARK    1  A    between atoms: C12_15  and  O3_3 
REMARK    2  A    between atoms: C13_16  and  O3_3 
ROOT
HETATM    1  C13 UNK     1      -2.904  -1.510   2.239  1.00  0.00     0.268 C 
HETATM    2  C14 UNK     1      -3.973  -2.464   2.538  1.00  0.00    -0.091 C 
HETATM    3  C15 UNK     1      -4.849  -3.247   2.785  1.00  0.00     0.014 C 
ENDROOT
BRANCH   1   4
HETATM    4  O3  UNK     1      -3.145  -0.865   0.990  1.00  0.00    -0.339 OA
BRANCH   4   5
HETATM    5  C12 UNK     1      -2.058  -0.424   0.300  1.00  0.00     0.072 A 
HETATM    6  C10 UNK     1      -0.913  -0.024   0.986  1.00  0.00     0.075 A 
HETATM    7  C7  UNK     1       0.187   0.424   0.257  1.00  0.00     0.092 A 
HETATM    8  C6  UNK     1       0.175   0.480  -1.139  1.00  0.00     0.005 A 
HETATM    9  O1  UNK     1       1.331   0.826   0.990  1.00  0.00    -0.274 OA
HETATM   10  C2  UNK     1       1.373   0.960  -1.798  1.00  0.00    -0.033 A 
HETATM   11  C9  UNK     1      -0.979   0.077  -1.815  1.00  0.00     0.017 A 
HETATM   12  C1  UNK     1       1.590   1.105  -3.264  1.00  0.00     0.040 C 
HETATM   13  C5  UNK     1       2.440   1.343  -1.094  1.00  0.00     0.025 A 
HETATM   14  C3  UNK     1       3.105   1.332  -3.348  1.00  0.00     0.009 C 
HETATM   15  C4  UNK     1       3.552   1.813  -1.964  1.00  0.00     0.046 C 
HETATM   16  C8  UNK     1       2.487   1.300   0.369  1.00  0.00     0.295 A 
HETATM   17  O2  UNK     1       3.471   1.657   1.005  1.00  0.00    -0.259 OA
HETATM   18  C11 UNK     1      -2.091  -0.373  -1.095  1.00  0.00     0.038 A 
ENDBRANCH   4   5
ENDBRANCH   1   4
TORSDOF 2
