REMARK  5 active torsions:
REMARK  status: ('A' for Active; 'I' for Inactive)
REMARK    1  A    between atoms: C3_10  and  O1_2 
REMARK    2  A    between atoms: C4_11  and  O1_2 
REMARK    3  A    between atoms: C13_20  and  O3_4 
REMARK    4  A    between atoms: C18_25  and  O3_4 
REMARK    5  A    between atoms: C18_25  and  C19_26 
ROOT
HETATM    1  O2  UNK     1       0.018   1.996   1.445  1.00  0.00    -0.319 OA
HETATM    2  O4  UNK     1      -0.567  -2.046   1.470  1.00  0.00    -0.284 OA
HETATM    3  C1  UNK     1       0.694  -0.211   0.675  1.00  0.00     0.051 A 
HETATM    4  C2  UNK     1       0.842   1.178   0.709  1.00  0.00     0.092 A 
HETATM    5  C4  UNK     1      -1.244   0.090   2.233  1.00  0.00     0.149 A 
HETATM    6  C7  UNK     1      -0.388  -0.836   1.458  1.00  0.00     0.220 A 
HETATM    7  C11 UNK     1       1.562  -0.993  -0.090  1.00  0.00     0.021 A 
HETATM    8  C12 UNK     1       1.859   1.790  -0.023  1.00  0.00     0.075 A 
HETATM    9  C13 UNK     1       2.727   1.011  -0.789  1.00  0.00     0.082 A 
HETATM   10  C14 UNK     1       2.578  -0.377  -0.822  1.00  0.00     0.038 A 
HETATM   11  C15 UNK     1      -0.985   1.399   2.170  1.00  0.00     0.184 A 
ENDROOT
BRANCH   5  12
HETATM   12  O1  UNK     1      -2.276  -0.413   2.990  1.00  0.00    -0.305 OA
BRANCH  12  13
HETATM   13  C3  UNK     1      -3.246  -1.116   2.330  1.00  0.00     0.077 A 
HETATM   14  C8  UNK     1      -3.767  -0.622   1.138  1.00  0.00     0.045 A 
HETATM   15  C6  UNK     1      -4.756  -1.339   0.465  1.00  0.00    -0.037 A 
HETATM   16  C10 UNK     1      -5.220  -2.547   0.987  1.00  0.00     0.046 A 
HETATM   17  C17 UNK     1      -5.290  -0.775  -0.813  1.00  0.00     0.050 C 
HETATM   18 Cl1  UNK     1      -6.448  -3.437   0.152  1.00  0.00    -0.083 Cl
HETATM   19  C5  UNK     1      -4.694  -3.037   2.183  1.00  0.00    -0.037 A 
HETATM   20  C16 UNK     1      -5.160  -4.326   2.779  1.00  0.00     0.050 C 
HETATM   21  C9  UNK     1      -3.705  -2.320   2.856  1.00  0.00     0.045 A 
ENDBRANCH  12  13
ENDBRANCH   5  12
BRANCH   9  22
HETATM   22  O3  UNK     1       3.720   1.605  -1.506  1.00  0.00    -0.273 OA
BRANCH  22  23
HETATM   23  C18 UNK     1       3.355   1.964  -2.806  1.00  0.00     0.322 C 
HETATM   24  O6  UNK     1       2.255   1.793  -3.309  1.00  0.00    -0.257 OA
BRANCH  23  25
HETATM   25  C19 UNK     1       4.487   2.604  -3.524  1.00  0.00     0.150 A 
HETATM   26  O5  UNK     1       4.230   2.990  -4.771  1.00  0.00    -0.317 OA
HETATM   27  C22 UNK     1       5.399   3.534  -5.200  1.00  0.00     0.143 A 
HETATM   28  C21 UNK     1       6.353   3.473  -4.211  1.00  0.00     0.027 A 
HETATM   29  C20 UNK     1       5.730   2.852  -3.102  1.00  0.00     0.045 A 
ENDBRANCH  23  25
ENDBRANCH  22  23
ENDBRANCH   9  22
TORSDOF 5
