REMARK  4 active torsions:
REMARK  status: ('A' for Active; 'I' for Inactive)
REMARK    1  A    between atoms: C12_17  and  N1_5 
REMARK       I    between atoms: C13_18  and  N1_5 
REMARK    2  A    between atoms: C1_6  and  C11_16 
REMARK    3  A    between atoms: C11_16  and  C12_17 
REMARK    4  A    between atoms: C13_18  and  C14_19 
ROOT
HETATM    1  O1  UNK     1      -0.563   0.585  -1.817  1.00  0.00    -0.267 OA
HETATM    2  N1  UNK     1       0.246  -0.471   0.099  1.00  0.00    -0.357 N 
HETATM    3  C13 UNK     1       0.325   0.370  -0.999  1.00  0.00     0.257 C 
HETATM    4  H20 UNK     1       1.051  -0.592   0.706  1.00  0.00     0.162 HD
ENDROOT
BRANCH   2   5
HETATM    5  C12 UNK     1      -0.933  -1.224   0.427  1.00  0.00     0.123 C 
BRANCH   5   6
HETATM    6  C11 UNK     1      -1.874  -0.461   1.345  1.00  0.00     0.029 C 
BRANCH   6   7
HETATM    7  C1  UNK     1      -3.118  -1.275   1.713  1.00  0.00    -0.038 C 
HETATM    8  C5  UNK     1      -3.902  -1.665   0.438  1.00  0.00     0.014 C 
HETATM    9  C2  UNK     1      -5.152  -2.483   0.804  1.00  0.00    -0.013 C 
HETATM   10  C8  UNK     1      -4.722  -3.759   1.548  1.00  0.00     0.009 C 
HETATM   11  C9  UNK     1      -6.056  -1.643   1.721  1.00  0.00     0.009 C 
HETATM   12  C3  UNK     1      -3.958  -3.389   2.830  1.00  0.00    -0.013 C 
HETATM   13  C10 UNK     1      -4.868  -2.544   3.737  1.00  0.00     0.009 C 
HETATM   14  C6  UNK     1      -2.711  -2.569   2.458  1.00  0.00     0.014 C 
HETATM   15  C4  UNK     1      -5.299  -1.263   3.004  1.00  0.00    -0.013 C 
HETATM   16  C7  UNK     1      -4.048  -0.448   2.632  1.00  0.00     0.014 C 
ENDBRANCH   6   7
ENDBRANCH   5   6
ENDBRANCH   2   5
BRANCH   3  17
HETATM   17  C14 UNK     1       1.636   1.034  -1.122  1.00  0.00     0.108 A 
HETATM   18  C15 UNK     1       2.034   1.331  -2.364  1.00  0.00     0.037 A 
HETATM   19  C17 UNK     1       3.313   1.987  -2.587  1.00  0.00     0.001 A 
HETATM   20  C19 UNK     1       3.770   2.315  -3.865  1.00  0.00     0.038 A 
HETATM   21  C18 UNK     1       4.110   2.298  -1.489  1.00  0.00     0.089 A 
HETATM   22  C21 UNK     1       5.007   2.945  -4.026  1.00  0.00     0.035 A 
HETATM   23  C22 UNK     1       5.793   3.249  -2.913  1.00  0.00     0.026 A 
HETATM   24 Cl1  UNK     1       5.565   3.349  -5.604  1.00  0.00    -0.084 Cl
HETATM   25  C20 UNK     1       5.346   2.925  -1.634  1.00  0.00     0.040 A 
HETATM   26  O2  UNK     1       3.685   1.982  -0.184  1.00  0.00    -0.274 OA
HETATM   27  C16 UNK     1       2.467   1.355   0.060  1.00  0.00     0.304 A 
HETATM   28  O3  UNK     1       2.105   1.084   1.200  1.00  0.00    -0.259 OA
ENDBRANCH   3  17
TORSDOF 4
