REMARK  6 active torsions:
REMARK  status: ('A' for Active; 'I' for Inactive)
REMARK    1  A    between atoms: C21_28  and  O3_3 
REMARK    2  A    between atoms: C23_30  and  O3_3 
REMARK       I    between atoms: C11_18  and  N1_5 
REMARK    3  A    between atoms: C10_17  and  N2_6 
REMARK    4  A    between atoms: C13_20  and  N3_7 
REMARK    5  A    between atoms: C10_17  and  C11_18 
REMARK    6  A    between atoms: C13_20  and  C14_21 
ROOT
HETATM    1  N2  UNK     1      -1.120  -1.805   0.720  1.00  0.00     0.100 N 
HETATM    2  N3  UNK     1       0.941  -0.597  -0.908  1.00  0.00     0.096 N 
HETATM    3  C6  UNK     1       0.218  -1.536   1.260  1.00  0.00     0.303 C 
HETATM    4  C7  UNK     1      -1.450  -0.839  -0.335  1.00  0.00     0.303 C 
HETATM    5  C8  UNK     1       1.271  -1.563   0.147  1.00  0.00     0.303 C 
HETATM    6  C9  UNK     1      -0.398  -0.864  -1.448  1.00  0.00     0.303 C 
ENDROOT
BRANCH   2   7
HETATM    7  C13 UNK     1       1.945  -0.625  -1.971  1.00  0.00     0.312 C 
BRANCH   7   8
HETATM    8  C14 UNK     1       1.977   0.645  -2.747  1.00  0.00    -0.011 A 
HETATM    9  C15 UNK     1       2.860   1.741  -2.324  1.00  0.00     0.009 A 
HETATM   10  C17 UNK     1       2.869   2.919  -3.072  1.00  0.00     0.090 A 
HETATM   11  C18 UNK     1       3.701   1.675  -1.206  1.00  0.00     0.051 A 
HETATM   12  O2  UNK     1       2.052   3.065  -4.211  1.00  0.00    -0.275 OA
HETATM   13  C20 UNK     1       3.677   4.008  -2.739  1.00  0.00     0.041 A 
HETATM   14  C19 UNK     1       1.211   2.048  -4.635  1.00  0.00     0.288 A 
HETATM   15  C16 UNK     1       1.212   0.812  -3.836  1.00  0.00     0.092 A 
HETATM   16  O4  UNK     1       0.497   2.165  -5.625  1.00  0.00    -0.260 OA
HETATM   17  C22 UNK     1       4.505   3.923  -1.625  1.00  0.00     0.039 A 
HETATM   18  C21 UNK     1       4.518   2.758  -0.859  1.00  0.00     0.069 A 
BRANCH  18  19
HETATM   19  O3  UNK     1       5.328   2.673   0.231  1.00  0.00    -0.351 OA
BRANCH  19  20
HETATM   20  C23 UNK     1       4.885   1.846   1.306  1.00  0.00     0.171 C 
HETATM   21  C24 UNK     1       5.434   2.392   2.607  1.00  0.00     0.034 C 
ENDBRANCH  19  20
ENDBRANCH  18  19
ENDBRANCH   7   8
ENDBRANCH   2   7
BRANCH   1  22
HETATM   22  C10 UNK     1      -2.123  -1.779   1.782  1.00  0.00     0.374 C 
BRANCH  22  23
HETATM   23  C11 UNK     1      -3.352  -2.566   1.401  1.00  0.00     0.248 C 
HETATM   24  O1  UNK     1      -3.379  -3.152   0.315  1.00  0.00    -0.271 OA
HETATM   25  N1  UNK     1      -4.398  -2.576   2.322  1.00  0.00    -0.350 N 
HETATM   26  C2  UNK     1      -4.386  -1.911   3.632  1.00  0.00     0.130 C 
HETATM   27  C5  UNK     1      -5.626  -3.316   2.023  1.00  0.00     0.126 C 
HETATM   28  C1  UNK     1      -5.584  -0.960   3.769  1.00  0.00    -0.001 C 
HETATM   29  C3  UNK     1      -6.898  -1.702   3.480  1.00  0.00     0.007 C 
HETATM   30  C12 UNK     1      -5.614  -0.325   5.157  1.00  0.00     0.011 C 
HETATM   31  C4  UNK     1      -6.845  -2.405   2.124  1.00  0.00     0.020 C 
ENDBRANCH  22  23
ENDBRANCH   1  22
TORSDOF 6
