REMARK  3 active torsions:
REMARK  status: ('A' for Active; 'I' for Inactive)
REMARK    1  A    between atoms: C10_16  and  N1_5 
REMARK       I    between atoms: C12_18  and  N1_5 
REMARK    2  A    between atoms: C1_7  and  C7_13 
REMARK    3  A    between atoms: C12_18  and  C13_19 
ROOT
HETATM    1  S1  UNK     1      -2.089  -1.135  -0.392  1.00  0.00    -0.075 SA
HETATM    2  N2  UNK     1       0.055   0.503   3.926  1.00  0.00    -0.191 NA
HETATM    3  C1  UNK     1      -5.266  -2.229   1.976  1.00  0.00    -0.010 C 
HETATM    4  C2  UNK     1      -4.427  -2.465   3.251  1.00  0.00     0.009 C 
HETATM    5  C3  UNK     1      -4.384  -2.306   0.709  1.00  0.00     0.051 C 
HETATM    6  C4  UNK     1      -3.330  -1.401   3.413  1.00  0.00     0.042 C 
HETATM    7  C5  UNK     1      -2.599  -1.155   2.131  1.00  0.00    -0.021 A 
HETATM    8  C6  UNK     1      -3.105  -1.554   0.908  1.00  0.00    -0.007 A 
HETATM    9  C8  UNK     1      -1.349  -0.483   1.981  1.00  0.00     0.085 A 
HETATM   10  C10 UNK     1      -0.956  -0.403   0.663  1.00  0.00     0.098 A 
HETATM   11  C11 UNK     1      -0.575   0.061   3.055  1.00  0.00     0.103 C 
ENDROOT
BRANCH  10  12
HETATM   12  N1  UNK     1       0.154   0.146   0.078  1.00  0.00    -0.316 N 
HETATM   13  C12 UNK     1       0.500   0.195  -1.291  1.00  0.00     0.262 C 
HETATM   14  O2  UNK     1      -0.139  -0.255  -2.235  1.00  0.00    -0.267 OA
HETATM   15  H13 UNK     1       0.792   0.586   0.737  1.00  0.00     0.170 HD
BRANCH  13  16
HETATM   16  C13 UNK     1       1.785   0.877  -1.545  1.00  0.00     0.108 A 
HETATM   17  C14 UNK     1       1.898   1.506  -2.722  1.00  0.00     0.037 A 
HETATM   18  C15 UNK     1       3.127   2.206  -3.064  1.00  0.00    -0.001 A 
HETATM   19  C17 UNK     1       4.176   2.210  -2.150  1.00  0.00     0.089 A 
HETATM   20  C18 UNK     1       3.289   2.875  -4.279  1.00  0.00     0.014 A 
HETATM   21  O1  UNK     1       4.051   1.547  -0.913  1.00  0.00    -0.274 OA
HETATM   22  C19 UNK     1       5.378   2.862  -2.416  1.00  0.00     0.038 A 
HETATM   23  C16 UNK     1       2.888   0.869  -0.558  1.00  0.00     0.304 A 
HETATM   24  O3  UNK     1       2.788   0.294   0.520  1.00  0.00    -0.259 OA
HETATM   25  C21 UNK     1       5.532   3.527  -3.631  1.00  0.00     0.003 A 
HETATM   26  C20 UNK     1       4.489   3.534  -4.560  1.00  0.00     0.001 A 
ENDBRANCH  13  16
ENDBRANCH  10  12
BRANCH   3  27
HETATM   27  C7  UNK     1      -6.415  -3.232   1.889  1.00  0.00     0.000 C 
HETATM   28  C9  UNK     1      -7.279  -2.979   0.669  1.00  0.00     0.005 C 
ENDBRANCH   3  27
TORSDOF 3
