REMARK  5 active torsions:
REMARK  status: ('A' for Active; 'I' for Inactive)
REMARK    1  A    between atoms: C12_19  and  O3_4 
REMARK    2  A    between atoms: C24_31  and  O3_4 
REMARK    3  A    between atoms: C1_8  and  C9_16 
REMARK    4  A    between atoms: C11_18  and  C4_11 
REMARK    5  A    between atoms: C12_19  and  C8_15 
ROOT
HETATM    1  O1  UNK     1       1.902  -1.268   0.385  1.00  0.00    -0.293 OA
HETATM    2  N1  UNK     1      -0.528   0.937  -3.032  1.00  0.00    -0.362 N 
HETATM    3  C1  UNK     1       2.826   1.674  -1.502  1.00  0.00     0.031 C 
HETATM    4  C2  UNK     1       1.817   1.562  -2.654  1.00  0.00     0.067 C 
HETATM    5  C3  UNK     1       0.606  -0.145  -1.256  1.00  0.00     0.024 C 
HETATM    6  C4  UNK     1      -0.659  -0.910  -0.881  1.00  0.00     0.104 C 
HETATM    7  C5  UNK     1       0.611   0.741  -2.274  1.00  0.00     0.021 C 
HETATM    8  C6  UNK     1       3.139   0.285  -0.942  1.00  0.00     0.093 C 
HETATM    9  C7  UNK     1       1.874  -0.427  -0.513  1.00  0.00     0.159 C 
HETATM   10  C8  UNK     1      -1.793  -0.703  -1.886  1.00  0.00     0.052 C 
HETATM   11  C10 UNK     1      -1.697   0.208  -2.882  1.00  0.00     0.018 C 
HETATM   12  C13 UNK     1      -2.774   0.518  -3.886  1.00  0.00     0.069 C 
HETATM   13  H7  UNK     1      -0.484   1.609  -3.789  1.00  0.00     0.165 HD
ENDROOT
BRANCH   6  14
HETATM   14  C11 UNK     1      -1.114  -0.525   0.501  1.00  0.00     0.029 A 
HETATM   15  C14 UNK     1      -1.152  -1.571   1.553  1.00  0.00     0.194 A 
HETATM   16  O5  UNK     1      -0.827  -2.730   1.331  1.00  0.00    -0.287 OA
HETATM   17  C18 UNK     1      -1.607  -1.140   2.888  1.00  0.00     0.049 A 
HETATM   18  C19 UNK     1      -1.966   0.194   3.084  1.00  0.00     0.089 A 
HETATM   19  C23 UNK     1      -1.678  -2.050   3.946  1.00  0.00     0.025 A 
HETATM   20  O2  UNK     1      -1.916   1.130   2.081  1.00  0.00    -0.321 OA
HETATM   21  C25 UNK     1      -2.399   0.625   4.338  1.00  0.00     0.039 A 
HETATM   22  C17 UNK     1      -1.491   0.714   0.844  1.00  0.00     0.154 A 
HETATM   23  C27 UNK     1      -2.471  -0.282   5.396  1.00  0.00     0.009 A 
HETATM   24  C26 UNK     1      -2.111  -1.616   5.200  1.00  0.00    -0.061 A 
HETATM   25  C30 UNK     1      -2.189  -2.582   6.335  1.00  0.00     0.048 C 
ENDBRANCH   6  14
BRANCH  10  26
HETATM   26  C12 UNK     1      -2.967  -1.582  -1.747  1.00  0.00     0.292 C 
HETATM   27  O4  UNK     1      -3.049  -2.675  -2.276  1.00  0.00    -0.259 OA
BRANCH  26  28
HETATM   28  O3  UNK     1      -3.876  -0.960  -0.959  1.00  0.00    -0.313 OA
BRANCH  28  29
HETATM   29  C24 UNK     1      -5.082  -1.695  -0.728  1.00  0.00     0.124 C 
HETATM   30  C28 UNK     1      -6.016  -0.865   0.140  1.00  0.00     0.040 C 
HETATM   31  C29 UNK     1      -4.740  -3.028  -0.080  1.00  0.00     0.040 C 
ENDBRANCH  28  29
ENDBRANCH  26  28
ENDBRANCH  10  26
BRANCH   3  32
HETATM   32  C9  UNK     1       4.079   2.422  -1.916  1.00  0.00    -0.053 A 
HETATM   33  C15 UNK     1       5.160   1.725  -2.449  1.00  0.00     0.010 A 
HETATM   34  C20 UNK     1       6.312   2.414  -2.830  1.00  0.00     0.043 A 
HETATM   35  C22 UNK     1       6.380   3.799  -2.675  1.00  0.00     0.116 A 
HETATM   36  C21 UNK     1       5.295   4.495  -2.140  1.00  0.00     0.043 A 
HETATM   37  F1  UNK     1       7.486   4.460  -3.039  1.00  0.00    -0.206 F 
HETATM   38  C16 UNK     1       4.144   3.806  -1.760  1.00  0.00     0.010 A 
ENDBRANCH   3  32
TORSDOF 5
