REMARK  4 active torsions:
REMARK  status: ('A' for Active; 'I' for Inactive)
REMARK    1  A    between atoms: C9_15  and  O2_3 
REMARK    2  A    between atoms: C3_9  and  N1_6 
REMARK       I    between atoms: C4_10  and  N1_6 
REMARK    3  A    between atoms: C6_12  and  N1_6 
REMARK    4  A    between atoms: C1_7  and  C4_10 
ROOT
HETATM    1 Br1  UNK     1       2.726   1.769  -5.585  1.00  0.00    -0.051 Br
HETATM    2  O1  UNK     1       2.153   1.295   0.436  1.00  0.00    -0.271 OA
HETATM    3  O4  UNK     1       1.093   0.431   2.266  1.00  0.00    -0.259 OA
HETATM    4  C1  UNK     1       0.272  -0.241   0.147  1.00  0.00     0.108 A 
HETATM    5  C2  UNK     1       1.396   0.680  -1.791  1.00  0.00     0.003 A 
HETATM    6  C5  UNK     1       2.263   1.387  -0.965  1.00  0.00     0.123 A 
HETATM    7  C7  UNK     1       0.373  -0.157  -1.184  1.00  0.00     0.037 A 
HETATM    8  C8  UNK     1       1.183   0.503   1.046  1.00  0.00     0.304 A 
HETATM    9  C9  UNK     1       3.265   2.206  -1.483  1.00  0.00     0.104 A 
HETATM   10  C10 UNK     1       1.538   0.797  -3.176  1.00  0.00     0.033 A 
HETATM   11  C14 UNK     1       3.400   2.317  -2.865  1.00  0.00     0.058 A 
HETATM   12  C15 UNK     1       2.538   1.615  -3.710  1.00  0.00     0.014 A 
ENDROOT
BRANCH   4  13
HETATM   13  C4  UNK     1      -0.792  -1.110   0.664  1.00  0.00     0.264 C 
HETATM   14  O3  UNK     1      -0.509  -2.297   0.869  1.00  0.00    -0.267 OA
HETATM   15  N1  UNK     1      -2.052  -0.518   0.891  1.00  0.00    -0.314 N 
BRANCH  15  16
HETATM   16  C3  UNK     1      -2.283   0.909   0.613  1.00  0.00     0.128 C 
HETATM   17  C11 UNK     1      -2.758   1.128  -0.809  1.00  0.00     0.027 C 
ENDBRANCH  15  16
BRANCH  15  18
HETATM   18  C6  UNK     1      -3.141  -1.330   1.408  1.00  0.00     0.037 A 
HETATM   19  C12 UNK     1      -3.155  -2.659   1.088  1.00  0.00     0.029 A 
HETATM   20  C16 UNK     1      -4.199  -3.439   1.585  1.00  0.00     0.002 A 
HETATM   21  C18 UNK     1      -5.186  -2.858   2.381  1.00  0.00     0.000 A 
HETATM   22  C17 UNK     1      -5.128  -1.496   2.680  1.00  0.00     0.002 A 
HETATM   23  C13 UNK     1      -4.084  -0.716   2.184  1.00  0.00     0.029 A 
ENDBRANCH  15  18
ENDBRANCH   4  13
BRANCH   9  24
HETATM   24  O2  UNK     1       4.106   2.893  -0.663  1.00  0.00    -0.353 OA
HETATM   25  C19 UNK     1       5.312   2.238  -0.272  1.00  0.00     0.210 C 
ENDBRANCH   9  24
TORSDOF 4
