REMARK  6 active torsions:
REMARK  status: ('A' for Active; 'I' for Inactive)
REMARK    1  A    between atoms: C5_12  and  N1_5 
REMARK    2  A    between atoms: C6_13  and  N2_6 
REMARK    3  A    between atoms: C18_25  and  N3_7 
REMARK       I    between atoms: C9_16  and  N3_7 
REMARK    4  A    between atoms: C5_12  and  C7_14 
REMARK    5  A    between atoms: C6_13  and  C9_16 
REMARK    6  A    between atoms: C13_20  and  C17_24 
ROOT
HETATM    1  N1  UNK     1       1.847  -0.171  -0.726  1.00  0.00     0.096 N 
HETATM    2  N2  UNK     1      -0.045  -1.180   1.213  1.00  0.00     0.100 N 
HETATM    3  C1  UNK     1       2.292  -0.926   0.452  1.00  0.00     0.303 C 
HETATM    4  C2  UNK     1       0.498  -0.589  -1.124  1.00  0.00     0.303 C 
HETATM    5  C3  UNK     1       1.304  -0.760   1.612  1.00  0.00     0.303 C 
HETATM    6  C4  UNK     1      -0.490  -0.423   0.036  1.00  0.00     0.303 C 
ENDROOT
BRANCH   1   7
HETATM    7  C5  UNK     1       2.789  -0.333  -1.832  1.00  0.00     0.312 C 
BRANCH   7   8
HETATM    8  C7  UNK     1       2.704   0.787  -2.811  1.00  0.00    -0.011 A 
HETATM    9  C10 UNK     1       1.868   0.730  -3.858  1.00  0.00     0.092 A 
HETATM   10  C14 UNK     1       1.750   1.811  -4.851  1.00  0.00     0.288 A 
HETATM   11  O1  UNK     1       2.555   2.923  -4.660  1.00  0.00    -0.275 OA
HETATM   12  O3  UNK     1       0.972   1.724  -5.795  1.00  0.00    -0.260 OA
HETATM   13  C11 UNK     1       3.442   3.012  -3.569  1.00  0.00     0.090 A 
HETATM   14  C8  UNK     1       3.544   1.979  -2.636  1.00  0.00     0.007 A 
HETATM   15  C15 UNK     1       4.204   4.178  -3.477  1.00  0.00     0.039 A 
HETATM   16  C12 UNK     1       4.451   2.144  -1.580  1.00  0.00     0.022 A 
HETATM   17  C13 UNK     1       5.222   3.307  -1.475  1.00  0.00    -0.058 A 
HETATM   18  C16 UNK     1       5.098   4.323  -2.421  1.00  0.00     0.010 A 
BRANCH  17  19
HETATM   19  C17 UNK     1       6.181   3.462  -0.342  1.00  0.00     0.034 C 
HETATM   20  C20 UNK     1       5.540   4.123   0.875  1.00  0.00     0.010 C 
ENDBRANCH  17  19
ENDBRANCH   7   8
ENDBRANCH   1   7
BRANCH   2  21
HETATM   21  C6  UNK     1      -0.986  -1.020   2.320  1.00  0.00     0.375 C 
BRANCH  21  22
HETATM   22  C9  UNK     1      -2.174  -1.943   2.110  1.00  0.00     0.250 C 
HETATM   23  O2  UNK     1      -2.082  -3.016   1.522  1.00  0.00    -0.271 OA
HETATM   24  N3  UNK     1      -3.320  -1.389   2.677  1.00  0.00    -0.325 N 
HETATM   25  H15 UNK     1      -3.216  -0.490   3.138  1.00  0.00     0.169 HD
BRANCH  24  26
HETATM   26  C18 UNK     1      -4.625  -1.937   2.695  1.00  0.00     0.041 A 
HETATM   27  C19 UNK     1      -5.678  -1.256   3.307  1.00  0.00    -0.032 A 
HETATM   28  C22 UNK     1      -6.957  -1.812   3.316  1.00  0.00     0.051 A 
HETATM   29  C23 UNK     1      -5.463   0.069   3.964  1.00  0.00     0.050 C 
HETATM   30  C25 UNK     1      -7.184  -3.049   2.711  1.00  0.00     0.117 A 
HETATM   31  C24 UNK     1      -6.132  -3.729   2.098  1.00  0.00     0.044 A 
HETATM   32  F1  UNK     1      -8.412  -3.583   2.720  1.00  0.00    -0.206 F 
HETATM   33  C21 UNK     1      -4.852  -3.173   2.090  1.00  0.00     0.033 A 
ENDBRANCH  24  26
ENDBRANCH  21  22
ENDBRANCH   2  21
TORSDOF 6
