REMARK  5 active torsions:
REMARK  status: ('A' for Active; 'I' for Inactive)
REMARK    1  A    between atoms: C13_20  and  O1_2 
REMARK    2  A    between atoms: C12_19  and  N1_7 
REMARK       I    between atoms: C14_21  and  N1_7 
REMARK    3  A    between atoms: C1_8  and  C2_9 
REMARK    4  A    between atoms: C11_18  and  C13_20 
REMARK    5  A    between atoms: C14_21  and  C15_22 
ROOT
HETATM    1  S1  UNK     1      -1.766  -0.775  -0.746  1.00  0.00    -0.075 SA
HETATM    2  C1  UNK     1      -4.550  -2.536   1.713  1.00  0.00    -0.002 C 
HETATM    3  C3  UNK     1      -4.272  -1.624   2.929  1.00  0.00     0.010 C 
HETATM    4  C4  UNK     1      -4.076  -1.871   0.401  1.00  0.00     0.052 C 
HETATM    5  C5  UNK     1      -2.770  -1.343   3.095  1.00  0.00     0.041 C 
HETATM    6  C6  UNK     1      -2.721  -1.258   0.578  1.00  0.00    -0.008 A 
HETATM    7  C7  UNK     1      -2.122  -0.990   1.794  1.00  0.00    -0.026 A 
HETATM    8  C11 UNK     1      -0.843  -0.380   1.620  1.00  0.00     0.080 A 
HETATM    9  C12 UNK     1      -0.527  -0.205   0.290  1.00  0.00     0.094 A 
ENDROOT
BRANCH   9  10
HETATM   10  N1  UNK     1       0.579   0.329  -0.314  1.00  0.00    -0.316 N 
HETATM   11  C14 UNK     1       0.800   0.460  -1.691  1.00  0.00     0.262 C 
HETATM   12  O3  UNK     1       0.067   0.132  -2.615  1.00  0.00    -0.267 OA
HETATM   13  H17 UNK     1       1.290   0.670   0.328  1.00  0.00     0.169 HD
BRANCH  11  14
HETATM   14  C15 UNK     1       2.106   1.082  -1.997  1.00  0.00     0.108 A 
HETATM   15  C17 UNK     1       2.171   1.798  -3.125  1.00  0.00     0.037 A 
HETATM   16  C19 UNK     1       3.413   2.448  -3.511  1.00  0.00    -0.001 A 
HETATM   17  C20 UNK     1       4.528   2.312  -2.690  1.00  0.00     0.089 A 
HETATM   18  C21 UNK     1       3.526   3.206  -4.680  1.00  0.00     0.014 A 
HETATM   19  O4  UNK     1       4.454   1.557  -1.503  1.00  0.00    -0.274 OA
HETATM   20  C22 UNK     1       5.747   2.908  -3.003  1.00  0.00     0.038 A 
HETATM   21  C18 UNK     1       3.279   0.923  -1.107  1.00  0.00     0.304 A 
HETATM   22  O5  UNK     1       3.224   0.267  -0.073  1.00  0.00    -0.259 OA
HETATM   23  C24 UNK     1       5.851   3.662  -4.170  1.00  0.00     0.003 A 
HETATM   24  C23 UNK     1       4.743   3.810  -5.007  1.00  0.00     0.001 A 
ENDBRANCH  11  14
ENDBRANCH   9  10
BRANCH   8  25
HETATM   25  C13 UNK     1       0.046   0.016   2.684  1.00  0.00     0.296 C 
HETATM   26  O2  UNK     1       0.119  -0.540   3.796  1.00  0.00    -0.259 OA
BRANCH  25  27
HETATM   27  O1  UNK     1       0.821   1.093   2.333  1.00  0.00    -0.322 OA
HETATM   28  C16 UNK     1       1.748   1.582   3.309  1.00  0.00     0.213 C 
ENDBRANCH  25  27
ENDBRANCH   8  25
BRANCH   2  29
HETATM   29  C2  UNK     1      -6.033  -2.888   1.627  1.00  0.00    -0.047 C 
HETATM   30  C10 UNK     1      -6.275  -3.835   0.440  1.00  0.00     0.015 C 
HETATM   31  C8  UNK     1      -6.478  -3.583   2.926  1.00  0.00     0.015 C 
HETATM   32  C9  UNK     1      -6.862  -1.608   1.429  1.00  0.00     0.015 C 
ENDBRANCH   2  29
TORSDOF 5
