REMARK  0 active torsions:
REMARK  status: ('A' for Active; 'I' for Inactive)
ROOT
HETATM    1  O1  UNK     1       1.490   0.612  -2.596  1.00  0.00    -0.303 OA
HETATM    2  O2  UNK     1      -2.606   1.783  -0.530  1.00  0.00    -0.269 OA
HETATM    3  O3  UNK     1      -0.799  -0.768  -3.846  1.00  0.00    -0.265 OA
HETATM    4  O4  UNK     1       0.741   1.099   1.416  1.00  0.00    -0.287 OA
HETATM    5  N1  UNK     1      -1.696  -0.789  -1.669  1.00  0.00    -0.329 N 
HETATM    6  N2  UNK     1      -2.811   0.333   1.324  1.00  0.00    -0.319 N 
HETATM    7  C1  UNK     1      -1.299  -0.301  -0.371  1.00  0.00     0.179 A 
HETATM    8  C2  UNK     1      -1.358  -1.325   0.716  1.00  0.00     0.011 A 
HETATM    9  C3  UNK     1       0.028   0.284  -0.684  1.00  0.00     0.075 A 
HETATM   10  C4  UNK     1      -2.307   0.771   0.087  1.00  0.00     0.262 A 
HETATM   11  C5  UNK     1      -2.258  -0.902   1.697  1.00  0.00     0.046 A 
HETATM   12  C6  UNK     1       0.356   0.178  -1.975  1.00  0.00     0.157 A 
HETATM   13  C7  UNK     1      -0.754  -0.510  -2.656  1.00  0.00     0.277 A 
HETATM   14  C8  UNK     1       0.970   0.949   0.224  1.00  0.00     0.197 A 
HETATM   15  C9  UNK     1      -0.680  -2.526   0.845  1.00  0.00     0.013 A 
HETATM   16  C10 UNK     1      -2.507  -1.657   2.830  1.00  0.00     0.030 A 
HETATM   17  C11 UNK     1       2.220   1.428  -0.411  1.00  0.00     0.049 A 
HETATM   18  C12 UNK     1      -3.787   1.036   2.122  1.00  0.00     0.159 C 
HETATM   19  C13 UNK     1       2.416   1.235  -1.787  1.00  0.00     0.090 A 
HETATM   20  C14 UNK     1      -0.920  -3.299   1.983  1.00  0.00     0.001 A 
HETATM   21  C15 UNK     1      -1.826  -2.868   2.967  1.00  0.00     0.002 A 
HETATM   22  C16 UNK     1       3.198   2.068   0.354  1.00  0.00     0.018 A 
HETATM   23  C17 UNK     1       3.589   1.682  -2.395  1.00  0.00     0.038 A 
HETATM   24  C18 UNK     1       4.369   2.513  -0.260  1.00  0.00     0.001 A 
HETATM   25  C19 UNK     1       4.564   2.321  -1.629  1.00  0.00     0.003 A 
HETATM   26  H1  UNK     1      -2.580  -1.253  -1.858  1.00  0.00     0.164 HD
ENDROOT
TORSDOF 0
