REMARK  4 active torsions:
REMARK  status: ('A' for Active; 'I' for Inactive)
REMARK    1  A    between atoms: C7_12  and  O2_2 
REMARK    2  A    between atoms: C11_16  and  O3_3 
REMARK    3  A    between atoms: C14_19  and  O4_4 
REMARK    4  A    between atoms: C1_6  and  C2_7 
ROOT
HETATM    1  O1  UNK     1      -0.582   0.724   0.476  1.00  0.00    -0.309 OA
HETATM    2  O5  UNK     1      -2.187  -2.505  -1.419  1.00  0.00    -0.287 OA
HETATM    3  C1  UNK     1      -0.102   0.286  -0.748  1.00  0.00     0.093 A 
HETATM    4  C3  UNK     1      -2.213  -1.076   0.462  1.00  0.00     0.051 A 
HETATM    5  C4  UNK     1      -1.619   0.037   1.055  1.00  0.00     0.090 A 
HETATM    6  C5  UNK     1      -0.594  -0.767  -1.421  1.00  0.00     0.094 A 
HETATM    7  C6  UNK     1      -1.711  -1.538  -0.841  1.00  0.00     0.187 A 
HETATM    8  C8  UNK     1      -3.267  -1.737   1.098  1.00  0.00     0.055 A 
HETATM    9  C10 UNK     1      -2.078   0.497   2.290  1.00  0.00     0.041 A 
HETATM   10  C11 UNK     1      -3.723  -1.274   2.333  1.00  0.00     0.069 A 
HETATM   11  C13 UNK     1      -3.130  -0.160   2.927  1.00  0.00     0.039 A 
ENDROOT
BRANCH   3  12
HETATM   12  C2  UNK     1       1.008   1.100  -1.283  1.00  0.00     0.031 A 
HETATM   13  C7  UNK     1       2.341   0.785  -1.003  1.00  0.00     0.083 A 
HETATM   14  C12 UNK     1       3.372   1.569  -1.520  1.00  0.00     0.074 A 
HETATM   15  C14 UNK     1       3.075   2.672  -2.321  1.00  0.00     0.070 A 
HETATM   16  C15 UNK     1       1.747   2.991  -2.604  1.00  0.00     0.038 A 
HETATM   17  C9  UNK     1       0.716   2.207  -2.086  1.00  0.00     0.020 A 
BRANCH  13  18
HETATM   18  O2  UNK     1       2.659  -0.288  -0.224  1.00  0.00    -0.355 OA
HETATM   19  C16 UNK     1       2.767  -0.059   1.179  1.00  0.00     0.210 C 
ENDBRANCH  13  18
BRANCH  15  20
HETATM   20  O4  UNK     1       4.081   3.438  -2.825  1.00  0.00    -0.356 OA
HETATM   21  C18 UNK     1       3.706   4.551  -3.636  1.00  0.00     0.210 C 
ENDBRANCH  15  20
ENDBRANCH   3  12
BRANCH  10  22
HETATM   22  O3  UNK     1      -4.751  -1.911   2.959  1.00  0.00    -0.356 OA
HETATM   23  C17 UNK     1      -5.168  -1.386   4.218  1.00  0.00     0.210 C 
ENDBRANCH  10  22
TORSDOF 4
