REMARK  1 active torsions:
REMARK  status: ('A' for Active; 'I' for Inactive)
REMARK    1  A    between atoms: C5_9  and  O3_3 
ROOT
HETATM    1  O1  UNK     1       2.558   1.483  -0.101  1.00  0.00    -0.319 OA
HETATM    2  O2  UNK     1      -1.243  -0.722   1.569  1.00  0.00    -0.274 OA
HETATM    3  O4  UNK     1      -3.090  -1.797   2.390  1.00  0.00    -0.260 OA
HETATM    4  C1  UNK     1       0.711   0.424   0.655  1.00  0.00     0.037 A 
HETATM    5  C2  UNK     1      -0.557  -0.152   0.469  1.00  0.00     0.103 A 
HETATM    6  C3  UNK     1       1.345   0.971  -0.455  1.00  0.00     0.121 A 
HETATM    7  C4  UNK     1      -1.143  -0.162  -0.802  1.00  0.00     0.002 A 
HETATM    8  C5  UNK     1       0.800   0.983  -1.738  1.00  0.00     0.103 A 
HETATM    9  C6  UNK     1      -0.465   0.402  -1.890  1.00  0.00     0.054 A 
HETATM   10  C7  UNK     1       1.600   0.621   1.744  1.00  0.00     0.042 A 
HETATM   11  C8  UNK     1      -2.458  -0.766  -0.960  1.00  0.00     0.020 A 
HETATM   12  C9  UNK     1       2.702   1.265   1.233  1.00  0.00     0.143 A 
HETATM   13  C10 UNK     1      -3.090  -1.300   0.088  1.00  0.00     0.083 A 
HETATM   14  C11 UNK     1      -2.498  -1.303   1.437  1.00  0.00     0.288 A 
ENDROOT
BRANCH   8  15
HETATM   15  O3  UNK     1       1.453   1.529  -2.805  1.00  0.00    -0.353 OA
HETATM   16  C12 UNK     1       2.306   0.665  -3.551  1.00  0.00     0.210 C 
ENDBRANCH   8  15
TORSDOF 1
