REMARK  8 active torsions:
REMARK  status: ('A' for Active; 'I' for Inactive)
REMARK    1  A    between atoms: C2_8  and  O1_1 
REMARK    2  A    between atoms: C3_9  and  O1_1 
REMARK    3  A    between atoms: C4_10  and  O2_2 
REMARK    4  A    between atoms: C9_15  and  O2_2 
REMARK    5  A    between atoms: C20_26  and  N1_5 
REMARK    6  A    between atoms: C1_7  and  C7_13 
REMARK    7  A    between atoms: C3_9  and  C4_10 
REMARK    8  A    between atoms: C6_12  and  C8_14 
ROOT
HETATM    1  N2  UNK     1      -1.851   2.067   1.483  1.00  0.00    -0.191 NA
HETATM    2  C7  UNK     1      -0.592  -1.102   1.995  1.00  0.00     0.035 C 
HETATM    3  C8  UNK     1      -1.789  -0.522   1.708  1.00  0.00     0.055 C 
HETATM    4  C24 UNK     1      -1.813   0.912   1.586  1.00  0.00     0.100 C 
ENDROOT
BRANCH   3   5
HETATM    5  C6  UNK     1      -3.024  -1.266   1.516  1.00  0.00    -0.015 A 
HETATM    6  C16 UNK     1      -3.375  -1.720   0.245  1.00  0.00     0.015 A 
HETATM    7  C21 UNK     1      -4.558  -2.435   0.062  1.00  0.00     0.037 A 
HETATM    8  C20 UNK     1      -5.391  -2.697   1.150  1.00  0.00     0.102 A 
HETATM    9  C22 UNK     1      -5.039  -2.243   2.422  1.00  0.00     0.037 A 
HETATM   10  C17 UNK     1      -3.856  -1.527   2.605  1.00  0.00     0.015 A 
BRANCH   8  11
HETATM   11  N1  UNK     1      -6.596  -3.424   0.965  1.00  0.00    -0.116 N 
HETATM   12  O3  UNK     1      -6.894  -3.824  -0.187  1.00  0.00    -0.532 OA
HETATM   13  O4  UNK     1      -7.330  -3.649   1.958  1.00  0.00    -0.532 OA
ENDBRANCH   8  11
ENDBRANCH   3   5
BRANCH   2  14
HETATM   14  C1  UNK     1       0.679  -0.391   2.190  1.00  0.00    -0.032 A 
HETATM   15  C5  UNK     1       1.510  -0.168   1.102  1.00  0.00     0.048 A 
HETATM   16  C2  UNK     1       2.717   0.506   1.288  1.00  0.00     0.069 A 
HETATM   17  C11 UNK     1       3.079   0.949   2.560  1.00  0.00     0.037 A 
HETATM   18  C12 UNK     1       2.235   0.718   3.646  1.00  0.00     0.004 A 
HETATM   19  C10 UNK     1       1.028   0.045   3.460  1.00  0.00     0.011 A 
BRANCH  16  20
HETATM   20  O1  UNK     1       3.541   0.732   0.229  1.00  0.00    -0.349 OA
BRANCH  20  21
HETATM   21  C3  UNK     1       4.357   1.901   0.278  1.00  0.00     0.202 C 
BRANCH  21  22
HETATM   22  C4  UNK     1       4.623   2.379  -1.137  1.00  0.00     0.202 C 
BRANCH  22  23
HETATM   23  O2  UNK     1       3.382   2.660  -1.773  1.00  0.00    -0.349 OA
BRANCH  23  24
HETATM   24  C9  UNK     1       3.337   2.505  -3.134  1.00  0.00     0.068 A 
HETATM   25  C14 UNK     1       4.486   2.712  -3.888  1.00  0.00     0.037 A 
HETATM   26  C18 UNK     1       4.441   2.555  -5.273  1.00  0.00     0.009 A 
HETATM   27  C13 UNK     1       3.247   2.192  -5.895  1.00  0.00    -0.062 A 
HETATM   28  C19 UNK     1       2.098   1.986  -5.132  1.00  0.00     0.009 A 
HETATM   29  C23 UNK     1       3.199   2.024  -7.376  1.00  0.00     0.048 C 
HETATM   30  C15 UNK     1       2.143   2.143  -3.747  1.00  0.00     0.037 A 
ENDBRANCH  23  24
ENDBRANCH  22  23
ENDBRANCH  21  22
ENDBRANCH  20  21
ENDBRANCH  16  20
ENDBRANCH   2  14
TORSDOF 8
