REMARK  7 active torsions:
REMARK  status: ('A' for Active; 'I' for Inactive)
REMARK    1  A    between atoms: C13_19  and  O1_2 
REMARK    2  A    between atoms: C14_20  and  N1_4 
REMARK       I    between atoms: C9_15  and  N1_4 
REMARK    3  A    between atoms: C1_7  and  C2_8 
REMARK    4  A    between atoms: C1_7  and  C5_11 
REMARK    5  A    between atoms: C3_9  and  C4_10 
REMARK    6  A    between atoms: C3_9  and  C9_15 
REMARK    7  A    between atoms: C10_16  and  C8_14 
ROOT
HETATM    1  O2  UNK     1      -0.455   0.488   2.790  1.00  0.00    -0.267 OA
HETATM    2  N1  UNK     1       0.067  -0.392   0.680  1.00  0.00    -0.300 N 
HETATM    3  C9  UNK     1      -0.740  -0.157   1.786  1.00  0.00     0.258 C 
HETATM    4  H8  UNK     1      -0.270  -0.941  -0.104  1.00  0.00     0.171 HD
ENDROOT
BRANCH   2   5
HETATM    5  C14 UNK     1       1.375   0.072   0.503  1.00  0.00     0.196 A 
HETATM    6  S1  UNK     1       2.126  -0.368  -0.959  1.00  0.00    -0.033 SA
HETATM    7  C5  UNK     1       3.484   0.509  -0.386  1.00  0.00     0.105 A 
HETATM    8  N2  UNK     1       3.325   1.058   0.799  1.00  0.00    -0.145 NA
HETATM    9  N3  UNK     1       2.071   0.796   1.323  1.00  0.00    -0.123 NA
BRANCH   7  10
HETATM   10  C1  UNK     1       4.705   0.599  -1.210  1.00  0.00     0.107 C 
BRANCH  10  11
HETATM   11  C2  UNK     1       4.726   1.792  -2.157  1.00  0.00    -0.052 A 
HETATM   12  C6  UNK     1       4.207   1.643  -3.426  1.00  0.00     0.010 A 
HETATM   13  C11 UNK     1       4.225   2.736  -4.293  1.00  0.00     0.037 A 
HETATM   14  C13 UNK     1       4.763   3.952  -3.871  1.00  0.00     0.068 A 
HETATM   15  C12 UNK     1       5.282   4.075  -2.582  1.00  0.00     0.037 A 
HETATM   16  C7  UNK     1       5.263   2.982  -1.715  1.00  0.00     0.010 A 
BRANCH  14  17
HETATM   17  O1  UNK     1       4.781   5.018  -4.716  1.00  0.00    -0.356 OA
HETATM   18  C25 UNK     1       4.235   4.823  -6.020  1.00  0.00     0.210 C 
ENDBRANCH  14  17
ENDBRANCH  10  11
ENDBRANCH   7  10
ENDBRANCH   2   5
BRANCH   3  19
HETATM   19  C3  UNK     1      -2.106  -0.792   1.655  1.00  0.00     0.043 C 
HETATM   20  C8  UNK     1      -2.948  -0.637   2.710  1.00  0.00     0.029 C 
BRANCH  19  21
HETATM   21  C4  UNK     1      -2.485  -1.567   0.455  1.00  0.00    -0.021 A 
HETATM   22  C15 UNK     1      -3.107  -0.920  -0.598  1.00  0.00     0.012 A 
HETATM   23  C19 UNK     1      -3.465  -1.651  -1.730  1.00  0.00     0.001 A 
HETATM   24  C21 UNK     1      -3.195  -3.018  -1.791  1.00  0.00     0.000 A 
HETATM   25  C20 UNK     1      -2.567  -3.654  -0.720  1.00  0.00     0.001 A 
HETATM   26  C16 UNK     1      -2.209  -2.922   0.412  1.00  0.00     0.012 A 
ENDBRANCH  19  21
BRANCH  20  27
HETATM   27  C10 UNK     1      -4.287  -1.189   2.841  1.00  0.00    -0.035 A 
HETATM   28  C17 UNK     1      -5.387  -0.469   2.375  1.00  0.00     0.011 A 
HETATM   29  C22 UNK     1      -6.671  -0.998   2.500  1.00  0.00     0.001 A 
HETATM   30  C24 UNK     1      -6.856  -2.248   3.091  1.00  0.00     0.000 A 
HETATM   31  C23 UNK     1      -5.756  -2.969   3.556  1.00  0.00     0.001 A 
HETATM   32  C18 UNK     1      -4.471  -2.440   3.431  1.00  0.00     0.011 A 
ENDBRANCH  20  27
ENDBRANCH   3  19
TORSDOF 7
