REMARK  5 active torsions:
REMARK  status: ('A' for Active; 'I' for Inactive)
REMARK    1  A    between atoms: C17_22  and  O2_2 
REMARK    2  A    between atoms: C21_26  and  O2_2 
REMARK       I    between atoms: C11_16  and  N1_5 
REMARK    3  A    between atoms: C6_11  and  N1_5 
REMARK    4  A    between atoms: C1_6  and  C2_7 
REMARK    5  A    between atoms: C11_16  and  C12_17 
ROOT
HETATM    1  O1  UNK     1       2.497   0.082  -1.162  1.00  0.00    -0.271 OA
HETATM    2  O4  UNK     1       1.685  -1.862  -0.279  1.00  0.00    -0.259 OA
HETATM    3  C12 UNK     1       0.814   0.154   0.611  1.00  0.00     0.108 A 
HETATM    4  C13 UNK     1       1.678   2.214  -0.327  1.00  0.00     0.002 A 
HETATM    5  C14 UNK     1       0.813   1.492   0.593  1.00  0.00     0.037 A 
HETATM    6  C15 UNK     1       2.501   1.491  -1.185  1.00  0.00     0.123 A 
HETATM    7  C16 UNK     1       1.681  -0.636  -0.292  1.00  0.00     0.304 A 
HETATM    8  C17 UNK     1       3.352   2.122  -2.090  1.00  0.00     0.103 A 
HETATM    9  C18 UNK     1       1.710   3.609  -0.379  1.00  0.00     0.014 A 
HETATM   10  C19 UNK     1       3.377   3.514  -2.136  1.00  0.00     0.040 A 
HETATM   11  C20 UNK     1       2.559   4.256  -1.282  1.00  0.00     0.004 A 
ENDROOT
BRANCH   3  12
HETATM   12  C11 UNK     1      -0.092  -0.483   1.574  1.00  0.00     0.262 C 
HETATM   13  O3  UNK     1       0.306  -0.739   2.709  1.00  0.00    -0.267 OA
HETATM   14  N1  UNK     1      -1.348  -0.723   1.032  1.00  0.00    -0.322 N 
HETATM   15  H12 UNK     1      -1.451  -0.415   0.082  1.00  0.00     0.169 HD
BRANCH  14  16
HETATM   16  C6  UNK     1      -2.463  -1.320   1.668  1.00  0.00     0.042 A 
HETATM   17  C2  UNK     1      -3.652  -1.487   0.977  1.00  0.00    -0.024 A 
HETATM   18  C7  UNK     1      -4.739  -2.079   1.621  1.00  0.00     0.010 A 
HETATM   19  C9  UNK     1      -4.622  -2.495   2.947  1.00  0.00     0.001 A 
HETATM   20  C10 UNK     1      -3.419  -2.319   3.630  1.00  0.00     0.002 A 
HETATM   21  C8  UNK     1      -2.332  -1.728   2.986  1.00  0.00     0.030 A 
BRANCH  17  22
HETATM   22  C1  UNK     1      -3.805  -1.051  -0.444  1.00  0.00    -0.022 C 
HETATM   23  C3  UNK     1      -5.239  -1.356  -0.975  1.00  0.00     0.019 C 
HETATM   24  C4  UNK     1      -2.791  -1.787  -1.372  1.00  0.00     0.019 C 
HETATM   25  C5  UNK     1      -3.579   0.474  -0.703  1.00  0.00     0.019 C 
ENDBRANCH  17  22
ENDBRANCH  14  16
ENDBRANCH   3  12
BRANCH   8  26
HETATM   26  O2  UNK     1       4.150   1.403  -2.923  1.00  0.00    -0.349 OA
BRANCH  26  27
HETATM   27  C21 UNK     1       4.466   1.987  -4.187  1.00  0.00     0.171 C 
HETATM   28  C22 UNK     1       4.689   0.883  -5.199  1.00  0.00     0.034 C 
ENDBRANCH  26  27
ENDBRANCH   8  26
TORSDOF 5
