REMARK  1 active torsions:
REMARK  status: ('A' for Active; 'I' for Inactive)
REMARK    1  A    between atoms: C3_7  and  C4_8 
ROOT
HETATM    1  F2  UNK     1      -4.242  -2.081   2.648  1.00  0.00    -0.206 F 
HETATM    2  O1  UNK     1       0.363   0.108   0.587  1.00  0.00    -0.309 OA
HETATM    3  O2  UNK     1      -2.600  -0.901  -2.024  1.00  0.00    -0.287 OA
HETATM    4  C1  UNK     1      -1.856  -0.811   0.217  1.00  0.00     0.051 A 
HETATM    5  C2  UNK     1      -0.804  -0.442   1.055  1.00  0.00     0.090 A 
HETATM    6  C3  UNK     1       0.497   0.298  -0.779  1.00  0.00     0.093 A 
HETATM    7  C5  UNK     1      -1.716  -0.603  -1.233  1.00  0.00     0.187 A 
HETATM    8  C6  UNK     1      -0.442  -0.011  -1.688  1.00  0.00     0.094 A 
HETATM    9  C7  UNK     1      -3.021  -1.366   0.750  1.00  0.00     0.060 A 
HETATM   10  C8  UNK     1      -0.912  -0.628   2.433  1.00  0.00     0.041 A 
HETATM   11  C11 UNK     1      -3.127  -1.551   2.129  1.00  0.00     0.117 A 
HETATM   12  C12 UNK     1      -2.075  -1.182   2.969  1.00  0.00     0.045 A 
ENDROOT
BRANCH   6  13
HETATM   13  C4  UNK     1       1.746   0.878  -1.172  1.00  0.00     0.036 A 
HETATM   14  C10 UNK     1       2.831   0.054  -1.481  1.00  0.00     0.017 A 
HETATM   15  C14 UNK     1       4.050   0.615  -1.864  1.00  0.00     0.001 A 
HETATM   16  C15 UNK     1       4.187   2.001  -1.939  1.00  0.00     0.003 A 
HETATM   17  C13 UNK     1       3.106   2.826  -1.631  1.00  0.00     0.043 A 
HETATM   18  C9  UNK     1       1.887   2.266  -1.248  1.00  0.00     0.129 A 
HETATM   19  F1  UNK     1       0.857   3.074  -0.956  1.00  0.00    -0.205 F 
ENDBRANCH   6  13
TORSDOF 1
