REMARK  4 active torsions:
REMARK  status: ('A' for Active; 'I' for Inactive)
REMARK    1  A    between atoms: C6_13  and  O2_3 
REMARK    2  A    between atoms: C11_18  and  O3_4 
REMARK    3  A    between atoms: C2_9  and  N1_7 
REMARK       I    between atoms: C7_14  and  N1_7 
REMARK    4  A    between atoms: C3_10  and  C7_14 
ROOT
HETATM    1  O4  UNK     1       0.498   0.750   1.601  1.00  0.00    -0.267 OA
HETATM    2  N1  UNK     1      -0.826  -0.089  -0.157  1.00  0.00    -0.320 N 
HETATM    3  C7  UNK     1       0.258   0.569   0.408  1.00  0.00     0.262 C 
HETATM    4  H2  UNK     1      -0.871  -0.167  -1.170  1.00  0.00     0.169 HD
ENDROOT
BRANCH   2   5
HETATM    5  C2  UNK     1      -1.909  -0.706   0.515  1.00  0.00     0.071 A 
HETATM    6  C6  UNK     1      -2.914  -1.323  -0.212  1.00  0.00     0.096 A 
HETATM    7  C12 UNK     1      -3.974  -1.926   0.465  1.00  0.00     0.065 A 
HETATM    8  C14 UNK     1      -4.014  -1.904   1.859  1.00  0.00     0.070 A 
HETATM    9  C11 UNK     1      -2.994  -1.279   2.576  1.00  0.00     0.092 A 
HETATM   10 Cl1  UNK     1      -5.338  -2.657   2.669  1.00  0.00    -0.081 Cl
HETATM   11  C8  UNK     1      -1.934  -0.676   1.900  1.00  0.00     0.071 A 
BRANCH   6  12
HETATM   12  O2  UNK     1      -2.893  -1.354  -1.574  1.00  0.00    -0.354 OA
HETATM   13  C17 UNK     1      -2.238  -2.463  -2.186  1.00  0.00     0.210 C 
ENDBRANCH   6  12
BRANCH   9  14
HETATM   14  O3  UNK     1      -3.008  -1.242   3.939  1.00  0.00    -0.354 OA
HETATM   15  C18 UNK     1      -2.371  -2.319   4.622  1.00  0.00     0.210 C 
ENDBRANCH   9  14
ENDBRANCH   2   5
BRANCH   3  16
HETATM   16  C3  UNK     1       1.185   1.082  -0.607  1.00  0.00     0.108 A 
HETATM   17  C5  UNK     1       2.472   1.156  -0.249  1.00  0.00     0.037 A 
HETATM   18  C1  UNK     1       3.468   1.653  -1.186  1.00  0.00    -0.001 A 
HETATM   19  C4  UNK     1       3.058   2.047  -2.456  1.00  0.00     0.089 A 
HETATM   20  C10 UNK     1       4.821   1.747  -0.855  1.00  0.00     0.014 A 
HETATM   21  C13 UNK     1       3.960   2.532  -3.401  1.00  0.00     0.038 A 
HETATM   22  O1  UNK     1       1.702   1.967  -2.828  1.00  0.00    -0.274 OA
HETATM   23  C16 UNK     1       5.309   2.623  -3.062  1.00  0.00     0.003 A 
HETATM   24  C15 UNK     1       5.739   2.231  -1.792  1.00  0.00     0.001 A 
HETATM   25  C9  UNK     1       0.727   1.496  -1.952  1.00  0.00     0.304 A 
HETATM   26  O5  UNK     1      -0.452   1.431  -2.284  1.00  0.00    -0.259 OA
ENDBRANCH   3  16
TORSDOF 4
