REMARK  4 active torsions:
REMARK  status: ('A' for Active; 'I' for Inactive)
REMARK    1  A    between atoms: C2_5  and  N1_3 
REMARK       I    between atoms: C5_8  and  N1_3 
REMARK    2  A    between atoms: C1_4  and  C3_6 
REMARK    3  A    between atoms: C1_4  and  C5_8 
REMARK    4  A    between atoms: C6_9  and  C7_10 
ROOT
HETATM    1  C1  UNK     1       0.143   0.096  -0.873  1.00  0.00     0.043 C 
HETATM    2  C6  UNK     1       0.570   0.349  -2.141  1.00  0.00     0.031 C 
ENDROOT
BRANCH   1   3
HETATM    3  C3  UNK     1       0.910   0.443   0.313  1.00  0.00    -0.021 A 
HETATM    4  C10 UNK     1       1.818  -0.471   0.849  1.00  0.00     0.012 A 
HETATM    5  C18 UNK     1       2.553  -0.139   1.987  1.00  0.00     0.001 A 
HETATM    6  C19 UNK     1       2.380   1.108   2.589  1.00  0.00     0.000 A 
HETATM    7  C17 UNK     1       1.472   2.021   2.054  1.00  0.00     0.001 A 
HETATM    8  C9  UNK     1       0.737   1.689   0.916  1.00  0.00     0.012 A 
ENDBRANCH   1   3
BRANCH   1   9
HETATM    9  C5  UNK     1      -1.232  -0.556  -0.792  1.00  0.00     0.257 C 
HETATM   10  O1  UNK     1      -1.857  -0.840  -1.810  1.00  0.00    -0.267 OA
HETATM   11  N1  UNK     1      -1.640  -0.766   0.519  1.00  0.00    -0.322 N 
HETATM   12  H2  UNK     1      -1.016  -0.483   1.267  1.00  0.00     0.169 HD
BRANCH  11  13
HETATM   13  C2  UNK     1      -2.854  -1.347   0.961  1.00  0.00     0.041 A 
HETATM   14  C4  UNK     1      -3.108  -1.484   2.316  1.00  0.00    -0.035 A 
HETATM   15  C11 UNK     1      -4.310  -2.057   2.731  1.00  0.00     0.009 A 
HETATM   16  C12 UNK     1      -2.128  -1.035   3.351  1.00  0.00     0.050 C 
HETATM   17  C14 UNK     1      -5.242  -2.485   1.785  1.00  0.00     0.001 A 
HETATM   18  C13 UNK     1      -4.971  -2.340   0.424  1.00  0.00     0.002 A 
HETATM   19  C8  UNK     1      -3.769  -1.767   0.009  1.00  0.00     0.030 A 
ENDBRANCH  11  13
ENDBRANCH   1   9
BRANCH   2  20
HETATM   20  C7  UNK     1       1.835   1.010  -2.495  1.00  0.00    -0.013 A 
HETATM   21  C15 UNK     1       1.921   2.386  -2.659  1.00  0.00     0.044 A 
HETATM   22 Cl1  UNK     1       0.555   3.428  -2.463  1.00  0.00    -0.083 Cl
HETATM   23  C20 UNK     1       3.145   2.964  -2.995  1.00  0.00     0.024 A 
HETATM   24  C22 UNK     1       4.273   2.161  -3.164  1.00  0.00     0.002 A 
HETATM   25  C21 UNK     1       4.177   0.779  -2.996  1.00  0.00     0.001 A 
HETATM   26  C16 UNK     1       2.953   0.201  -2.660  1.00  0.00     0.013 A 
ENDBRANCH   2  20
TORSDOF 4
