REMARK  4 active torsions:
REMARK  status: ('A' for Active; 'I' for Inactive)
REMARK    1  A    between atoms: C2_7  and  N1_5 
REMARK       I    between atoms: C6_11  and  N1_5 
REMARK    2  A    between atoms: C1_6  and  C2_7 
REMARK    3  A    between atoms: C1_6  and  C3_8 
REMARK    4  A    between atoms: C4_9  and  C6_11 
ROOT
HETATM    1  O2  UNK     1       0.696   1.624   2.387  1.00  0.00    -0.267 OA
HETATM    2  N1  UNK     1      -0.064  -0.505   1.816  1.00  0.00    -0.356 N 
HETATM    3  C6  UNK     1       0.637   0.670   1.613  1.00  0.00     0.257 C 
HETATM    4  H5  UNK     1      -0.073  -1.225   1.100  1.00  0.00     0.162 HD
ENDROOT
BRANCH   3   5
HETATM    5  C4  UNK     1       1.351   0.694   0.331  1.00  0.00     0.108 A 
HETATM    6  C11 UNK     1       1.861  -0.540  -0.308  1.00  0.00     0.304 A 
HETATM    7  O1  UNK     1       2.521  -0.388  -1.524  1.00  0.00    -0.274 OA
HETATM    8  O3  UNK     1       1.712  -1.644   0.204  1.00  0.00    -0.259 OA
HETATM    9  C8  UNK     1       2.697   0.876  -2.121  1.00  0.00     0.089 A 
HETATM   10  C13 UNK     1       3.371   0.928  -3.340  1.00  0.00     0.038 A 
HETATM   11  C5  UNK     1       2.210   2.023  -1.504  1.00  0.00    -0.001 A 
HETATM   12  C17 UNK     1       3.561   2.163  -3.955  1.00  0.00     0.003 A 
HETATM   13  C16 UNK     1       3.079   3.326  -3.350  1.00  0.00     0.001 A 
HETATM   14  C12 UNK     1       2.405   3.258  -2.127  1.00  0.00     0.014 A 
HETATM   15  C7  UNK     1       1.515   1.897  -0.232  1.00  0.00     0.037 A 
ENDBRANCH   3   5
BRANCH   2  16
HETATM   16  C2  UNK     1      -0.841  -0.763   3.007  1.00  0.00     0.127 C 
BRANCH  16  17
HETATM   17  C1  UNK     1      -2.290  -0.298   2.873  1.00  0.00     0.058 C 
BRANCH  17  18
HETATM   18  C3  UNK     1      -3.032  -0.996   1.760  1.00  0.00    -0.055 A 
HETATM   19  C10 UNK     1      -3.713  -2.172   2.031  1.00  0.00     0.007 A 
HETATM   20  C15 UNK     1      -4.398  -2.818   1.002  1.00  0.00     0.002 A 
HETATM   21  C18 UNK     1      -4.394  -2.280  -0.285  1.00  0.00     0.024 A 
HETATM   22  C14 UNK     1      -3.704  -1.095  -0.543  1.00  0.00     0.034 A 
HETATM   23 Cl1  UNK     1      -3.699  -0.431  -2.131  1.00  0.00    -0.084 Cl
HETATM   24  C9  UNK     1      -3.018  -0.449   0.486  1.00  0.00     0.031 A 
ENDBRANCH  17  18
ENDBRANCH  16  17
ENDBRANCH   2  16
TORSDOF 4
