REMARK  6 active torsions:
REMARK  status: ('A' for Active; 'I' for Inactive)
REMARK    1  A    between atoms: C14_19  and  O1_3 
REMARK    2  A    between atoms: C2_7  and  O1_3 
REMARK    3  A    between atoms: C1_6  and  C7_12 
REMARK    4  A    between atoms: C10_15  and  C7_12 
REMARK    5  A    between atoms: C11_16  and  C8_13 
REMARK    6  A    between atoms: C14_19  and  C9_14 
ROOT
HETATM    1  C1  UNK     1       0.933   0.987  -0.326  1.00  0.00     0.014 A 
HETATM    2  C2  UNK     1      -1.327  -0.434   0.483  1.00  0.00     0.079 A 
HETATM    3  C3  UNK     1       1.062  -0.321   0.141  1.00  0.00     0.018 A 
HETATM    4  C4  UNK     1      -0.326   1.584  -0.389  1.00  0.00     0.018 A 
HETATM    5  C5  UNK     1      -0.068  -1.032   0.545  1.00  0.00     0.038 A 
HETATM    6  C6  UNK     1      -1.456   0.874   0.015  1.00  0.00     0.038 A 
ENDROOT
BRANCH   1   7
HETATM    7  C7  UNK     1       2.112   1.728  -0.747  1.00  0.00     0.182 C 
HETATM    8  O2  UNK     1       3.105   1.140  -1.201  1.00  0.00    -0.288 OA
BRANCH   7   9
HETATM    9  C10 UNK     1       2.115   3.223  -0.590  1.00  0.00     0.056 C 
HETATM   10  C11 UNK     1       2.837   3.995  -1.416  1.00  0.00     0.015 C 
BRANCH  10  11
HETATM   11  C8  UNK     1       3.669   3.486  -2.521  1.00  0.00    -0.035 A 
HETATM   12  C12 UNK     1       3.086   2.750  -3.552  1.00  0.00     0.035 A 
HETATM   13  C17 UNK     1       3.874   2.269  -4.598  1.00  0.00     0.034 A 
HETATM   14 Cl1  UNK     1       3.156   1.360  -5.871  1.00  0.00    -0.084 Cl
HETATM   15  C19 UNK     1       5.245   2.523  -4.611  1.00  0.00     0.024 A 
HETATM   16  C18 UNK     1       5.828   3.260  -3.580  1.00  0.00     0.003 A 
HETATM   17  C13 UNK     1       5.040   3.741  -2.535  1.00  0.00     0.011 A 
ENDBRANCH  10  11
ENDBRANCH   7   9
ENDBRANCH   1   7
BRANCH   2  18
HETATM   18  O1  UNK     1      -2.430  -1.127   0.877  1.00  0.00    -0.275 OA
BRANCH  18  19
HETATM   19  C14 UNK     1      -2.747  -0.982   2.230  1.00  0.00     0.298 C 
HETATM   20  O3  UNK     1      -2.122  -0.314   3.039  1.00  0.00    -0.259 OA
BRANCH  19  21
HETATM   21  C9  UNK     1      -3.959  -1.765   2.584  1.00  0.00     0.040 A 
HETATM   22  C15 UNK     1      -4.433  -1.760   3.896  1.00  0.00     0.019 A 
HETATM   23  C20 UNK     1      -5.572  -2.494   4.229  1.00  0.00     0.025 A 
HETATM   24  C22 UNK     1      -6.235  -3.234   3.249  1.00  0.00     0.034 A 
HETATM   25  C21 UNK     1      -5.760  -3.239   1.938  1.00  0.00     0.025 A 
HETATM   26 Cl2  UNK     1      -7.639  -4.140   3.660  1.00  0.00    -0.084 Cl
HETATM   27  C16 UNK     1      -4.622  -2.504   1.605  1.00  0.00     0.019 A 
ENDBRANCH  19  21
ENDBRANCH  18  19
ENDBRANCH   2  18
TORSDOF 6
