REMARK  4 active torsions:
REMARK  status: ('A' for Active; 'I' for Inactive)
REMARK    1  A    between atoms: C7_13  and  O2_2 
REMARK    2  A    between atoms: C8_14  and  N1_6 
REMARK       I    between atoms: C9_15  and  N1_6 
REMARK    3  A    between atoms: C3_9  and  C9_15 
REMARK    4  A    between atoms: C12_18  and  C17_23 
ROOT
HETATM    1  O1  UNK     1       1.228   0.722  -3.041  1.00  0.00    -0.274 OA
HETATM    2  O4  UNK     1      -0.600  -0.517  -2.455  1.00  0.00    -0.259 OA
HETATM    3  C1  UNK     1       2.725   1.545  -1.311  1.00  0.00     0.002 A 
HETATM    4  C2  UNK     1       2.379   1.436  -2.654  1.00  0.00     0.089 A 
HETATM    5  C3  UNK     1       0.787   0.233  -0.686  1.00  0.00     0.108 A 
HETATM    6  C4  UNK     1       1.878   0.911  -0.313  1.00  0.00     0.037 A 
HETATM    7  C5  UNK     1       3.874   2.261  -0.967  1.00  0.00     0.051 A 
HETATM    8  C6  UNK     1       3.147   2.021  -3.660  1.00  0.00     0.041 A 
HETATM    9  C7  UNK     1       4.654   2.853  -1.965  1.00  0.00     0.069 A 
HETATM   10  C10 UNK     1       0.400   0.103  -2.109  1.00  0.00     0.304 A 
HETATM   11  C11 UNK     1       4.291   2.733  -3.308  1.00  0.00     0.039 A 
ENDROOT
BRANCH   5  12
HETATM   12  C9  UNK     1      -0.003  -0.371   0.394  1.00  0.00     0.262 C 
HETATM   13  O3  UNK     1       0.556  -0.735   1.428  1.00  0.00    -0.267 OA
HETATM   14  N1  UNK     1      -1.351  -0.452   0.075  1.00  0.00    -0.323 N 
HETATM   15  H5  UNK     1      -1.659  -0.082  -0.821  1.00  0.00     0.169 HD
BRANCH  14  16
HETATM   16  C8  UNK     1      -2.398  -0.975   0.873  1.00  0.00     0.035 A 
HETATM   17  C13 UNK     1      -2.104  -1.481   2.128  1.00  0.00     0.030 A 
HETATM   18  C15 UNK     1      -3.135  -1.995   2.914  1.00  0.00     0.017 A 
HETATM   19  C12 UNK     1      -4.444  -1.996   2.434  1.00  0.00     0.009 A 
HETATM   20  C16 UNK     1      -4.723  -1.482   1.167  1.00  0.00     0.017 A 
HETATM   21  C14 UNK     1      -3.692  -0.968   0.381  1.00  0.00     0.030 A 
BRANCH  19  22
HETATM   22  C17 UNK     1      -5.519  -2.533   3.253  1.00  0.00     0.155 C 
HETATM   23  O5  UNK     1      -6.700  -2.546   2.851  1.00  0.00    -0.293 OA
HETATM   24  C18 UNK     1      -5.221  -3.097   4.638  1.00  0.00     0.096 C 
ENDBRANCH  19  22
ENDBRANCH  14  16
ENDBRANCH   5  12
BRANCH   9  25
HETATM   25  O2  UNK     1       5.774   3.549  -1.626  1.00  0.00    -0.356 OA
HETATM   26  C19 UNK     1       6.527   4.127  -2.691  1.00  0.00     0.210 C 
ENDBRANCH   9  25
TORSDOF 4
