REMARK  4 active torsions:
REMARK  status: ('A' for Active; 'I' for Inactive)
REMARK    1  A    between atoms: C10_16  and  O3_3 
REMARK    2  A    between atoms: C19_25  and  O3_3 
REMARK    3  A    between atoms: C14_20  and  O4_4 
REMARK    4  A    between atoms: C1_7  and  C2_8 
ROOT
HETATM    1  O1  UNK     1       2.319   0.118  -1.249  1.00  0.00    -0.271 OA
HETATM    2  O5  UNK     1       1.414  -1.773  -0.355  1.00  0.00    -0.259 OA
HETATM    3  C2  UNK     1       0.449   0.292   0.338  1.00  0.00     0.052 A 
HETATM    4  C4  UNK     1       1.440   2.295  -0.637  1.00  0.00     0.002 A 
HETATM    5  C5  UNK     1       0.478   1.629   0.227  1.00  0.00     0.032 A 
HETATM    6  C6  UNK     1       2.341   1.521  -1.357  1.00  0.00     0.123 A 
HETATM    7  C8  UNK     1       1.411  -0.548  -0.429  1.00  0.00     0.299 A 
HETATM    8  C10 UNK     1       3.288   2.093  -2.203  1.00  0.00     0.103 A 
HETATM    9  C12 UNK     1       1.488   3.685  -0.768  1.00  0.00     0.014 A 
HETATM   10  C16 UNK     1       3.331   3.480  -2.328  1.00  0.00     0.040 A 
HETATM   11  C18 UNK     1       2.433   4.275  -1.613  1.00  0.00     0.004 A 
ENDROOT
BRANCH   3  12
HETATM   12  C1  UNK     1      -0.517  -0.356   1.202  1.00  0.00    -0.001 A 
HETATM   13  C3  UNK     1      -1.862  -0.791   0.778  1.00  0.00     0.009 A 
HETATM   14  C11 UNK     1      -2.349  -0.641  -0.529  1.00  0.00     0.018 A 
HETATM   15  C7  UNK     1      -2.709  -1.391   1.712  1.00  0.00     0.093 A 
HETATM   16  C15 UNK     1      -3.635  -1.073  -0.872  1.00  0.00     0.038 A 
HETATM   17  C14 UNK     1      -4.458  -1.665   0.084  1.00  0.00     0.070 A 
HETATM   18  C13 UNK     1      -3.995  -1.827   1.384  1.00  0.00     0.075 A 
HETATM   19  O2  UNK     1      -2.304  -1.593   3.044  1.00  0.00    -0.275 OA
HETATM   20  C17 UNK     1      -1.047  -1.210   3.477  1.00  0.00     0.289 A 
HETATM   21  O6  UNK     1      -0.675  -1.386   4.632  1.00  0.00    -0.260 OA
HETATM   22  C9  UNK     1      -0.168  -0.572   2.482  1.00  0.00     0.096 A 
BRANCH  17  23
HETATM   23  O4  UNK     1      -5.707  -2.084  -0.256  1.00  0.00    -0.356 OA
HETATM   24  C21 UNK     1      -6.495  -2.681   0.774  1.00  0.00     0.210 C 
ENDBRANCH  17  23
ENDBRANCH   3  12
BRANCH   8  25
HETATM   25  O3  UNK     1       4.165   1.323  -2.901  1.00  0.00    -0.349 OA
BRANCH  25  26
HETATM   26  C19 UNK     1       4.619   1.829  -4.156  1.00  0.00     0.171 C 
HETATM   27  C20 UNK     1       4.940   0.666  -5.069  1.00  0.00     0.034 C 
ENDBRANCH  25  26
ENDBRANCH   8  25
TORSDOF 4
