REMARK  4 active torsions:
REMARK  status: ('A' for Active; 'I' for Inactive)
REMARK    1  A    between atoms: C7_12  and  O2_2 
REMARK    2  A    between atoms: C9_14  and  O4_4 
REMARK    3  A    between atoms: C13_18  and  O5_5 
REMARK    4  A    between atoms: C3_8  and  C4_9 
ROOT
HETATM    1  O1  UNK     1       0.392  -1.082   0.400  1.00  0.00    -0.306 OA
HETATM    2  O3  UNK     1       0.882  -2.377   4.232  1.00  0.00    -0.287 OA
HETATM    3  C1  UNK     1       0.836  -2.915   1.931  1.00  0.00     0.051 A 
HETATM    4  C2  UNK     1       0.658  -2.405   0.646  1.00  0.00     0.126 A 
HETATM    5  C3  UNK     1       0.286  -0.218   1.479  1.00  0.00     0.090 A 
HETATM    6  C5  UNK     1       0.735  -1.999   3.078  1.00  0.00     0.187 A 
HETATM    7  C6  UNK     1       0.443  -0.586   2.760  1.00  0.00     0.093 A 
HETATM    8  C7  UNK     1       0.751  -3.252  -0.459  1.00  0.00     0.134 A 
HETATM    9  C8  UNK     1       1.107  -4.272   2.122  1.00  0.00     0.021 A 
HETATM   10  C9  UNK     1       1.021  -4.608  -0.272  1.00  0.00     0.101 A 
HETATM   11  C10 UNK     1       1.198  -5.117   1.016  1.00  0.00     0.040 A 
ENDROOT
BRANCH   5  12
HETATM   12  C4  UNK     1       0.003   1.181   1.102  1.00  0.00     0.001 A 
HETATM   13  C11 UNK     1      -0.743   1.462  -0.046  1.00  0.00     0.050 A 
HETATM   14  C13 UNK     1      -1.010   2.784  -0.402  1.00  0.00     0.066 A 
HETATM   15  C15 UNK     1      -0.532   3.829   0.388  1.00  0.00     0.036 A 
HETATM   16  C14 UNK     1       0.214   3.553   1.534  1.00  0.00     0.004 A 
HETATM   17  C12 UNK     1       0.480   2.231   1.890  1.00  0.00     0.014 A 
BRANCH  14  18
HETATM   18  O5  UNK     1      -1.735   3.055  -1.522  1.00  0.00    -0.361 OA
HETATM   19  H10 UNK     1      -1.823   4.020  -1.615  1.00  0.00     0.217 HD
ENDBRANCH  14  18
ENDBRANCH   5  12
BRANCH   8  20
HETATM   20  O2  UNK     1       0.578  -2.762  -1.719  1.00  0.00    -0.356 OA
HETATM   21  H8  UNK     1       0.679  -3.495  -2.351  1.00  0.00     0.218 HD
ENDBRANCH   8  20
BRANCH  10  22
HETATM   22  O4  UNK     1       1.114  -5.449  -1.340  1.00  0.00    -0.358 OA
HETATM   23  H9  UNK     1       1.305  -6.347  -1.021  1.00  0.00     0.217 HD
ENDBRANCH  10  22
TORSDOF 4
