REMARK  2 active torsions:
REMARK  status: ('A' for Active; 'I' for Inactive)
REMARK    1  A    between atoms: C10_14  and  O2_2 
REMARK    2  A    between atoms: C13_17  and  O4_4 
ROOT
HETATM    1  O1  UNK     1      -0.999   0.009  -2.133  1.00  0.00    -0.274 OA
HETATM    2  O3  UNK     1      -3.110  -0.838  -2.174  1.00  0.00    -0.259 OA
HETATM    3  C1  UNK     1      -0.817  -0.787   2.127  1.00  0.00     0.040 C 
HETATM    4  C2  UNK     1      -0.919  -0.494   0.646  1.00  0.00    -0.030 A 
HETATM    5  C3  UNK     1      -1.928  -1.689   2.667  1.00  0.00     0.005 C 
HETATM    6  C4  UNK     1      -3.278  -1.287   2.098  1.00  0.00     0.005 C 
HETATM    7  C5  UNK     1      -3.265  -1.382   0.573  1.00  0.00     0.045 C 
HETATM    8  C6  UNK     1      -2.027  -0.792  -0.059  1.00  0.00     0.025 A 
HETATM    9  C7  UNK     1       0.228   0.132  -0.032  1.00  0.00     0.038 A 
HETATM   10  C8  UNK     1       0.151   0.359  -1.404  1.00  0.00     0.095 A 
HETATM   11  C9  UNK     1      -2.111  -0.551  -1.523  1.00  0.00     0.295 A 
HETATM   12  C10 UNK     1       1.404   0.530   0.621  1.00  0.00     0.084 A 
HETATM   13  C11 UNK     1       1.192   0.946  -2.127  1.00  0.00     0.075 A 
HETATM   14  C12 UNK     1       2.457   1.120  -0.088  1.00  0.00     0.074 A 
HETATM   15  C13 UNK     1       2.352   1.326  -1.461  1.00  0.00     0.073 A 
ENDROOT
BRANCH  12  16
HETATM   16  O2  UNK     1       1.609   0.421   1.966  1.00  0.00    -0.355 OA
HETATM   17  C14 UNK     1       1.219   1.531   2.771  1.00  0.00     0.210 C 
ENDBRANCH  12  16
BRANCH  15  18
HETATM   18  O4  UNK     1       3.376   1.902  -2.146  1.00  0.00    -0.356 OA
HETATM   19  C15 UNK     1       3.196   2.088  -3.550  1.00  0.00     0.210 C 
ENDBRANCH  15  18
TORSDOF 2
