REMARK  6 active torsions:
REMARK  status: ('A' for Active; 'I' for Inactive)
REMARK    1  A    between atoms: C1_7  and  O1_4 
REMARK    2  A    between atoms: C4_10  and  O1_4 
REMARK    3  A    between atoms: C3_9  and  O2_5 
REMARK    4  A    between atoms: C2_8  and  C9_15 
REMARK    5  A    between atoms: C4_10  and  C8_14 
REMARK    6  A    between atoms: C10_16  and  C11_17 
ROOT
HETATM    1  N1  UNK     1       1.513   3.842  -0.412  1.00  0.00    -0.191 NA
HETATM    2  C9  UNK     1       2.190   0.609  -1.403  1.00  0.00     0.036 C 
HETATM    3  C10 UNK     1       2.763   1.839  -1.500  1.00  0.00     0.055 C 
HETATM    4  C23 UNK     1       2.064   2.942  -0.895  1.00  0.00     0.100 C 
ENDROOT
BRANCH   3   5
HETATM    5  C11 UNK     1       4.031   2.090  -2.167  1.00  0.00    -0.014 A 
HETATM    6  C16 UNK     1       4.054   2.409  -3.525  1.00  0.00     0.036 A 
HETATM    7  C19 UNK     1       5.270   2.649  -4.164  1.00  0.00     0.034 A 
HETATM    8 Cl2  UNK     1       5.300   3.044  -5.839  1.00  0.00    -0.084 Cl
HETATM    9  C21 UNK     1       6.463   2.572  -3.446  1.00  0.00     0.024 A 
HETATM   10  C20 UNK     1       6.440   2.254  -2.088  1.00  0.00     0.003 A 
HETATM   11  C17 UNK     1       5.224   2.013  -1.448  1.00  0.00     0.013 A 
ENDBRANCH   3   5
BRANCH   2  12
HETATM   12  C2  UNK     1       0.916   0.308  -0.734  1.00  0.00    -0.015 A 
HETATM   13  C5  UNK     1       0.972  -0.030   0.612  1.00  0.00     0.052 A 
HETATM   14  C3  UNK     1      -0.206  -0.326   1.297  1.00  0.00     0.102 A 
HETATM   15  C1  UNK     1      -1.431  -0.280   0.631  1.00  0.00     0.103 A 
HETATM   16  C7  UNK     1      -1.477   0.061  -0.721  1.00  0.00     0.059 A 
HETATM   17  C6  UNK     1      -0.298   0.356  -1.406  1.00  0.00     0.024 A 
HETATM   18 Br1  UNK     1      -0.432   0.814  -3.246  1.00  0.00    -0.050 Br
BRANCH  14  19
HETATM   19  O2  UNK     1      -0.149  -0.657   2.618  1.00  0.00    -0.353 OA
HETATM   20  C22 UNK     1      -0.246   0.410   3.558  1.00  0.00     0.210 C 
ENDBRANCH  14  19
BRANCH  15  21
HETATM   21  O1  UNK     1      -2.588  -0.567   1.290  1.00  0.00    -0.344 OA
BRANCH  21  22
HETATM   22  C4  UNK     1      -3.646  -1.137   0.522  1.00  0.00     0.214 C 
BRANCH  22  23
HETATM   23  C8  UNK     1      -4.491  -1.997   1.416  1.00  0.00    -0.034 A 
HETATM   24  C12 UNK     1      -4.181  -3.344   1.569  1.00  0.00     0.011 A 
HETATM   25  C14 UNK     1      -4.967  -4.143   2.399  1.00  0.00     0.024 A 
HETATM   26  C18 UNK     1      -6.058  -3.591   3.070  1.00  0.00     0.034 A 
HETATM   27  C15 UNK     1      -6.363  -2.239   2.911  1.00  0.00     0.024 A 
HETATM   28 Cl1  UNK     1      -7.029  -4.578   4.093  1.00  0.00    -0.084 Cl
HETATM   29  C13 UNK     1      -5.577  -1.440   2.081  1.00  0.00     0.011 A 
ENDBRANCH  22  23
ENDBRANCH  21  22
ENDBRANCH  15  21
ENDBRANCH   2  12
TORSDOF 6
