REMARK  6 active torsions:
REMARK  status: ('A' for Active; 'I' for Inactive)
REMARK    1  A    between atoms: C2_9  and  O1_5 
REMARK    2  A    between atoms: C4_11  and  O1_5 
REMARK    3  A    between atoms: C3_10  and  O2_6 
REMARK    4  A    between atoms: C1_8  and  C9_16 
REMARK    5  A    between atoms: C4_11  and  C8_15 
REMARK    6  A    between atoms: C10_17  and  C11_18 
ROOT
HETATM    1  N1  UNK     1      -3.352   1.578   1.381  1.00  0.00    -0.191 NA
HETATM    2  C9  UNK     1      -1.569  -1.355   1.043  1.00  0.00     0.036 C 
HETATM    3  C10 UNK     1      -2.797  -0.959   1.468  1.00  0.00     0.057 C 
HETATM    4  C23 UNK     1      -3.096   0.446   1.417  1.00  0.00     0.100 C 
ENDROOT
BRANCH   3   5
HETATM    5  C11 UNK     1      -3.817  -1.877   1.960  1.00  0.00     0.006 A 
HETATM    6  C14 UNK     1      -4.751  -2.474   1.113  1.00  0.00     0.047 A 
HETATM    7 Cl1  UNK     1      -4.768  -2.166  -0.588  1.00  0.00    -0.083 Cl
HETATM    8  C19 UNK     1      -5.706  -3.347   1.633  1.00  0.00     0.048 A 
HETATM    9  C21 UNK     1      -5.728  -3.623   3.001  1.00  0.00     0.035 A 
HETATM   10  C20 UNK     1      -4.795  -3.026   3.847  1.00  0.00     0.025 A 
HETATM   11 Cl2  UNK     1      -6.907  -4.700   3.643  1.00  0.00    -0.084 Cl
HETATM   12  C15 UNK     1      -3.839  -2.153   3.327  1.00  0.00     0.016 A 
ENDBRANCH   3   5
BRANCH   2  13
HETATM   13  C1  UNK     1      -0.511  -0.472   0.533  1.00  0.00    -0.015 A 
HETATM   14  C5  UNK     1      -0.488  -0.235  -0.836  1.00  0.00     0.052 A 
HETATM   15  C3  UNK     1       0.494   0.595  -1.376  1.00  0.00     0.102 A 
HETATM   16  C2  UNK     1       1.446   1.182  -0.542  1.00  0.00     0.103 A 
HETATM   17  C7  UNK     1       1.416   0.938   0.831  1.00  0.00     0.059 A 
HETATM   18  C6  UNK     1       0.433   0.108   1.371  1.00  0.00     0.024 A 
HETATM   19 Br1  UNK     1       0.449  -0.182   3.249  1.00  0.00    -0.050 Br
BRANCH  15  20
HETATM   20  O2  UNK     1       0.514   0.826  -2.718  1.00  0.00    -0.353 OA
HETATM   21  C22 UNK     1      -0.237   1.940  -3.195  1.00  0.00     0.210 C 
ENDBRANCH  15  20
BRANCH  16  22
HETATM   22  O1  UNK     1       2.411   1.995  -1.057  1.00  0.00    -0.344 OA
BRANCH  22  23
HETATM   23  C4  UNK     1       3.766   1.598  -0.859  1.00  0.00     0.214 C 
BRANCH  23  24
HETATM   24  C8  UNK     1       4.600   2.122  -1.991  1.00  0.00    -0.034 A 
HETATM   25  C12 UNK     1       4.777   1.346  -3.132  1.00  0.00     0.011 A 
HETATM   26  C16 UNK     1       5.553   1.833  -4.184  1.00  0.00     0.019 A 
HETATM   27  C18 UNK     1       6.147   3.091  -4.089  1.00  0.00     0.011 A 
HETATM   28 Br2  UNK     1       7.199   3.749  -5.514  1.00  0.00    -0.051 Br
HETATM   29  C17 UNK     1       5.965   3.864  -2.942  1.00  0.00     0.019 A 
HETATM   30  C13 UNK     1       5.189   3.377  -1.890  1.00  0.00     0.011 A 
ENDBRANCH  23  24
ENDBRANCH  22  23
ENDBRANCH  16  22
ENDBRANCH   2  13
TORSDOF 6
