REMARK  5 active torsions:
REMARK  status: ('A' for Active; 'I' for Inactive)
REMARK    1  A    between atoms: C14_21  and  O3_3 
REMARK    2  A    between atoms: C21_28  and  O5_5 
REMARK    3  A    between atoms: C5_12  and  N1_6 
REMARK       I    between atoms: C7_14  and  N2_7 
REMARK    4  A    between atoms: C5_12  and  C6_13 
REMARK    5  A    between atoms: C7_14  and  C9_16 
ROOT
HETATM    1  O2  UNK     1       1.349   1.010  -4.453  1.00  0.00    -0.267 OA
HETATM    2  N1  UNK     1      -0.988  -0.995  -0.533  1.00  0.00     0.095 N 
HETATM    3  N2  UNK     1       0.435   0.734  -2.319  1.00  0.00    -0.345 N 
HETATM    4  C1  UNK     1       0.229  -0.304  -0.085  1.00  0.00     0.292 C 
HETATM    5  C2  UNK     1      -0.900  -1.312  -1.966  1.00  0.00     0.292 C 
HETATM    6  C3  UNK     1       0.452   0.988  -0.874  1.00  0.00     0.156 C 
HETATM    7  C4  UNK     1      -0.713  -0.038  -2.789  1.00  0.00     0.156 C 
HETATM    8  C7  UNK     1       1.363   1.223  -3.241  1.00  0.00     0.256 C 
ENDROOT
BRANCH   2   9
HETATM    9  C5  UNK     1      -1.206  -2.212   0.249  1.00  0.00     0.312 C 
BRANCH   9  10
HETATM   10  C6  UNK     1      -1.824  -1.925   1.573  1.00  0.00    -0.011 A 
HETATM   11  C10 UNK     1      -1.069  -1.680   2.653  1.00  0.00     0.092 A 
HETATM   12  C13 UNK     1      -1.635  -1.393   3.981  1.00  0.00     0.288 A 
HETATM   13  O1  UNK     1      -3.018  -1.383   4.080  1.00  0.00    -0.275 OA
HETATM   14  O4  UNK     1      -0.913  -1.173   4.947  1.00  0.00    -0.260 OA
HETATM   15  C11 UNK     1      -3.838  -1.636   2.962  1.00  0.00     0.090 A 
HETATM   16  C8  UNK     1      -3.287  -1.908   1.709  1.00  0.00     0.006 A 
HETATM   17  C15 UNK     1      -5.217  -1.601   3.179  1.00  0.00     0.045 A 
HETATM   18  C12 UNK     1      -4.171  -2.150   0.649  1.00  0.00     0.015 A 
HETATM   19  C18 UNK     1      -5.555  -2.118   0.850  1.00  0.00     0.007 A 
HETATM   20  C17 UNK     1      -6.078  -1.844   2.113  1.00  0.00    -0.059 A 
HETATM   21  C22 UNK     1      -7.554  -1.811   2.320  1.00  0.00     0.048 C 
ENDBRANCH   9  10
ENDBRANCH   2   9
BRANCH   8  22
HETATM   22  C9  UNK     1       2.453   2.074  -2.744  1.00  0.00     0.065 A 
HETATM   23  C14 UNK     1       3.665   1.518  -2.333  1.00  0.00     0.086 A 
HETATM   24  C19 UNK     1       4.687   2.343  -1.865  1.00  0.00     0.074 A 
HETATM   25  C21 UNK     1       4.498   3.723  -1.807  1.00  0.00     0.070 A 
HETATM   26  C20 UNK     1       3.287   4.279  -2.218  1.00  0.00     0.038 A 
HETATM   27  C16 UNK     1       2.264   3.455  -2.687  1.00  0.00     0.022 A 
BRANCH  23  28
HETATM   28  O3  UNK     1       3.869   0.171  -2.382  1.00  0.00    -0.355 OA
HETATM   29  C23 UNK     1       5.137  -0.308  -1.941  1.00  0.00     0.210 C 
ENDBRANCH  23  28
BRANCH  25  30
HETATM   30  O5  UNK     1       5.496   4.528  -1.350  1.00  0.00    -0.356 OA
HETATM   31  C24 UNK     1       6.708   3.894  -0.946  1.00  0.00     0.210 C 
ENDBRANCH  25  30
ENDBRANCH   8  22
TORSDOF 5
