REMARK  4 active torsions:
REMARK  status: ('A' for Active; 'I' for Inactive)
REMARK    1  A    between atoms: C7_12  and  O2_2 
REMARK    2  A    between atoms: C12_17  and  O4_4 
REMARK    3  A    between atoms: C15_20  and  O5_5 
REMARK    4  A    between atoms: C1_6  and  C3_8 
ROOT
HETATM    1  O1  UNK     1      -0.019  -0.021  -0.951  1.00  0.00    -0.340 OA
HETATM    2  O3  UNK     1       0.610   3.883   0.143  1.00  0.00    -0.292 OA
HETATM    3  C1  UNK     1      -0.405   0.448   0.351  1.00  0.00     0.172 C 
HETATM    4  C2  UNK     1      -0.773   1.930   0.312  1.00  0.00     0.121 C 
HETATM    5  C4  UNK     1       0.412   2.718  -0.183  1.00  0.00     0.165 C 
HETATM    6  C5  UNK     1       1.291   2.027  -1.148  1.00  0.00     0.046 A 
HETATM    7  C6  UNK     1       1.011   0.702  -1.495  1.00  0.00     0.083 A 
HETATM    8  C9  UNK     1       2.362   2.701  -1.740  1.00  0.00     0.054 A 
HETATM    9  C10 UNK     1       1.786   0.060  -2.463  1.00  0.00     0.040 A 
HETATM   10  C12 UNK     1       3.145   2.047  -2.692  1.00  0.00     0.069 A 
HETATM   11  C14 UNK     1       2.855   0.731  -3.056  1.00  0.00     0.039 A 
ENDROOT
BRANCH   3  12
HETATM   12  C3  UNK     1      -1.568  -0.391   0.837  1.00  0.00     0.005 A 
HETATM   13  C7  UNK     1      -1.445  -1.190   1.973  1.00  0.00     0.079 A 
HETATM   14  C11 UNK     1      -2.526  -1.958   2.407  1.00  0.00     0.074 A 
HETATM   15  C15 UNK     1      -3.730  -1.926   1.704  1.00  0.00     0.070 A 
HETATM   16  C13 UNK     1      -3.854  -1.127   0.567  1.00  0.00     0.037 A 
HETATM   17  C8  UNK     1      -2.773  -0.359   0.134  1.00  0.00     0.015 A 
BRANCH  13  18
HETATM   18  O2  UNK     1      -0.276  -1.232   2.672  1.00  0.00    -0.355 OA
HETATM   19  C16 UNK     1      -0.118  -0.286   3.727  1.00  0.00     0.210 C 
ENDBRANCH  13  18
BRANCH  15  20
HETATM   20  O5  UNK     1      -4.785  -2.675   2.127  1.00  0.00    -0.356 OA
HETATM   21  C18 UNK     1      -5.987  -2.595   1.361  1.00  0.00     0.210 C 
ENDBRANCH  15  20
ENDBRANCH   3  12
BRANCH  10  22
HETATM   22  O4  UNK     1       4.190   2.697  -3.275  1.00  0.00    -0.356 OA
HETATM   23  C17 UNK     1       4.943   1.975  -4.247  1.00  0.00     0.210 C 
ENDBRANCH  10  22
TORSDOF 4
