REMARK  6 active torsions:
REMARK  status: ('A' for Active; 'I' for Inactive)
REMARK    1  A    between atoms: C12_19  and  O3_3 
REMARK    2  A    between atoms: C20_27  and  O3_3 
REMARK    3  A    between atoms: C23_30  and  O6_6 
REMARK    4  A    between atoms: C1_8  and  C10_17 
REMARK    5  A    between atoms: C12_19  and  C6_13 
REMARK    6  A    between atoms: C20_27  and  C23_30 
ROOT
HETATM    1  O1  UNK     1      -1.865  -3.192  -1.001  1.00  0.00    -0.293 OA
HETATM    2  N1  UNK     1      -2.841   0.337   2.004  1.00  0.00    -0.362 N 
HETATM    3  C1  UNK     1      -0.798  -1.266   0.863  1.00  0.00     0.104 C 
HETATM    4  C2  UNK     1      -2.264  -1.358   0.453  1.00  0.00     0.024 C 
HETATM    5  C3  UNK     1      -3.195  -0.554   1.009  1.00  0.00     0.020 C 
HETATM    6  C4  UNK     1      -4.645  -0.567   0.606  1.00  0.00     0.058 C 
HETATM    7  C5  UNK     1      -4.852  -1.170  -0.777  1.00  0.00     0.014 C 
HETATM    8  C6  UNK     1      -0.574  -0.341   2.063  1.00  0.00     0.052 C 
HETATM    9  C7  UNK     1      -4.150  -2.511  -0.893  1.00  0.00     0.084 C 
HETATM   10  C8  UNK     1      -2.684  -2.399  -0.536  1.00  0.00     0.158 C 
HETATM   11  C9  UNK     1      -1.575   0.419   2.565  1.00  0.00     0.018 C 
HETATM   12  C13 UNK     1      -1.476   1.363   3.733  1.00  0.00     0.069 C 
HETATM   13  H8  UNK     1      -3.572   0.914   2.403  1.00  0.00     0.165 HD
ENDROOT
BRANCH   3  14
HETATM   14  C10 UNK     1       0.040  -0.817  -0.304  1.00  0.00     0.029 A 
HETATM   15  C11 UNK     1      -0.218   0.523  -0.889  1.00  0.00     0.194 A 
HETATM   16  O4  UNK     1      -1.087   1.267  -0.452  1.00  0.00    -0.287 OA
HETATM   17  C15 UNK     1       0.630   0.912  -2.030  1.00  0.00     0.049 A 
HETATM   18  C16 UNK     1       1.604   0.023  -2.486  1.00  0.00     0.089 A 
HETATM   19  C17 UNK     1       0.465   2.154  -2.650  1.00  0.00     0.025 A 
HETATM   20  O2  UNK     1       1.809  -1.207  -1.915  1.00  0.00    -0.321 OA
HETATM   21  C18 UNK     1       2.418   0.371  -3.565  1.00  0.00     0.039 A 
HETATM   22  C14 UNK     1       1.012  -1.557  -0.854  1.00  0.00     0.154 A 
HETATM   23  C21 UNK     1       2.255   1.610  -4.185  1.00  0.00     0.009 A 
HETATM   24  C19 UNK     1       1.281   2.499  -3.729  1.00  0.00    -0.061 A 
HETATM   25  C22 UNK     1       1.112   3.823  -4.396  1.00  0.00     0.048 C 
ENDBRANCH   3  14
BRANCH   8  26
HETATM   26  C12 UNK     1       0.784  -0.341   2.635  1.00  0.00     0.292 C 
HETATM   27  O5  UNK     1       1.137  -1.099   3.518  1.00  0.00    -0.259 OA
BRANCH  26  28
HETATM   28  O3  UNK     1       1.510   0.618   2.011  1.00  0.00    -0.316 OA
BRANCH  28  29
HETATM   29  C20 UNK     1       2.863   0.741   2.459  1.00  0.00     0.205 C 
BRANCH  29  30
HETATM   30  C23 UNK     1       3.545   1.846   1.675  1.00  0.00     0.193 C 
BRANCH  30  31
HETATM   31  O6  UNK     1       3.540   1.506   0.294  1.00  0.00    -0.394 OA
HETATM   32  C24 UNK     1       4.149   2.519  -0.494  1.00  0.00     0.201 C 
ENDBRANCH  30  31
ENDBRANCH  29  30
ENDBRANCH  28  29
ENDBRANCH  26  28
ENDBRANCH   8  26
TORSDOF 6
