REMARK  3 active torsions:
REMARK  status: ('A' for Active; 'I' for Inactive)
REMARK       I    between atoms: C18_23  and  N1_4 
REMARK    1  A    between atoms: N1_4  and  N2_5 
REMARK    2  A    between atoms: C14_19  and  C7_12 
REMARK    3  A    between atoms: C11_16  and  C18_23 
ROOT
HETATM    1  N2  UNK     1       0.481   0.489  -0.314  1.00  0.00    -0.183 NA
HETATM    2  C14 UNK     1       0.367   0.135   0.925  1.00  0.00     0.156 C 
ENDROOT
BRANCH   2   3
HETATM    3  C7  UNK     1      -0.835  -0.511   1.450  1.00  0.00     0.056 A 
HETATM    4  C5  UNK     1      -2.024  -0.821   0.626  1.00  0.00     0.198 A 
HETATM    5  C1  UNK     1      -3.144  -1.474   1.329  1.00  0.00     0.049 A 
HETATM    6  O2  UNK     1      -2.079  -0.551  -0.566  1.00  0.00    -0.286 OA
HETATM    7  C2  UNK     1      -3.019  -1.755   2.691  1.00  0.00     0.089 A 
HETATM    8  C4  UNK     1      -4.316  -1.808   0.646  1.00  0.00     0.025 A 
HETATM    9  O1  UNK     1      -1.892  -1.450   3.413  1.00  0.00    -0.321 OA
HETATM   10  C6  UNK     1      -4.067  -2.373   3.375  1.00  0.00     0.039 A 
HETATM   11  C9  UNK     1      -0.855  -0.839   2.746  1.00  0.00     0.159 A 
HETATM   12  C8  UNK     1      -5.238  -2.707   2.695  1.00  0.00     0.009 A 
HETATM   13  C3  UNK     1      -5.362  -2.425   1.333  1.00  0.00    -0.061 A 
HETATM   14  C10 UNK     1      -6.617  -2.785   0.612  1.00  0.00     0.048 C 
ENDBRANCH   2   3
BRANCH   1  15
HETATM   15  N1  UNK     1       1.666   1.072  -0.615  1.00  0.00    -0.243 N 
HETATM   16  C18 UNK     1       1.901   1.456  -1.922  1.00  0.00     0.271 C 
HETATM   17  O3  UNK     1       1.108   1.309  -2.849  1.00  0.00    -0.266 OA
HETATM   18  H16 UNK     1       2.351   1.147   0.131  1.00  0.00     0.192 HD
BRANCH  16  19
HETATM   19  C11 UNK     1       3.228   2.069  -2.188  1.00  0.00     0.034 A 
HETATM   20  C13 UNK     1       3.768   1.966  -3.452  1.00  0.00     0.024 A 
HETATM   21  C12 UNK     1       5.014   2.542  -3.701  1.00  0.00    -0.061 A 
HETATM   22  C16 UNK     1       5.691   3.208  -2.680  1.00  0.00     0.007 A 
HETATM   23  C19 UNK     1       5.622   2.446  -5.060  1.00  0.00     0.048 C 
HETATM   24  C17 UNK     1       5.123   3.298  -1.410  1.00  0.00     0.002 A 
HETATM   25  C15 UNK     1       3.877   2.722  -1.161  1.00  0.00     0.017 A 
ENDBRANCH  16  19
ENDBRANCH   1  15
TORSDOF 3
