REMARK  4 active torsions:
REMARK  status: ('A' for Active; 'I' for Inactive)
REMARK    1  A    between atoms: C16_20  and  O2_2 
REMARK    2  A    between atoms: C19_23  and  O3_3 
REMARK    3  A    between atoms: C22_26  and  O4_4 
REMARK    4  A    between atoms: C12_16  and  C3_7 
ROOT
HETATM    1  O1  UNK     1      -1.114   1.659   0.521  1.00  0.00    -0.334 OA
HETATM    2  C1  UNK     1      -1.005  -1.056  -0.673  1.00  0.00    -0.004 C 
HETATM    3  C2  UNK     1      -1.151   0.237  -1.511  1.00  0.00     0.039 C 
HETATM    4  C3  UNK     1      -0.592   1.497  -0.810  1.00  0.00     0.102 C 
HETATM    5  C4  UNK     1      -2.615   0.610  -1.855  1.00  0.00     0.009 C 
HETATM    6  C5  UNK     1       0.461  -1.552  -0.655  1.00  0.00     0.015 C 
HETATM    7  C6  UNK     1      -1.732  -2.234  -1.372  1.00  0.00     0.015 C 
HETATM    8  C7  UNK     1      -1.253   2.618  -1.642  1.00  0.00     0.044 C 
HETATM    9  C8  UNK     1      -2.683   2.135  -1.862  1.00  0.00     0.004 C 
HETATM   10  C9  UNK     1      -1.476  -0.762   0.749  1.00  0.00    -0.015 A 
HETATM   11  C10 UNK     1       0.381  -3.057  -0.439  1.00  0.00     0.001 C 
HETATM   12  C11 UNK     1      -0.879  -3.491  -1.172  1.00  0.00     0.001 C 
HETATM   13  C13 UNK     1      -1.472   0.552   1.239  1.00  0.00     0.080 A 
HETATM   14  C14 UNK     1      -1.924  -1.776   1.616  1.00  0.00     0.013 A 
HETATM   15  C15 UNK     1      -1.893   0.833   2.547  1.00  0.00     0.073 A 
HETATM   16  C18 UNK     1      -2.341  -1.495   2.919  1.00  0.00     0.037 A 
HETATM   17  C19 UNK     1      -2.323  -0.188   3.386  1.00  0.00     0.068 A 
ENDROOT
BRANCH   4  18
HETATM   18  C12 UNK     1       0.927   1.671  -0.825  1.00  0.00     0.010 A 
HETATM   19  C16 UNK     1       1.641   1.644  -2.027  1.00  0.00     0.077 A 
HETATM   20  C20 UNK     1       3.026   1.804  -2.023  1.00  0.00     0.073 A 
HETATM   21  C22 UNK     1       3.703   1.992  -0.818  1.00  0.00     0.068 A 
HETATM   22  C21 UNK     1       2.995   2.020   0.383  1.00  0.00     0.037 A 
HETATM   23  C17 UNK     1       1.609   1.859   0.379  1.00  0.00     0.016 A 
BRANCH  19  24
HETATM   24  O2  UNK     1       0.994   1.463  -3.212  1.00  0.00    -0.360 OA
HETATM   25  H22 UNK     1       1.646   1.470  -3.934  1.00  0.00     0.217 HD
ENDBRANCH  19  24
BRANCH  21  26
HETATM   26  O4  UNK     1       5.055   2.147  -0.814  1.00  0.00    -0.361 OA
HETATM   27  H24 UNK     1       5.381   2.101  -1.729  1.00  0.00     0.217 HD
ENDBRANCH  21  26
ENDBRANCH   4  18
BRANCH  17  28
HETATM   28  O3  UNK     1      -2.729   0.093   4.654  1.00  0.00    -0.361 OA
HETATM   29  H23 UNK     1      -2.650   1.050   4.806  1.00  0.00     0.217 HD
ENDBRANCH  17  28
TORSDOF 4
