REMARK  2 active torsions:
REMARK  status: ('A' for Active; 'I' for Inactive)
REMARK    1  A    between atoms: C7_10  and  N1_3 
REMARK    2  A    between atoms: C7_10  and  C8_11 
ROOT
HETATM    1  O1  UNK     1      -3.036  -0.750  -0.716  1.00  0.00    -0.275 OA
HETATM    2  O2  UNK     1      -3.081  -0.807  -3.001  1.00  0.00    -0.260 OA
HETATM    3  C8  UNK     1      -0.211  -0.779  -0.870  1.00  0.00    -0.011 A 
HETATM    4  C9  UNK     1      -0.882  -0.740   0.437  1.00  0.00     0.012 A 
HETATM    5  C10 UNK     1      -0.201  -0.714   1.661  1.00  0.00    -0.048 A 
HETATM    6  C11 UNK     1      -0.958  -0.800  -1.983  1.00  0.00     0.092 A 
HETATM    7  C12 UNK     1      -2.277  -0.727   0.471  1.00  0.00     0.091 A 
HETATM    8  C13 UNK     1      -0.904  -0.677   2.870  1.00  0.00     0.014 A 
HETATM    9  C14 UNK     1      -2.993  -0.690   1.670  1.00  0.00     0.045 A 
HETATM   10  C15 UNK     1      -2.298  -0.665   2.874  1.00  0.00    -0.059 A 
HETATM   11  C16 UNK     1      -2.430  -0.787  -1.963  1.00  0.00     0.288 A 
HETATM   12  C17 UNK     1       1.287  -0.721   1.809  1.00  0.00     0.049 C 
HETATM   13  C18 UNK     1      -3.042  -0.624   4.166  1.00  0.00     0.048 C 
ENDROOT
BRANCH   3  14
HETATM   14  C7  UNK     1       1.271  -0.801  -1.022  1.00  0.00     0.312 C 
BRANCH  14  15
HETATM   15  N1  UNK     1       1.837   0.547  -1.111  1.00  0.00     0.092 N 
HETATM   16  C1  UNK     1       1.275   1.248  -2.270  1.00  0.00     0.272 C 
HETATM   17  C3  UNK     1       1.937   2.566  -2.683  1.00  0.00     0.030 C 
HETATM   18  C5  UNK     1       2.385   3.447  -1.521  1.00  0.00     0.002 C 
HETATM   19  C6  UNK     1       3.770   3.060  -1.009  1.00  0.00     0.002 C 
HETATM   20  C4  UNK     1       3.849   1.712  -0.300  1.00  0.00     0.030 C 
HETATM   21  C2  UNK     1       3.300   0.513  -1.078  1.00  0.00     0.272 C 
ENDBRANCH  14  15
ENDBRANCH   3  14
TORSDOF 2
