REMARK  1 active torsions:
REMARK  status: ('A' for Active; 'I' for Inactive)
REMARK    1  A    between atoms: C6_10  and  O2_3 
ROOT
HETATM    1 Cl1  UNK     1       2.382   1.595  -2.932  1.00  0.00    -0.081 Cl
HETATM    2  O1  UNK     1      -0.873  -0.441   1.554  1.00  0.00    -0.275 OA
HETATM    3  O3  UNK     1      -2.798  -1.426   2.306  1.00  0.00    -0.260 OA
HETATM    4  C1  UNK     1      -0.602  -0.040  -0.832  1.00  0.00    -0.000 A 
HETATM    5  C2  UNK     1      -0.111   0.040   0.469  1.00  0.00     0.092 A 
HETATM    6  C3  UNK     1       0.182   0.447  -1.880  1.00  0.00     0.041 A 
HETATM    7  C4  UNK     1       1.138   0.591   0.749  1.00  0.00     0.076 A 
HETATM    8  C5  UNK     1      -1.913  -0.627  -1.051  1.00  0.00     0.020 A 
HETATM    9  C6  UNK     1       1.914   1.074  -0.303  1.00  0.00     0.090 A 
HETATM   10  C7  UNK     1       1.437   1.002  -1.614  1.00  0.00     0.068 A 
HETATM   11  C8  UNK     1      -2.628  -1.080  -0.018  1.00  0.00     0.083 A 
HETATM   12  C9  UNK     1      -2.130  -1.006   1.368  1.00  0.00     0.288 A 
ENDROOT
BRANCH   9  13
HETATM   13  O2  UNK     1       3.134   1.612  -0.023  1.00  0.00    -0.359 OA
HETATM   14  H5  UNK     1       3.540   1.898  -0.860  1.00  0.00     0.217 HD
ENDBRANCH   9  13
TORSDOF 1
