REMARK  9 active torsions:
REMARK  status: ('A' for Active; 'I' for Inactive)
REMARK    1  A    between atoms: C3_10  and  O1_1 
REMARK    2  A    between atoms: C4_11  and  O2_2 
REMARK    3  A    between atoms: C5_12  and  O3_3 
REMARK    4  A    between atoms: C8_15  and  O4_4 
REMARK    5  A    between atoms: C9_16  and  O5_5 
REMARK    6  A    between atoms: C10_17  and  O6_6 
REMARK    7  A    between atoms: C1_8  and  C13_20 
REMARK    8  A    between atoms: C14_21  and  C2_9 
REMARK    9  A    between atoms: C13_20  and  C15_22 
ROOT
HETATM    1  O7  UNK     1      -2.719   0.491  -1.751  1.00  0.00    -0.288 OA
HETATM    2  C13 UNK     1      -1.987   0.148  -0.829  1.00  0.00     0.182 C 
ENDROOT
BRANCH   2   3
HETATM    3  C1  UNK     1      -2.543  -0.640   0.297  1.00  0.00     0.019 A 
HETATM    4  C6  UNK     1      -3.626  -1.464   0.065  1.00  0.00     0.055 A 
HETATM    5  C4  UNK     1      -4.151  -2.204   1.125  1.00  0.00     0.105 A 
HETATM    6  C3  UNK     1      -3.582  -2.105   2.394  1.00  0.00     0.135 A 
HETATM    7  C5  UNK     1      -2.487  -1.265   2.604  1.00  0.00     0.105 A 
HETATM    8  C7  UNK     1      -1.963  -0.525   1.545  1.00  0.00     0.055 A 
BRANCH   5   9
HETATM    9  O2  UNK     1      -5.220  -3.019   0.907  1.00  0.00    -0.353 OA
HETATM   10  C17 UNK     1      -4.942  -4.365   0.525  1.00  0.00     0.210 C 
ENDBRANCH   5   9
BRANCH   6  11
HETATM   11  O1  UNK     1      -4.094  -2.828   3.430  1.00  0.00    -0.351 OA
HETATM   12  C16 UNK     1      -5.456  -2.590   3.775  1.00  0.00     0.210 C 
ENDBRANCH   6  11
BRANCH   7  13
HETATM   13  O3  UNK     1      -1.921  -1.159   3.839  1.00  0.00    -0.353 OA
HETATM   14  C18 UNK     1      -2.440  -0.152   4.705  1.00  0.00     0.210 C 
ENDBRANCH   7  13
ENDBRANCH   2   3
BRANCH   2  15
HETATM   15  C15 UNK     1      -0.531   0.464  -0.800  1.00  0.00     0.056 C 
HETATM   16  C14 UNK     1       0.038   1.153  -1.814  1.00  0.00     0.015 C 
BRANCH  16  17
HETATM   17  C2  UNK     1       1.447   1.504  -1.902  1.00  0.00    -0.031 A 
HETATM   18  C11 UNK     1       2.008   1.832  -3.136  1.00  0.00     0.051 A 
HETATM   19  C9  UNK     1       3.359   2.168  -3.221  1.00  0.00     0.105 A 
HETATM   20  C8  UNK     1       4.150   2.175  -2.071  1.00  0.00     0.135 A 
HETATM   21  C10 UNK     1       3.588   1.847  -0.837  1.00  0.00     0.105 A 
HETATM   22  C12 UNK     1       2.237   1.511  -0.752  1.00  0.00     0.051 A 
BRANCH  19  23
HETATM   23  O5  UNK     1       3.895   2.487  -4.432  1.00  0.00    -0.353 OA
HETATM   24  C20 UNK     1       4.442   1.417  -5.201  1.00  0.00     0.210 C 
ENDBRANCH  19  23
BRANCH  20  25
HETATM   25  O4  UNK     1       5.470   2.504  -2.154  1.00  0.00    -0.351 OA
HETATM   26  C19 UNK     1       5.805   3.881  -2.001  1.00  0.00     0.210 C 
ENDBRANCH  20  25
BRANCH  21  27
HETATM   27  O6  UNK     1       4.349   1.850   0.293  1.00  0.00    -0.353 OA
HETATM   28  C21 UNK     1       5.002   0.630   0.638  1.00  0.00     0.210 C 
ENDBRANCH  21  27
ENDBRANCH  16  17
ENDBRANCH   2  15
TORSDOF 9
