REMARK  3 active torsions:
REMARK  status: ('A' for Active; 'I' for Inactive)
REMARK    1  A    between atoms: C8_16  and  N1_6 
REMARK    2  A    between atoms: C16_24  and  N2_7 
REMARK    3  A    between atoms: C1_9  and  C3_11 
ROOT
HETATM    1  O1  UNK     1       2.528  -0.061   1.273  1.00  0.00    -0.269 OA
HETATM    2  O2  UNK     1       3.057   0.547  -0.928  1.00  0.00    -0.286 OA
HETATM    3  O3  UNK     1      -0.648   2.123  -1.512  1.00  0.00    -0.287 OA
HETATM    4  N3  UNK     1      -0.945   0.639   4.537  1.00  0.00    -0.191 NA
HETATM    5  C1  UNK     1      -0.166   0.894   1.059  1.00  0.00     0.108 C 
HETATM    6  C2  UNK     1       0.849   0.977  -0.060  1.00  0.00     0.065 A 
HETATM    7  C4  UNK     1       0.469   0.458   2.373  1.00  0.00     0.086 C 
HETATM    8  C5  UNK     1       2.103   0.509   0.078  1.00  0.00     0.204 A 
HETATM    9  C6  UNK     1       0.457   1.624  -1.341  1.00  0.00     0.197 A 
HETATM   10  C7  UNK     1       1.472   1.637  -2.403  1.00  0.00     0.049 A 
HETATM   11  C8  UNK     1       1.743   0.008   2.422  1.00  0.00     0.162 C 
HETATM   12  C9  UNK     1       2.725   1.093  -2.139  1.00  0.00     0.092 A 
HETATM   13  C12 UNK     1       1.191   2.186  -3.656  1.00  0.00     0.018 A 
HETATM   14  C15 UNK     1       3.708   1.093  -3.129  1.00  0.00     0.038 A 
HETATM   15  C17 UNK     1      -0.312   0.558   3.568  1.00  0.00     0.100 C 
HETATM   16  C18 UNK     1       2.175   2.185  -4.645  1.00  0.00     0.001 A 
HETATM   17  C19 UNK     1       3.432   1.639  -4.383  1.00  0.00     0.003 A 
ENDROOT
BRANCH   5  18
HETATM   18  C3  UNK     1      -1.283  -0.037   0.689  1.00  0.00    -0.044 A 
HETATM   19  C10 UNK     1      -2.581   0.450   0.592  1.00  0.00     0.011 A 
HETATM   20  C13 UNK     1      -3.620  -0.416   0.249  1.00  0.00     0.036 A 
HETATM   21  C16 UNK     1      -3.353  -1.763   0.004  1.00  0.00     0.102 A 
HETATM   22  C14 UNK     1      -2.047  -2.244   0.102  1.00  0.00     0.036 A 
HETATM   23  C11 UNK     1      -1.009  -1.378   0.446  1.00  0.00     0.011 A 
BRANCH  21  24
HETATM   24  N2  UNK     1      -4.410  -2.645  -0.345  1.00  0.00    -0.116 N 
HETATM   25  O4  UNK     1      -5.577  -2.192  -0.428  1.00  0.00    -0.532 OA
HETATM   26  O5  UNK     1      -4.148  -3.852  -0.562  1.00  0.00    -0.532 OA
ENDBRANCH  21  24
ENDBRANCH   5  18
BRANCH  11  27
HETATM   27  N1  UNK     1       2.384  -0.416   3.553  1.00  0.00    -0.379 N 
HETATM   28  H10 UNK     1       1.915  -0.416   4.449  1.00  0.00     0.158 HD
HETATM   29  H9  UNK     1       3.342  -0.736   3.479  1.00  0.00     0.158 HD
ENDBRANCH  11  27
TORSDOF 3
