REMARK  6 active torsions:
REMARK  status: ('A' for Active; 'I' for Inactive)
REMARK    1  A    between atoms: C3_8  and  O1_1 
REMARK    2  A    between atoms: C9_14  and  O1_1 
REMARK    3  A    between atoms: C15_20  and  O3_3 
REMARK    4  A    between atoms: C16_21  and  O3_3 
REMARK    5  A    between atoms: C1_6  and  C6_11 
REMARK    6  A    between atoms: C15_20  and  C9_14 
ROOT
HETATM    1  O2  UNK     1      -2.373  -1.171  -1.180  1.00  0.00    -0.275 OA
HETATM    2  O4  UNK     1      -4.388  -1.999  -1.875  1.00  0.00    -0.260 OA
HETATM    3  C1  UNK     1       0.158   0.126   1.873  1.00  0.00    -0.024 A 
HETATM    4  C2  UNK     1      -2.011  -0.753   1.200  1.00  0.00     0.005 A 
HETATM    5  C3  UNK     1       0.589   0.127   0.548  1.00  0.00     0.079 A 
HETATM    6  C4  UNK     1      -1.132  -0.310   2.198  1.00  0.00     0.024 A 
HETATM    7  C5  UNK     1      -1.552  -0.741  -0.118  1.00  0.00     0.092 A 
HETATM    8  C7  UNK     1      -0.268  -0.309  -0.457  1.00  0.00     0.075 A 
HETATM    9  C8  UNK     1      -3.376  -1.224   1.465  1.00  0.00    -0.043 A 
HETATM   10  C11 UNK     1      -4.136  -1.627   0.436  1.00  0.00     0.090 A 
HETATM   11  C12 UNK     1      -3.899  -1.250   2.872  1.00  0.00     0.049 C 
HETATM   12  C14 UNK     1      -3.666  -1.621  -0.959  1.00  0.00     0.288 A 
ENDROOT
BRANCH   5  13
HETATM   13  O1  UNK     1       1.841   0.550   0.221  1.00  0.00    -0.336 OA
BRANCH  13  14
HETATM   14  C9  UNK     1       1.940   1.660  -0.669  1.00  0.00     0.224 C 
HETATM   15  C13 UNK     1       2.690   2.771   0.043  1.00  0.00     0.051 C 
BRANCH  14  16
HETATM   16  C15 UNK     1       2.668   1.214  -1.921  1.00  0.00     0.288 C 
HETATM   17  O5  UNK     1       3.126   0.092  -2.095  1.00  0.00    -0.262 OA
BRANCH  16  18
HETATM   18  O3  UNK     1       2.707   2.241  -2.821  1.00  0.00    -0.320 OA
BRANCH  18  19
HETATM   19  C16 UNK     1       3.346   1.946  -4.067  1.00  0.00     0.174 C 
HETATM   20  C17 UNK     1       3.305   3.177  -4.946  1.00  0.00     0.034 C 
ENDBRANCH  18  19
ENDBRANCH  16  18
ENDBRANCH  14  16
ENDBRANCH  13  14
ENDBRANCH   5  13
BRANCH   3  21
HETATM   21  C6  UNK     1       1.063   0.591   2.966  1.00  0.00     0.037 C 
HETATM   22  C10 UNK     1       1.899  -0.545   3.548  1.00  0.00     0.010 C 
ENDBRANCH   3  21
TORSDOF 6
