REMARK  6 active torsions:
REMARK  status: ('A' for Active; 'I' for Inactive)
REMARK    1  A    between atoms: C1_7  and  O1_4 
REMARK    2  A    between atoms: C4_10  and  O1_4 
REMARK    3  A    between atoms: C3_9  and  O2_5 
REMARK    4  A    between atoms: C2_8  and  C9_15 
REMARK    5  A    between atoms: C4_10  and  C6_12 
REMARK    6  A    between atoms: C10_16  and  C11_17 
ROOT
HETATM    1  N1  UNK     1      -3.185   1.504   1.829  1.00  0.00    -0.191 NA
HETATM    2  C9  UNK     1      -1.936  -1.508   0.707  1.00  0.00     0.036 C 
HETATM    3  C10 UNK     1      -2.979  -1.060   1.456  1.00  0.00     0.055 C 
HETATM    4  C23 UNK     1      -3.085   0.361   1.657  1.00  0.00     0.100 C 
ENDROOT
BRANCH   3   5
HETATM    5  C11 UNK     1      -3.982  -1.931   2.049  1.00  0.00    -0.015 A 
HETATM    6  C16 UNK     1      -5.134  -2.257   1.333  1.00  0.00     0.016 A 
HETATM    7  C19 UNK     1      -6.096  -3.092   1.901  1.00  0.00     0.043 A 
HETATM    8  C21 UNK     1      -5.906  -3.602   3.185  1.00  0.00     0.116 A 
HETATM    9  C20 UNK     1      -4.754  -3.277   3.901  1.00  0.00     0.043 A 
HETATM   10  F1  UNK     1      -6.829  -4.404   3.731  1.00  0.00    -0.206 F 
HETATM   11  C17 UNK     1      -3.792  -2.441   3.333  1.00  0.00     0.016 A 
ENDBRANCH   3   5
BRANCH   2  12
HETATM   12  C2  UNK     1      -0.905  -0.664   0.084  1.00  0.00    -0.015 A 
HETATM   13  C5  UNK     1       0.227  -0.386   0.840  1.00  0.00     0.052 A 
HETATM   14  C3  UNK     1       1.237   0.410   0.299  1.00  0.00     0.102 A 
HETATM   15  C1  UNK     1       1.107   0.919  -0.993  1.00  0.00     0.103 A 
HETATM   16  C7  UNK     1      -0.033   0.633  -1.744  1.00  0.00     0.059 A 
HETATM   17  C8  UNK     1      -1.043  -0.162  -1.203  1.00  0.00     0.024 A 
HETATM   18 Br1  UNK     1      -2.570  -0.512  -2.279  1.00  0.00    -0.050 Br
BRANCH  14  19
HETATM   19  O2  UNK     1       2.346   0.682   1.042  1.00  0.00    -0.353 OA
HETATM   20  C22 UNK     1       2.168   1.879   1.814  1.00  0.00     0.210 C 
ENDBRANCH  14  19
BRANCH  15  21
HETATM   21  O1  UNK     1       2.087   1.697  -1.532  1.00  0.00    -0.344 OA
BRANCH  21  22
HETATM   22  C4  UNK     1       3.056   0.896  -2.228  1.00  0.00     0.214 C 
BRANCH  22  23
HETATM   23  C6  UNK     1       4.128   1.792  -2.776  1.00  0.00    -0.034 A 
HETATM   24  C12 UNK     1       3.991   2.331  -4.050  1.00  0.00     0.011 A 
HETATM   25  C14 UNK     1       4.987   3.164  -4.558  1.00  0.00     0.024 A 
HETATM   26  C18 UNK     1       6.115   3.452  -3.790  1.00  0.00     0.034 A 
HETATM   27  C15 UNK     1       6.246   2.907  -2.512  1.00  0.00     0.024 A 
HETATM   28 Cl1  UNK     1       7.345   4.479  -4.417  1.00  0.00    -0.084 Cl
HETATM   29  C13 UNK     1       5.250   2.075  -2.004  1.00  0.00     0.011 A 
ENDBRANCH  22  23
ENDBRANCH  21  22
ENDBRANCH  15  21
ENDBRANCH   2  12
TORSDOF 6
