REMARK  6 active torsions:
REMARK  status: ('A' for Active; 'I' for Inactive)
REMARK    1  A    between atoms: C1_4  and  N1_3 
REMARK       I    between atoms: C8_11  and  N1_3 
REMARK    2  A    between atoms: C1_4  and  C2_5 
REMARK    3  A    between atoms: C1_4  and  C3_6 
REMARK    4  A    between atoms: C8_11  and  C9_12 
REMARK    5  A    between atoms: C10_13  and  C9_12 
REMARK    6  A    between atoms: C11_14  and  C12_15 
ROOT
HETATM    1  C9  UNK     1      -0.122   0.223   0.490  1.00  0.00     0.043 C 
HETATM    2  C11 UNK     1      -0.591  -0.045   1.726  1.00  0.00     0.031 C 
ENDROOT
BRANCH   1   3
HETATM    3  C10 UNK     1      -0.895  -0.091  -0.727  1.00  0.00    -0.021 A 
HETATM    4  C13 UNK     1      -1.761   0.859  -1.242  1.00  0.00     0.012 A 
HETATM    5  C15 UNK     1      -2.492   0.562  -2.392  1.00  0.00     0.001 A 
HETATM    6  C19 UNK     1      -2.347  -0.680  -3.010  1.00  0.00     0.000 A 
HETATM    7  C16 UNK     1      -1.470  -1.626  -2.477  1.00  0.00     0.001 A 
HETATM    8  C14 UNK     1      -0.739  -1.329  -1.327  1.00  0.00     0.012 A 
ENDBRANCH   1   3
BRANCH   1   9
HETATM    9  C8  UNK     1       1.252   0.842   0.422  1.00  0.00     0.252 C 
HETATM   10  O1  UNK     1       1.891   1.109   1.438  1.00  0.00    -0.268 OA
HETATM   11  N1  UNK     1       1.700   1.079  -0.864  1.00  0.00    -0.352 N 
HETATM   12  H4  UNK     1       1.125   0.854  -1.668  1.00  0.00     0.163 HD
BRANCH  11  13
HETATM   13  C1  UNK     1       2.994   1.678  -1.131  1.00  0.00     0.091 C 
BRANCH  13  14
HETATM   14  C2  UNK     1       2.812   3.054  -1.828  1.00  0.00     0.001 C 
HETATM   15  C4  UNK     1       1.890   3.971  -1.010  1.00  0.00     0.011 C 
HETATM   16  C5  UNK     1       4.142   3.779  -2.058  1.00  0.00     0.011 C 
ENDBRANCH  13  14
BRANCH  13  17
HETATM   17  C3  UNK     1       3.919   0.677  -1.879  1.00  0.00     0.001 C 
HETATM   18  C6  UNK     1       3.432   0.324  -3.287  1.00  0.00     0.011 C 
HETATM   19  C7  UNK     1       4.125  -0.608  -1.066  1.00  0.00     0.011 C 
ENDBRANCH  13  17
ENDBRANCH  11  13
ENDBRANCH   1   9
BRANCH   2  20
HETATM   20  C12 UNK     1      -1.883  -0.674   2.038  1.00  0.00    -0.013 A 
HETATM   21  C17 UNK     1      -2.014  -2.049   2.173  1.00  0.00     0.044 A 
HETATM   22 Cl1  UNK     1      -0.674  -3.128   1.987  1.00  0.00    -0.083 Cl
HETATM   23  C20 UNK     1      -3.262  -2.597   2.469  1.00  0.00     0.024 A 
HETATM   24  C22 UNK     1      -4.369  -1.764   2.627  1.00  0.00     0.002 A 
HETATM   25  C21 UNK     1      -4.228  -0.383   2.489  1.00  0.00     0.001 A 
HETATM   26  C18 UNK     1      -2.980   0.165   2.193  1.00  0.00     0.013 A 
ENDBRANCH   2  20
TORSDOF 6
