REMARK  3 active torsions:
REMARK  status: ('A' for Active; 'I' for Inactive)
REMARK    1  A    between atoms: C14_19  and  O2_2 
REMARK    2  A    between atoms: C5_10  and  N1_5 
REMARK       I    between atoms: C6_11  and  N1_5 
REMARK    3  A    between atoms: C2_7  and  C6_11 
ROOT
HETATM    1  O3  UNK     1       0.454   0.806   1.854  1.00  0.00    -0.267 OA
HETATM    2  N1  UNK     1      -0.973  -0.300   0.341  1.00  0.00    -0.323 N 
HETATM    3  C6  UNK     1       0.118   0.471   0.719  1.00  0.00     0.262 C 
HETATM    4  H3  UNK     1      -1.100  -0.507  -0.646  1.00  0.00     0.169 HD
ENDROOT
BRANCH   3   5
HETATM    5  C2  UNK     1       0.921   0.897  -0.434  1.00  0.00     0.108 A 
HETATM    6  C4  UNK     1       2.229   1.072  -0.212  1.00  0.00     0.037 A 
HETATM    7  C1  UNK     1       3.106   1.494  -1.293  1.00  0.00    -0.001 A 
HETATM    8  C3  UNK     1       2.563   1.711  -2.555  1.00  0.00     0.089 A 
HETATM    9  C7  UNK     1       4.477   1.689  -1.106  1.00  0.00     0.014 A 
HETATM   10  O1  UNK     1       1.185   1.525  -2.782  1.00  0.00    -0.274 OA
HETATM   11  C9  UNK     1       3.348   2.117  -3.632  1.00  0.00     0.038 A 
HETATM   12  C8  UNK     1       0.321   1.122  -1.768  1.00  0.00     0.304 A 
HETATM   13  O4  UNK     1      -0.877   0.963  -1.975  1.00  0.00    -0.259 OA
HETATM   14  C12 UNK     1       4.714   2.309  -3.437  1.00  0.00     0.003 A 
HETATM   15  C11 UNK     1       5.278   2.095  -2.178  1.00  0.00     0.001 A 
ENDBRANCH   3   5
BRANCH   2  16
HETATM   16  C5  UNK     1      -1.954  -0.878   1.183  1.00  0.00     0.037 A 
HETATM   17  C10 UNK     1      -2.978  -1.619   0.617  1.00  0.00     0.066 A 
HETATM   18  C14 UNK     1      -3.946  -2.187   1.445  1.00  0.00     0.070 A 
HETATM   19  C16 UNK     1      -3.875  -2.006   2.827  1.00  0.00     0.037 A 
HETATM   20  C15 UNK     1      -2.837  -1.257   3.380  1.00  0.00     0.005 A 
HETATM   21  C13 UNK     1      -1.869  -0.688   2.551  1.00  0.00     0.029 A 
BRANCH  18  22
HETATM   22  O2  UNK     1      -4.959  -2.919   0.906  1.00  0.00    -0.356 OA
HETATM   23  C17 UNK     1      -5.914  -3.471   1.811  1.00  0.00     0.210 C 
ENDBRANCH  18  22
ENDBRANCH   2  16
TORSDOF 3
