REMARK  7 active torsions:
REMARK  status: ('A' for Active; 'I' for Inactive)
REMARK    1  A    between atoms: C14_21  and  O3_3 
REMARK    2  A    between atoms: C20_27  and  O3_3 
REMARK    3  A    between atoms: C24_31  and  O6_6 
REMARK    4  A    between atoms: C25_32  and  O6_6 
REMARK    5  A    between atoms: C12_19  and  C6_13 
REMARK    6  A    between atoms: C10_17  and  C14_21 
REMARK    7  A    between atoms: C20_27  and  C24_31 
ROOT
HETATM    1  O1  UNK     1      -0.492  -2.306   2.542  1.00  0.00    -0.293 OA
HETATM    2  N1  UNK     1      -4.222  -0.585   0.185  1.00  0.00    -0.362 N 
HETATM    3  C1  UNK     1      -3.998  -2.432   3.464  1.00  0.00    -0.036 C 
HETATM    4  C2  UNK     1      -4.528  -1.353   2.498  1.00  0.00     0.067 C 
HETATM    5  C3  UNK     1      -2.525  -2.143   3.785  1.00  0.00     0.092 C 
HETATM    6  C4  UNK     1      -3.621  -1.089   1.322  1.00  0.00     0.021 C 
HETATM    7  C5  UNK     1      -2.298  -1.357   1.329  1.00  0.00     0.024 C 
HETATM    8  C6  UNK     1      -1.425  -1.064   0.110  1.00  0.00     0.104 C 
HETATM    9  C7  UNK     1      -1.678  -1.977   2.541  1.00  0.00     0.159 C 
HETATM   10  C8  UNK     1      -4.148  -3.838   2.845  1.00  0.00     0.015 C 
HETATM   11  C9  UNK     1      -4.819  -2.393   4.765  1.00  0.00     0.015 C 
HETATM   12  C10 UNK     1      -2.255  -0.702  -1.125  1.00  0.00     0.052 C 
HETATM   13  C11 UNK     1      -3.581  -0.448  -1.036  1.00  0.00     0.018 C 
HETATM   14  C13 UNK     1      -4.468  -0.027  -2.176  1.00  0.00     0.069 C 
HETATM   15  H12 UNK     1      -5.218  -0.396   0.218  1.00  0.00     0.165 HD
ENDROOT
BRANCH  12  16
HETATM   16  C14 UNK     1      -1.550  -0.700  -2.418  1.00  0.00     0.292 C 
HETATM   17  O4  UNK     1      -1.427  -1.692  -3.113  1.00  0.00    -0.259 OA
BRANCH  16  18
HETATM   18  O3  UNK     1      -1.097   0.554  -2.656  1.00  0.00    -0.316 OA
BRANCH  18  19
HETATM   19  C20 UNK     1      -0.384   0.717  -3.886  1.00  0.00     0.205 C 
BRANCH  19  20
HETATM   20  C24 UNK     1       1.090   0.457  -3.643  1.00  0.00     0.202 C 
BRANCH  20  21
HETATM   21  O6  UNK     1       1.577   1.397  -2.693  1.00  0.00    -0.349 OA
BRANCH  21  22
HETATM   22  C25 UNK     1       2.900   1.740  -2.787  1.00  0.00     0.068 A 
HETATM   23  C27 UNK     1       3.312   3.007  -2.389  1.00  0.00     0.037 A 
HETATM   24  C29 UNK     1       4.659   3.356  -2.483  1.00  0.00     0.003 A 
HETATM   25  C30 UNK     1       5.585   2.436  -2.976  1.00  0.00     0.000 A 
HETATM   26  C28 UNK     1       5.164   1.168  -3.373  1.00  0.00     0.003 A 
HETATM   27  C26 UNK     1       3.817   0.819  -3.279  1.00  0.00     0.037 A 
ENDBRANCH  21  22
ENDBRANCH  20  21
ENDBRANCH  19  20
ENDBRANCH  18  19
ENDBRANCH  16  18
ENDBRANCH  12  16
BRANCH   8  28
HETATM   28  C12 UNK     1      -0.440   0.037   0.416  1.00  0.00     0.029 A 
HETATM   29  C15 UNK     1       1.011  -0.272   0.353  1.00  0.00     0.194 A 
HETATM   30  O5  UNK     1       1.427  -1.385   0.062  1.00  0.00    -0.287 OA
HETATM   31  C17 UNK     1       1.930   0.839   0.663  1.00  0.00     0.048 A 
HETATM   32  C18 UNK     1       1.399   2.088   0.989  1.00  0.00     0.089 A 
HETATM   33  C19 UNK     1       3.314   0.649   0.631  1.00  0.00     0.018 A 
HETATM   34  O2  UNK     1       0.050   2.330   1.035  1.00  0.00    -0.321 OA
HETATM   35  C21 UNK     1       2.250   3.153   1.285  1.00  0.00     0.038 A 
HETATM   36  C16 UNK     1      -0.794   1.286   0.745  1.00  0.00     0.154 A 
HETATM   37  C23 UNK     1       3.632   2.966   1.254  1.00  0.00     0.003 A 
HETATM   38  C22 UNK     1       4.162   1.717   0.928  1.00  0.00     0.001 A 
ENDBRANCH   8  28
TORSDOF 7
