REMARK  5 active torsions:
REMARK  status: ('A' for Active; 'I' for Inactive)
REMARK    1  A    between atoms: C13_21  and  O2_4 
REMARK    2  A    between atoms: C3_11  and  N1_8 
REMARK       I    between atoms: C9_17  and  N1_8 
REMARK    3  A    between atoms: C1_9  and  C4_12 
REMARK    4  A    between atoms: C13_21  and  C2_10 
REMARK    5  A    between atoms: C6_14  and  C9_17 
ROOT
HETATM    1  S1  UNK     1       0.043   0.241   2.584  1.00  0.00    -0.082 SA
HETATM    2  C1  UNK     1      -2.135  -1.005   2.035  1.00  0.00    -0.000 A 
HETATM    3  C2  UNK     1      -1.555  -0.652   0.782  1.00  0.00     0.085 A 
HETATM    4  C3  UNK     1      -0.387   0.019   0.955  1.00  0.00     0.094 A 
HETATM    5  C5  UNK     1      -1.368  -0.580   3.098  1.00  0.00     0.065 A 
ENDROOT
BRANCH   4   6
HETATM    6  N1  UNK     1       0.503   0.547   0.015  1.00  0.00    -0.316 N 
HETATM    7  C9  UNK     1       1.683   1.222   0.295  1.00  0.00     0.262 C 
HETATM    8  O3  UNK     1       2.174   1.488   1.390  1.00  0.00    -0.267 OA
HETATM    9  H2  UNK     1       0.240   0.386  -0.953  1.00  0.00     0.169 HD
BRANCH   7  10
HETATM   10  C6  UNK     1       2.376   1.642  -0.929  1.00  0.00     0.108 A 
HETATM   11  C14 UNK     1       1.645   1.965  -2.175  1.00  0.00     0.304 A 
HETATM   12  O1  UNK     1       2.414   2.352  -3.269  1.00  0.00    -0.274 OA
HETATM   13  O5  UNK     1       0.422   1.899  -2.244  1.00  0.00    -0.259 OA
HETATM   14  C10 UNK     1       3.818   2.433  -3.199  1.00  0.00     0.089 A 
HETATM   15  C7  UNK     1       4.486   2.124  -2.018  1.00  0.00    -0.001 A 
HETATM   16  C16 UNK     1       4.502   2.830  -4.346  1.00  0.00     0.038 A 
HETATM   17  C15 UNK     1       5.880   2.216  -1.988  1.00  0.00     0.014 A 
HETATM   18  C8  UNK     1       3.710   1.717  -0.857  1.00  0.00     0.037 A 
HETATM   19  C19 UNK     1       6.579   2.612  -3.132  1.00  0.00     0.001 A 
HETATM   20  C21 UNK     1       5.891   2.919  -4.308  1.00  0.00     0.003 A 
ENDBRANCH   7  10
ENDBRANCH   4   6
BRANCH   3  21
HETATM   21  C13 UNK     1      -2.112  -0.952  -0.514  1.00  0.00     0.296 C 
HETATM   22  O4  UNK     1      -3.177  -1.563  -0.684  1.00  0.00    -0.259 OA
BRANCH  21  23
HETATM   23  O2  UNK     1      -1.350  -0.497  -1.568  1.00  0.00    -0.322 OA
HETATM   24  C22 UNK     1      -1.844  -0.762  -2.886  1.00  0.00     0.213 C 
ENDBRANCH  21  23
ENDBRANCH   3  21
BRANCH   2  25
HETATM   25  C4  UNK     1      -3.365  -1.718   2.266  1.00  0.00    -0.024 A 
HETATM   26  C11 UNK     1      -4.560  -1.015   2.394  1.00  0.00     0.015 A 
HETATM   27  C17 UNK     1      -5.751  -1.705   2.618  1.00  0.00     0.043 A 
HETATM   28  C20 UNK     1      -5.743  -3.096   2.714  1.00  0.00     0.116 A 
HETATM   29  C18 UNK     1      -4.545  -3.798   2.586  1.00  0.00     0.043 A 
HETATM   30  F1  UNK     1      -6.888  -3.759   2.929  1.00  0.00    -0.206 F 
HETATM   31  C12 UNK     1      -3.353  -3.107   2.361  1.00  0.00     0.015 A 
ENDBRANCH   2  25
TORSDOF 5
