REMARK  4 active torsions:
REMARK  status: ('A' for Active; 'I' for Inactive)
REMARK    1  A    between atoms: C5_12  and  N1_4 
REMARK    2  A    between atoms: C6_13  and  N2_5 
REMARK    3  A    between atoms: C6_13  and  N3_6 
REMARK    4  A    between atoms: C8_15  and  N3_6 
ROOT
HETATM    1  N3  UNK     1      -2.164  -0.028  -1.928  1.00  0.00    -0.333 N 
HETATM    2  H9  UNK     1      -3.051   0.348  -2.259  1.00  0.00     0.168 HD
ENDROOT
BRANCH   1   3
HETATM    3  C6  UNK     1      -1.099   0.196  -2.784  1.00  0.00     0.174 C 
HETATM    4  S1  UNK     1      -1.349   0.373  -4.433  1.00  0.00    -0.041 SA
BRANCH   3   5
HETATM    5  N2  UNK     1       0.148   0.328  -2.270  1.00  0.00    -0.355 N 
HETATM    6  C3  UNK     1       0.381   0.872  -0.942  1.00  0.00     0.145 C 
HETATM    7  C1  UNK     1       1.421   1.990  -0.985  1.00  0.00     0.144 C 
HETATM    8  N1  UNK     1       2.616   1.548  -1.719  1.00  0.00    -0.363 N 
HETATM    9  C2  UNK     1       2.377   0.984  -3.058  1.00  0.00     0.144 C 
HETATM   10  C4  UNK     1       1.329  -0.124  -2.988  1.00  0.00     0.145 C 
BRANCH   8  11
HETATM   11  C5  UNK     1       3.841   2.184  -1.492  1.00  0.00     0.125 A 
HETATM   12  N4  UNK     1       4.778   2.270  -2.495  1.00  0.00    -0.244 NA
HETATM   13  C16 UNK     1       5.945   2.895  -2.224  1.00  0.00     0.119 A 
HETATM   14  C17 UNK     1       6.257   3.457  -0.996  1.00  0.00     0.019 A 
HETATM   15  C13 UNK     1       5.310   3.370   0.019  1.00  0.00     0.005 A 
HETATM   16  C7  UNK     1       4.097   2.734  -0.222  1.00  0.00     0.050 A 
ENDBRANCH   8  11
ENDBRANCH   3   5
ENDBRANCH   1   3
BRANCH   1  17
HETATM   17  C8  UNK     1      -2.251  -0.690  -0.704  1.00  0.00     0.036 A 
HETATM   18  C10 UNK     1      -3.207  -0.307   0.232  1.00  0.00     0.067 A 
HETATM   19  C11 UNK     1      -3.276  -0.984   1.451  1.00  0.00     0.092 A 
HETATM   20  O1  UNK     1      -4.265  -0.551   2.357  1.00  0.00    -0.275 OA
HETATM   21  C9  UNK     1      -2.418  -2.037   1.769  1.00  0.00     0.004 A 
HETATM   22  C20 UNK     1      -4.425  -1.151   3.596  1.00  0.00     0.288 A 
HETATM   23  C18 UNK     1      -3.511  -2.260   3.917  1.00  0.00     0.090 A 
HETATM   24  O2  UNK     1      -5.282  -0.782   4.392  1.00  0.00    -0.260 OA
HETATM   25  C15 UNK     1      -2.562  -2.693   3.075  1.00  0.00    -0.043 A 
HETATM   26  C19 UNK     1      -1.654  -3.829   3.447  1.00  0.00     0.049 C 
HETATM   27  C14 UNK     1      -1.462  -2.408   0.813  1.00  0.00     0.017 A 
HETATM   28  C12 UNK     1      -1.380  -1.739  -0.413  1.00  0.00     0.030 A 
ENDBRANCH   1  17
TORSDOF 4
