REMARK  4 active torsions:
REMARK  status: ('A' for Active; 'I' for Inactive)
REMARK    1  A    between atoms: C4_9  and  O2_2 
REMARK    2  A    between atoms: C9_14  and  O3_3 
REMARK    3  A    between atoms: C13_18  and  O5_5 
REMARK    4  A    between atoms: C2_7  and  C5_10 
ROOT
HETATM    1  O1  UNK     1      -0.263   0.296   0.749  1.00  0.00    -0.306 OA
HETATM    2  O4  UNK     1      -2.123  -1.989  -2.066  1.00  0.00    -0.284 OA
HETATM    3  C1  UNK     1      -2.133  -1.121   0.127  1.00  0.00     0.051 A 
HETATM    4  C2  UNK     1       0.268   0.140  -0.522  1.00  0.00     0.123 A 
HETATM    5  C3  UNK     1      -1.447  -0.329   1.045  1.00  0.00     0.093 A 
HETATM    6  C4  UNK     1      -0.289  -0.603  -1.495  1.00  0.00     0.154 A 
HETATM    7  C6  UNK     1      -1.569  -1.300  -1.219  1.00  0.00     0.221 A 
HETATM    8  C7  UNK     1      -1.960  -0.145   2.329  1.00  0.00     0.075 A 
HETATM    9  C8  UNK     1      -3.337  -1.734   0.485  1.00  0.00     0.021 A 
HETATM   10  C9  UNK     1      -3.161  -0.756   2.690  1.00  0.00     0.070 A 
HETATM   11  C11 UNK     1      -3.848  -1.549   1.770  1.00  0.00     0.038 A 
ENDROOT
BRANCH   4  12
HETATM   12  C5  UNK     1       1.539   0.862  -0.705  1.00  0.00     0.003 A 
HETATM   13  C10 UNK     1       1.537   2.172  -1.186  1.00  0.00     0.051 A 
HETATM   14  C13 UNK     1       2.741   2.854  -1.360  1.00  0.00     0.069 A 
HETATM   15  C15 UNK     1       3.949   2.226  -1.054  1.00  0.00     0.037 A 
HETATM   16  C14 UNK     1       3.952   0.917  -0.574  1.00  0.00     0.004 A 
HETATM   17  C12 UNK     1       2.748   0.235  -0.399  1.00  0.00     0.014 A 
BRANCH  14  18
HETATM   18  O5  UNK     1       2.739   4.131  -1.831  1.00  0.00    -0.356 OA
HETATM   19  C18 UNK     1       1.469   4.713  -2.125  1.00  0.00     0.210 C 
ENDBRANCH  14  18
ENDBRANCH   4  12
BRANCH   6  20
HETATM   20  O2  UNK     1       0.282  -0.765  -2.739  1.00  0.00    -0.350 OA
HETATM   21  C16 UNK     1      -0.164   0.239  -3.631  1.00  0.00     0.210 C 
ENDBRANCH   6  20
BRANCH  10  22
HETATM   22  O3  UNK     1      -3.665  -0.579   3.943  1.00  0.00    -0.356 OA
HETATM   23  C17 UNK     1      -2.914   0.242   4.835  1.00  0.00     0.210 C 
ENDBRANCH  10  22
TORSDOF 4
