REMARK  5 active torsions:
REMARK  status: ('A' for Active; 'I' for Inactive)
REMARK    1  A    between atoms: C12_19  and  O3_4 
REMARK    2  A    between atoms: C21_28  and  O3_4 
REMARK    3  A    between atoms: C10_17  and  N1_6 
REMARK    4  A    between atoms: C1_8  and  C3_10 
REMARK    5  A    between atoms: C12_19  and  C5_12 
ROOT
HETATM    1  O1  UNK     1       1.859  -0.693  -3.141  1.00  0.00    -0.269 OA
HETATM    2  O2  UNK     1       3.568   0.589  -2.178  1.00  0.00    -0.286 OA
HETATM    3  O4  UNK     1       1.208   1.581   0.984  1.00  0.00    -0.287 OA
HETATM    4  N2  UNK     1      -2.491  -2.437  -2.026  1.00  0.00    -0.191 NA
HETATM    5  C1  UNK     1      -0.013  -0.048  -1.069  1.00  0.00     0.109 C 
HETATM    6  C2  UNK     1       1.414   0.455  -1.102  1.00  0.00     0.065 A 
HETATM    7  C4  UNK     1      -0.268  -1.109  -2.131  1.00  0.00     0.086 C 
HETATM    8  C6  UNK     1       2.261   0.135  -2.099  1.00  0.00     0.204 A 
HETATM    9  C7  UNK     1       1.905   1.302   0.018  1.00  0.00     0.197 A 
HETATM   10  C8  UNK     1       3.286   1.792  -0.093  1.00  0.00     0.049 A 
HETATM   11  C10 UNK     1       0.644  -1.372  -3.093  1.00  0.00     0.162 C 
HETATM   12  C11 UNK     1       4.048   1.409  -1.192  1.00  0.00     0.092 A 
HETATM   13  C16 UNK     1       3.831   2.627   0.887  1.00  0.00     0.018 A 
HETATM   14  C17 UNK     1       5.362   1.859  -1.321  1.00  0.00     0.038 A 
HETATM   15  C18 UNK     1      -1.496  -1.843  -2.073  1.00  0.00     0.100 C 
HETATM   16  C19 UNK     1       5.145   3.076   0.756  1.00  0.00     0.001 A 
HETATM   17  C20 UNK     1       5.910   2.694  -0.346  1.00  0.00     0.003 A 
ENDROOT
BRANCH   5  18
HETATM   18  C3  UNK     1      -0.976   1.092  -1.232  1.00  0.00    -0.036 A 
HETATM   19  C9  UNK     1      -0.944   1.832  -2.410  1.00  0.00     0.009 A 
HETATM   20  C14 UNK     1      -1.830   2.896  -2.582  1.00  0.00     0.001 A 
HETATM   21  C15 UNK     1      -2.743   3.213  -1.577  1.00  0.00     0.001 A 
HETATM   22  C13 UNK     1      -2.770   2.467  -0.398  1.00  0.00     0.010 A 
HETATM   23  C5  UNK     1      -1.884   1.404  -0.226  1.00  0.00    -0.027 A 
BRANCH  23  24
HETATM   24  C12 UNK     1      -1.930   0.620   1.045  1.00  0.00     0.215 C 
BRANCH  24  25
HETATM   25  O3  UNK     1      -2.841  -0.461   0.898  1.00  0.00    -0.347 OA
BRANCH  25  26
HETATM   26  C21 UNK     1      -3.029  -1.264   1.992  1.00  0.00     0.069 A 
HETATM   27  C22 UNK     1      -2.341  -0.994   3.170  1.00  0.00     0.038 A 
HETATM   28  C24 UNK     1      -2.530  -1.812   4.283  1.00  0.00     0.026 A 
HETATM   29  C26 UNK     1      -3.408  -2.895   4.212  1.00  0.00     0.034 A 
HETATM   30  C25 UNK     1      -4.095  -3.159   3.028  1.00  0.00     0.026 A 
HETATM   31 Cl1  UNK     1      -3.643  -3.903   5.586  1.00  0.00    -0.084 Cl
HETATM   32  C23 UNK     1      -3.905  -2.341   1.914  1.00  0.00     0.038 A 
ENDBRANCH  25  26
ENDBRANCH  24  25
ENDBRANCH  23  24
ENDBRANCH   5  18
BRANCH  11  33
HETATM   33  N1  UNK     1       0.490  -2.295  -4.091  1.00  0.00    -0.379 N 
HETATM   34  H10 UNK     1      -0.353  -2.850  -4.162  1.00  0.00     0.158 HD
HETATM   35  H11 UNK     1       1.236  -2.415  -4.765  1.00  0.00     0.158 HD
ENDBRANCH  11  33
TORSDOF 5
