REMARK  3 active torsions:
REMARK  status: ('A' for Active; 'I' for Inactive)
REMARK       I    between atoms: C16_22  and  N1_5 
REMARK    1  A    between atoms: N1_5  and  N2_6 
REMARK    2  A    between atoms: C12_18  and  C7_13 
REMARK    3  A    between atoms: C11_17  and  C16_22 
ROOT
HETATM    1  O1  UNK     1      -1.553  -1.175   3.286  1.00  0.00    -0.321 OA
HETATM    2  O2  UNK     1      -1.903  -0.524  -0.729  1.00  0.00    -0.286 OA
HETATM    3  C1  UNK     1      -2.889  -1.327   1.261  1.00  0.00     0.049 A 
HETATM    4  C2  UNK     1      -2.708  -1.524   2.631  1.00  0.00     0.089 A 
HETATM    5  C3  UNK     1      -5.103  -2.274   1.415  1.00  0.00    -0.061 A 
HETATM    6  C4  UNK     1      -4.087  -1.702   0.648  1.00  0.00     0.025 A 
HETATM    7  C5  UNK     1      -1.799  -0.721   0.474  1.00  0.00     0.198 A 
HETATM    8  C6  UNK     1      -3.726  -2.096   3.395  1.00  0.00     0.039 A 
HETATM    9  C7  UNK     1      -0.577  -0.364   1.227  1.00  0.00     0.056 A 
HETATM   10  C8  UNK     1      -4.923  -2.470   2.785  1.00  0.00     0.009 A 
HETATM   11  C9  UNK     1      -0.544  -0.611   2.541  1.00  0.00     0.159 A 
HETATM   12  C10 UNK     1      -6.386  -2.677   0.768  1.00  0.00     0.048 C 
ENDROOT
BRANCH   9  13
HETATM   13  C12 UNK     1       0.603   0.246   0.614  1.00  0.00     0.156 C 
HETATM   14  N2  UNK     1       0.665   0.523  -0.648  1.00  0.00    -0.183 NA
BRANCH  14  15
HETATM   15  N1  UNK     1       1.837   1.085  -1.032  1.00  0.00    -0.243 N 
HETATM   16  C16 UNK     1       2.021   1.388  -2.376  1.00  0.00     0.272 C 
HETATM   17  O3  UNK     1       1.154   1.161  -3.222  1.00  0.00    -0.266 OA
HETATM   18  H14 UNK     1       2.548   1.234  -0.323  1.00  0.00     0.192 HD
BRANCH  16  19
HETATM   19  C11 UNK     1       3.326   1.968  -2.724  1.00  0.00     0.041 A 
HETATM   20  C14 UNK     1       4.128   2.712  -1.839  1.00  0.00     0.031 A 
HETATM   21  C13 UNK     1       5.291   3.123  -2.452  1.00  0.00    -0.021 A 
HETATM   22  S1  UNK     1       5.380   2.598  -4.079  1.00  0.00    -0.106 SA
HETATM   23  C17 UNK     1       6.399   3.921  -1.883  1.00  0.00     0.056 C 
HETATM   24  C15 UNK     1       3.859   1.818  -3.968  1.00  0.00     0.067 A 
ENDBRANCH  16  19
ENDBRANCH  14  15
ENDBRANCH   9  13
TORSDOF 3
