REMARK  3 active torsions:
REMARK  status: ('A' for Active; 'I' for Inactive)
REMARK    1  A    between atoms: C5_10  and  N1_3 
REMARK    2  A    between atoms: C7_12  and  N2_4 
REMARK    3  A    between atoms: C5_10  and  C6_11 
ROOT
HETATM    1  C5  UNK     1      -1.582   1.316   0.087  1.00  0.00     0.312 C 
ENDROOT
BRANCH   1   2
HETATM    2  N1  UNK     1      -0.169   1.112  -0.227  1.00  0.00     0.095 N 
HETATM    3  C1  UNK     1       0.628   2.265   0.211  1.00  0.00     0.292 C 
HETATM    4  C3  UNK     1       2.117   2.040  -0.062  1.00  0.00     0.154 C 
HETATM    5  N2  UNK     1       2.336   1.695  -1.470  1.00  0.00    -0.362 N 
HETATM    6  C4  UNK     1       1.481   0.627  -2.002  1.00  0.00     0.154 C 
HETATM    7  C2  UNK     1       0.013   0.898  -1.668  1.00  0.00     0.292 C 
BRANCH   5   8
HETATM    8  C7  UNK     1       3.604   1.867  -2.037  1.00  0.00     0.125 A 
HETATM    9  C11 UNK     1       4.128   3.150  -2.041  1.00  0.00     0.050 A 
HETATM   10  C17 UNK     1       5.386   3.337  -2.601  1.00  0.00     0.005 A 
HETATM   11  C19 UNK     1       6.073   2.251  -3.134  1.00  0.00     0.019 A 
HETATM   12  C18 UNK     1       5.462   1.009  -3.081  1.00  0.00     0.119 A 
HETATM   13  N3  UNK     1       4.241   0.788  -2.545  1.00  0.00    -0.244 NA
ENDBRANCH   5   8
ENDBRANCH   1   2
BRANCH   1  14
HETATM   14  C6  UNK     1      -2.340   0.020   0.109  1.00  0.00    -0.011 A 
HETATM   15  C8  UNK     1      -2.452  -0.742   1.361  1.00  0.00     0.006 A 
HETATM   16  C10 UNK     1      -3.162  -1.943   1.350  1.00  0.00     0.090 A 
HETATM   17  C12 UNK     1      -1.886  -0.332   2.575  1.00  0.00     0.015 A 
HETATM   18  O1  UNK     1      -3.763  -2.424   0.169  1.00  0.00    -0.275 OA
HETATM   19  C14 UNK     1      -3.318  -2.728   2.494  1.00  0.00     0.045 A 
HETATM   20  C13 UNK     1      -3.673  -1.727  -1.025  1.00  0.00     0.288 A 
HETATM   21  O2  UNK     1      -4.192  -2.136  -2.058  1.00  0.00    -0.260 OA
HETATM   22  C9  UNK     1      -2.921  -0.461  -0.998  1.00  0.00     0.092 A 
HETATM   23  C15 UNK     1      -2.748  -2.304   3.690  1.00  0.00    -0.059 A 
HETATM   24  C16 UNK     1      -2.033  -1.108   3.731  1.00  0.00     0.007 A 
HETATM   25  C20 UNK     1      -2.901  -3.125   4.925  1.00  0.00     0.048 C 
ENDBRANCH   1  14
TORSDOF 3
