REMARK  4 active torsions:
REMARK  status: ('A' for Active; 'I' for Inactive)
REMARK    1  A    between atoms: C10_13  and  O2_2 
REMARK    2  A    between atoms: C13_16  and  O2_2 
REMARK    3  A    between atoms: C3_6  and  C5_8 
REMARK    4  A    between atoms: C13_16  and  C14_17 
ROOT
HETATM    1  O1  UNK     1      -1.038  -0.723   2.107  1.00  0.00    -0.274 OA
HETATM    2  O3  UNK     1      -2.087  -1.505   3.962  1.00  0.00    -0.259 OA
HETATM    3  C1  UNK     1      -3.261  -1.560   0.568  1.00  0.00    -0.037 A 
HETATM    4  C2  UNK     1      -2.097  -0.916  -0.074  1.00  0.00     0.005 A 
HETATM    5  C3  UNK     1      -3.246  -1.782   1.899  1.00  0.00     0.024 A 
HETATM    6  C4  UNK     1      -1.025  -0.518   0.719  1.00  0.00     0.092 A 
HETATM    7  C6  UNK     1      -1.991  -0.683  -1.455  1.00  0.00     0.017 A 
HETATM    8  C7  UNK     1      -2.100  -1.341   2.746  1.00  0.00     0.295 A 
HETATM    9  C8  UNK     1       0.113   0.098   0.193  1.00  0.00     0.075 A 
HETATM   10  C9  UNK     1      -4.421  -1.920  -0.328  1.00  0.00     0.050 C 
HETATM   11  C10 UNK     1       0.194   0.324  -1.176  1.00  0.00     0.071 A 
HETATM   12  C11 UNK     1      -0.858  -0.067  -2.000  1.00  0.00     0.038 A 
ENDROOT
BRANCH  11  13
HETATM   13  O2  UNK     1       1.294   0.921  -1.708  1.00  0.00    -0.347 OA
BRANCH  13  14
HETATM   14  C13 UNK     1       2.332   1.296  -0.803  1.00  0.00     0.214 C 
BRANCH  14  15
HETATM   15  C14 UNK     1       3.407   1.947  -1.616  1.00  0.00    -0.034 A 
HETATM   16  C15 UNK     1       4.433   1.174  -2.153  1.00  0.00     0.009 A 
HETATM   17  C17 UNK     1       5.436   1.781  -2.909  1.00  0.00     0.001 A 
HETATM   18  C19 UNK     1       5.408   3.158  -3.126  1.00  0.00     0.000 A 
HETATM   19  C18 UNK     1       4.379   3.929  -2.587  1.00  0.00     0.001 A 
HETATM   20  C16 UNK     1       3.376   3.322  -1.830  1.00  0.00     0.009 A 
ENDBRANCH  14  15
ENDBRANCH  13  14
ENDBRANCH  11  13
BRANCH   5  21
HETATM   21  C5  UNK     1      -4.336  -2.484   2.668  1.00  0.00     0.041 C 
HETATM   22  C12 UNK     1      -5.380  -1.507   3.164  1.00  0.00     0.010 C 
ENDBRANCH   5  21
TORSDOF 4
