REMARK  4 active torsions:
REMARK  status: ('A' for Active; 'I' for Inactive)
REMARK    1  A    between atoms: C5_10  and  O2_2 
REMARK    2  A    between atoms: C9_14  and  O4_4 
REMARK    3  A    between atoms: C15_20  and  O5_5 
REMARK    4  A    between atoms: C2_7  and  C4_9 
ROOT
HETATM    1  O1  UNK     1       0.281  -1.354   0.080  1.00  0.00    -0.306 OA
HETATM    2  O3  UNK     1       1.214  -2.537   3.866  1.00  0.00    -0.284 OA
HETATM    3  C1  UNK     1       0.937  -3.129   1.600  1.00  0.00     0.051 A 
HETATM    4  C2  UNK     1       0.293  -0.456   1.136  1.00  0.00     0.123 A 
HETATM    5  C3  UNK     1       0.607  -2.662   0.330  1.00  0.00     0.093 A 
HETATM    6  C5  UNK     1       0.584  -0.779   2.409  1.00  0.00     0.152 A 
HETATM    7  C6  UNK     1       0.938  -2.184   2.727  1.00  0.00     0.220 A 
HETATM    8  C7  UNK     1       1.260  -4.474   1.796  1.00  0.00     0.021 A 
HETATM    9  C8  UNK     1       0.597  -3.539  -0.755  1.00  0.00     0.074 A 
HETATM   10  C9  UNK     1       0.919  -4.883  -0.564  1.00  0.00     0.068 A 
HETATM   11  C12 UNK     1       1.249  -5.349   0.709  1.00  0.00     0.037 A 
ENDROOT
BRANCH   4  12
HETATM   12  C4  UNK     1      -0.076   0.912   0.731  1.00  0.00     0.001 A 
HETATM   13  C10 UNK     1       0.913   1.814   0.337  1.00  0.00     0.017 A 
HETATM   14  C13 UNK     1       0.564   3.109  -0.047  1.00  0.00     0.037 A 
HETATM   15  C15 UNK     1      -0.774   3.502  -0.038  1.00  0.00     0.065 A 
HETATM   16  C14 UNK     1      -1.763   2.600   0.355  1.00  0.00     0.037 A 
HETATM   17  C11 UNK     1      -1.414   1.306   0.740  1.00  0.00     0.017 A 
BRANCH  15  18
HETATM   18  O5  UNK     1      -1.115   4.765  -0.413  1.00  0.00    -0.361 OA
HETATM   19  H10 UNK     1      -0.307   5.251  -0.653  1.00  0.00     0.217 HD
ENDBRANCH  15  18
ENDBRANCH   4  12
BRANCH   6  20
HETATM   20  O2  UNK     1       0.554   0.132   3.442  1.00  0.00    -0.355 OA
HETATM   21  H8  UNK     1       0.307   1.007   3.103  1.00  0.00     0.218 HD
ENDBRANCH   6  20
BRANCH  10  22
HETATM   22  O4  UNK     1       0.910  -5.741  -1.621  1.00  0.00    -0.361 OA
HETATM   23  H9  UNK     1       1.156  -6.628  -1.308  1.00  0.00     0.217 HD
ENDBRANCH  10  22
TORSDOF 4
