REMARK  7 active torsions:
REMARK  status: ('A' for Active; 'I' for Inactive)
REMARK    1  A    between atoms: C24_31  and  S1_1 
REMARK    2  A    between atoms: C26_33  and  S1_1 
REMARK    3  A    between atoms: C14_21  and  O3_4 
REMARK    4  A    between atoms: C21_28  and  O3_4 
REMARK    5  A    between atoms: C12_19  and  C6_13 
REMARK    6  A    between atoms: C10_17  and  C14_21 
REMARK    7  A    between atoms: C21_28  and  C24_31 
ROOT
HETATM    1  O1  UNK     1      -2.916   1.313   2.150  1.00  0.00    -0.293 OA
HETATM    2  N1  UNK     1      -2.212  -2.543  -0.503  1.00  0.00    -0.362 N 
HETATM    3  C1  UNK     1      -2.711  -2.172   3.227  1.00  0.00    -0.036 C 
HETATM    4  C2  UNK     1      -2.894  -2.822   1.840  1.00  0.00     0.067 C 
HETATM    5  C3  UNK     1      -3.353  -0.777   3.218  1.00  0.00     0.092 C 
HETATM    6  C4  UNK     1      -2.509  -1.921   0.694  1.00  0.00     0.021 C 
HETATM    7  C5  UNK     1      -2.457  -0.577   0.793  1.00  0.00     0.024 C 
HETATM    8  C6  UNK     1      -2.015   0.282  -0.386  1.00  0.00     0.104 C 
HETATM    9  C7  UNK     1      -2.885   0.086   2.063  1.00  0.00     0.159 C 
HETATM   10  C8  UNK     1      -3.405  -3.043   4.289  1.00  0.00     0.015 C 
HETATM   11  C9  UNK     1      -1.215  -2.074   3.593  1.00  0.00     0.015 C 
HETATM   12  C10 UNK     1      -1.856  -0.521  -1.680  1.00  0.00     0.052 C 
HETATM   13  C11 UNK     1      -1.939  -1.872  -1.685  1.00  0.00     0.018 C 
HETATM   14  C13 UNK     1      -1.789  -2.771  -2.884  1.00  0.00     0.069 C 
HETATM   15  H12 UNK     1      -2.275  -3.554  -0.538  1.00  0.00     0.165 HD
ENDROOT
BRANCH   8  16
HETATM   16  C12 UNK     1      -0.731   0.996  -0.055  1.00  0.00     0.029 A 
HETATM   17  C15 UNK     1       0.479   0.182   0.225  1.00  0.00     0.194 A 
HETATM   18  O5  UNK     1       0.462  -1.042   0.194  1.00  0.00    -0.287 OA
HETATM   19  C17 UNK     1       1.709   0.929   0.544  1.00  0.00     0.049 A 
HETATM   20  C18 UNK     1       1.670   2.324   0.564  1.00  0.00     0.089 A 
HETATM   21  C19 UNK     1       2.901   0.255   0.823  1.00  0.00     0.025 A 
HETATM   22  O2  UNK     1       0.529   3.037   0.298  1.00  0.00    -0.321 OA
HETATM   23  C20 UNK     1       2.823   3.051   0.863  1.00  0.00     0.039 A 
HETATM   24  C16 UNK     1      -0.609   2.328   0.002  1.00  0.00     0.154 A 
HETATM   25  C23 UNK     1       4.013   2.380   1.142  1.00  0.00     0.009 A 
HETATM   26  C22 UNK     1       4.052   0.985   1.122  1.00  0.00    -0.061 A 
HETATM   27  C25 UNK     1       5.328   0.273   1.421  1.00  0.00     0.048 C 
ENDBRANCH   8  16
BRANCH  12  28
HETATM   28  C14 UNK     1      -1.625   0.266  -2.903  1.00  0.00     0.292 C 
HETATM   29  O4  UNK     1      -2.525   0.686  -3.607  1.00  0.00    -0.259 OA
BRANCH  28  30
HETATM   30  O3  UNK     1      -0.289   0.416  -3.070  1.00  0.00    -0.317 OA
BRANCH  30  31
HETATM   31  C21 UNK     1       0.097   1.166  -4.226  1.00  0.00     0.189 C 
BRANCH  31  32
HETATM   32  C24 UNK     1       1.409   1.889  -3.964  1.00  0.00     0.100 C 
BRANCH  32  33
HETATM   33  S1  UNK     1       2.745   0.719  -3.568  1.00  0.00    -0.167 SA
BRANCH  33  34
HETATM   34  C26 UNK     1       4.077   1.916  -3.333  1.00  0.00     0.069 C 
HETATM   35  C27 UNK     1       5.372   1.210  -2.978  1.00  0.00     0.016 C 
ENDBRANCH  33  34
ENDBRANCH  32  33
ENDBRANCH  31  32
ENDBRANCH  30  31
ENDBRANCH  28  30
ENDBRANCH  12  28
TORSDOF 7
