REMARK  2 active torsions:
REMARK  status: ('A' for Active; 'I' for Inactive)
REMARK    1  A    between atoms: C15_20  and  O4_4 
REMARK    2  A    between atoms: C1_6  and  C3_8 
ROOT
HETATM    1  O2  UNK     1      -3.262  -1.838  -0.094  1.00  0.00    -0.275 OA
HETATM    2  O5  UNK     1      -3.574  -1.877  -2.357  1.00  0.00    -0.260 OA
HETATM    3  C1  UNK     1      -0.940  -0.250  -0.548  1.00  0.00    -0.001 A 
HETATM    4  C2  UNK     1      -1.355  -0.615   0.822  1.00  0.00     0.009 A 
HETATM    5  C4  UNK     1      -2.497  -1.396   1.002  1.00  0.00     0.093 A 
HETATM    6  C8  UNK     1      -1.702  -0.688  -1.564  1.00  0.00     0.096 A 
HETATM    7  C9  UNK     1      -0.662  -0.213   1.974  1.00  0.00     0.018 A 
HETATM    8  C11 UNK     1      -2.950  -1.781   2.266  1.00  0.00     0.074 A 
HETATM    9  C13 UNK     1      -1.103  -0.590   3.247  1.00  0.00     0.037 A 
HETATM   10  C14 UNK     1      -2.914  -1.507  -1.392  1.00  0.00     0.289 A 
HETATM   11  C15 UNK     1      -2.246  -1.374   3.394  1.00  0.00     0.068 A 
ENDROOT
BRANCH   3  12
HETATM   12  C3  UNK     1       0.231   0.540  -0.870  1.00  0.00     0.052 A 
HETATM   13  C10 UNK     1       0.103   2.021  -0.957  1.00  0.00     0.299 A 
HETATM   14  O1  UNK     1       1.256   2.738  -1.270  1.00  0.00    -0.274 OA
HETATM   15  O3  UNK     1      -0.962   2.599  -0.763  1.00  0.00    -0.259 OA
HETATM   16  C7  UNK     1       2.492   2.106  -1.497  1.00  0.00     0.089 A 
HETATM   17  C16 UNK     1       3.587   2.911  -1.804  1.00  0.00     0.038 A 
HETATM   18  C5  UNK     1       2.600   0.724  -1.413  1.00  0.00    -0.001 A 
HETATM   19  C18 UNK     1       4.823   2.310  -2.033  1.00  0.00     0.003 A 
HETATM   20  C17 UNK     1       4.951   0.922  -1.952  1.00  0.00     0.001 A 
HETATM   21  C12 UNK     1       3.843   0.129  -1.643  1.00  0.00     0.014 A 
HETATM   22  C6  UNK     1       1.415  -0.053  -1.088  1.00  0.00     0.032 A 
ENDBRANCH   3  12
BRANCH  11  23
HETATM   23  O4  UNK     1      -2.670  -1.737   4.634  1.00  0.00    -0.361 OA
HETATM   24  H10 UNK     1      -3.475  -2.277   4.546  1.00  0.00     0.217 HD
ENDBRANCH  11  23
TORSDOF 2
