REMARK  3 active torsions:
REMARK  status: ('A' for Active; 'I' for Inactive)
REMARK    1  A    between atoms: C14_17  and  O2_2 
REMARK    2  A    between atoms: C8_11  and  O2_2 
REMARK    3  A    between atoms: C4_7  and  C6_9 
ROOT
HETATM    1  O1  UNK     1      -1.396  -0.371  -1.174  1.00  0.00    -0.274 OA
HETATM    2  O3  UNK     1      -3.527  -1.105  -0.908  1.00  0.00    -0.259 OA
HETATM    3  C1  UNK     1       0.008   0.050   0.768  1.00  0.00     0.005 A 
HETATM    4  C2  UNK     1      -1.106  -0.370   1.642  1.00  0.00    -0.037 A 
HETATM    5  C3  UNK     1      -0.175   0.033  -0.611  1.00  0.00     0.099 A 
HETATM    6  C4  UNK     1      -2.286  -0.724   1.089  1.00  0.00     0.024 A 
HETATM    7  C5  UNK     1       0.826   0.414  -1.508  1.00  0.00     0.006 A 
HETATM    8  C7  UNK     1       1.257   0.481   1.242  1.00  0.00     0.017 A 
HETATM    9  C8  UNK     1       2.057   0.832  -1.017  1.00  0.00     0.077 A 
HETATM   10  C9  UNK     1      -2.472  -0.752  -0.390  1.00  0.00     0.295 A 
HETATM   11  C10 UNK     1      -0.838  -0.390   3.127  1.00  0.00     0.050 C 
HETATM   12  C11 UNK     1       2.272   0.867   0.358  1.00  0.00     0.038 A 
HETATM   13  C12 UNK     1       0.582   0.376  -2.982  1.00  0.00     0.054 C 
ENDROOT
BRANCH   9  14
HETATM   14  O2  UNK     1       3.057   1.211  -1.860  1.00  0.00    -0.351 OA
BRANCH  14  15
HETATM   15  C14 UNK     1       3.542   2.547  -1.732  1.00  0.00     0.171 C 
HETATM   16  C15 UNK     1       4.045   3.020  -3.079  1.00  0.00     0.034 C 
ENDBRANCH  14  15
ENDBRANCH   9  14
BRANCH   6  17
HETATM   17  C6  UNK     1      -3.520  -1.110   1.865  1.00  0.00     0.041 C 
HETATM   18  C13 UNK     1      -3.528  -2.599   2.113  1.00  0.00     0.010 C 
ENDBRANCH   6  17
TORSDOF 3
