REMARK  5 active torsions:
REMARK  status: ('A' for Active; 'I' for Inactive)
REMARK    1  A    between atoms: C9_14  and  O3_3 
REMARK    2  A    between atoms: C25_30  and  O5_5 
REMARK    3  A    between atoms: C12_17  and  C4_9 
REMARK    4  A    between atoms: C12_17  and  C15_20 
REMARK    5  A    between atoms: C14_19  and  C17_22 
ROOT
HETATM    1  O1  UNK     1      -3.380  -1.420   0.994  1.00  0.00    -0.335 OA
HETATM    2  O2  UNK     1       0.241  -0.596  -2.091  1.00  0.00    -0.320 OA
HETATM    3  O4  UNK     1       1.341   2.726  -0.004  1.00  0.00    -0.286 OA
HETATM    4  C1  UNK     1      -3.811  -2.591   0.272  1.00  0.00     0.078 A 
HETATM    5  C2  UNK     1      -2.304  -0.709   0.540  1.00  0.00     0.092 A 
HETATM    6  C3  UNK     1      -1.564  -1.051  -0.597  1.00  0.00     0.033 A 
HETATM    7  C4  UNK     1      -1.963   0.416   1.296  1.00  0.00     0.014 A 
HETATM    8  C5  UNK     1      -0.474  -0.245  -0.969  1.00  0.00     0.105 A 
HETATM    9  C6  UNK     1      -2.999  -2.946  -0.948  1.00  0.00     0.012 A 
HETATM   10  C7  UNK     1      -0.139   0.880  -0.210  1.00  0.00     0.083 A 
HETATM   11  C8  UNK     1      -1.950  -2.232  -1.359  1.00  0.00     0.016 A 
HETATM   12  C9  UNK     1      -0.882   1.213   0.924  1.00  0.00     0.092 A 
HETATM   13  C10 UNK     1      -3.765  -3.756   1.268  1.00  0.00     0.051 C 
HETATM   14  C11 UNK     1      -5.264  -2.331  -0.144  1.00  0.00     0.051 C 
HETATM   15  C13 UNK     1       1.006   1.718  -0.615  1.00  0.00     0.200 A 
HETATM   16  C14 UNK     1       1.756   1.279  -1.821  1.00  0.00     0.048 A 
HETATM   17  C16 UNK     1       1.318   0.177  -2.445  1.00  0.00     0.159 A 
ENDROOT
BRANCH  16  18
HETATM   18  C17 UNK     1       2.914   1.996  -2.323  1.00  0.00    -0.020 A 
HETATM   19  C19 UNK     1       2.754   3.020  -3.258  1.00  0.00     0.015 A 
HETATM   20  C23 UNK     1       3.868   3.708  -3.740  1.00  0.00     0.037 A 
HETATM   21  C25 UNK     1       5.144   3.374  -3.287  1.00  0.00     0.065 A 
HETATM   22  C24 UNK     1       5.307   2.351  -2.353  1.00  0.00     0.037 A 
HETATM   23  C20 UNK     1       4.193   1.662  -1.871  1.00  0.00     0.015 A 
BRANCH  21  24
HETATM   24  O5  UNK     1       6.230   4.045  -3.757  1.00  0.00    -0.361 OA
HETATM   25  H24 UNK     1       5.934   4.718  -4.394  1.00  0.00     0.217 HD
ENDBRANCH  21  24
ENDBRANCH  16  18
BRANCH  12  26
HETATM   26  O3  UNK     1      -0.583   2.302   1.689  1.00  0.00    -0.359 OA
HETATM   27  H13 UNK     1       0.201   2.759   1.350  1.00  0.00     0.217 HD
ENDBRANCH  12  26
BRANCH   7  28
HETATM   28  C12 UNK     1      -2.761   0.773   2.512  1.00  0.00     0.072 C 
BRANCH  28  29
HETATM   29  C15 UNK     1      -2.229   0.132   3.767  1.00  0.00    -0.020 C 
HETATM   30  C18 UNK     1      -2.854  -0.738   4.584  1.00  0.00    -0.091 C 
HETATM   31  C21 UNK     1      -2.261  -1.342   5.825  1.00  0.00     0.042 C 
HETATM   32  C22 UNK     1      -4.265  -1.175   4.293  1.00  0.00     0.042 C 
ENDBRANCH  28  29
ENDBRANCH   7  28
TORSDOF 5
