REMARK  7 active torsions:
REMARK  status: ('A' for Active; 'I' for Inactive)
REMARK    1  A    between atoms: C2_7  and  O1_1 
REMARK    2  A    between atoms: C3_8  and  O1_1 
REMARK    3  A    between atoms: C11_16  and  O3_3 
REMARK    4  A    between atoms: C17_22  and  O3_3 
REMARK    5  A    between atoms: C1_6  and  C7_12 
REMARK    6  A    between atoms: C11_16  and  C3_8 
REMARK    7  A    between atoms: C3_8  and  C9_14 
ROOT
HETATM    1  O2  UNK     1       2.476   1.542   0.683  1.00  0.00    -0.275 OA
HETATM    2  O5  UNK     1       4.531   2.375   1.240  1.00  0.00    -0.260 OA
HETATM    3  C1  UNK     1      -0.237   0.193  -2.185  1.00  0.00    -0.024 A 
HETATM    4  C2  UNK     1      -0.587   0.217  -0.836  1.00  0.00     0.079 A 
HETATM    5  C4  UNK     1       1.968   1.082  -1.662  1.00  0.00     0.005 A 
HETATM    6  C5  UNK     1       1.030   0.622  -2.596  1.00  0.00     0.024 A 
HETATM    7  C6  UNK     1       1.590   1.095  -0.318  1.00  0.00     0.092 A 
HETATM    8  C8  UNK     1       0.330   0.670   0.107  1.00  0.00     0.075 A 
HETATM    9  C10 UNK     1       3.315   1.547  -2.019  1.00  0.00    -0.043 A 
HETATM   10  C14 UNK     1       4.135   1.967  -1.046  1.00  0.00     0.090 A 
HETATM   11  C15 UNK     1       3.751   1.545  -3.454  1.00  0.00     0.049 C 
HETATM   12  C16 UNK     1       3.752   1.986   0.376  1.00  0.00     0.288 A 
ENDROOT
BRANCH   4  13
HETATM   13  O1  UNK     1      -1.817  -0.198  -0.426  1.00  0.00    -0.335 OA
BRANCH  13  14
HETATM   14  C3  UNK     1      -1.861  -1.292   0.490  1.00  0.00     0.228 C 
BRANCH  14  15
HETATM   15  C11 UNK     1      -2.497  -0.801   1.776  1.00  0.00     0.288 C 
HETATM   16  O4  UNK     1      -2.937   0.328   1.946  1.00  0.00    -0.262 OA
BRANCH  15  17
HETATM   17  O3  UNK     1      -2.475  -1.798   2.709  1.00  0.00    -0.320 OA
BRANCH  17  18
HETATM   18  C17 UNK     1      -3.023  -1.460   3.987  1.00  0.00     0.174 C 
HETATM   19  C18 UNK     1      -2.925  -2.664   4.900  1.00  0.00     0.034 C 
ENDBRANCH  17  18
ENDBRANCH  15  17
ENDBRANCH  14  15
BRANCH  14  20
HETATM   20  C9  UNK     1      -2.675  -2.428  -0.128  1.00  0.00     0.038 C 
HETATM   21  C13 UNK     1      -4.094  -1.997  -0.478  1.00  0.00     0.008 C 
ENDBRANCH  14  20
ENDBRANCH  13  14
ENDBRANCH   4  13
BRANCH   3  22
HETATM   22  C7  UNK     1      -1.209  -0.290  -3.212  1.00  0.00     0.037 C 
HETATM   23  C12 UNK     1      -2.079   0.838  -3.760  1.00  0.00     0.010 C 
ENDBRANCH   3  22
TORSDOF 7
