REMARK  5 active torsions:
REMARK  status: ('A' for Active; 'I' for Inactive)
REMARK    1  A    between atoms: C14_21  and  O2_3 
REMARK    2  A    between atoms: C5_12  and  O2_3 
REMARK    3  A    between atoms: C19_26  and  N1_6 
REMARK       I    between atoms: C20_27  and  N1_6 
REMARK    4  A    between atoms: C11_18  and  C9_16 
REMARK    5  A    between atoms: C14_21  and  C20_27 
ROOT
HETATM    1  O4  UNK     1       0.827   1.244   0.379  1.00  0.00    -0.271 OA
HETATM    2  N1  UNK     1       0.093   0.837  -1.823  1.00  0.00    -0.304 N 
HETATM    3  C20 UNK     1      -0.014   0.881  -0.437  1.00  0.00     0.247 C 
HETATM    4  H15 UNK     1      -0.699   0.511  -2.371  1.00  0.00     0.171 HD
ENDROOT
BRANCH   3   5
HETATM    5  C14 UNK     1      -1.385   0.399   0.002  1.00  0.00     0.278 C 
BRANCH   5   6
HETATM    6  O2  UNK     1      -1.512   0.452   1.423  1.00  0.00    -0.342 OA
BRANCH   6   7
HETATM    7  C5  UNK     1      -2.334  -0.462   2.006  1.00  0.00     0.072 A 
HETATM    8  C6  UNK     1      -3.436  -0.952   1.313  1.00  0.00     0.075 A 
HETATM    9  C2  UNK     1      -4.267  -1.888   1.931  1.00  0.00     0.092 A 
HETATM   10  C1  UNK     1      -4.032  -2.355   3.225  1.00  0.00     0.004 A 
HETATM   11  O1  UNK     1      -5.367  -2.348   1.179  1.00  0.00    -0.275 OA
HETATM   12  C3  UNK     1      -4.958  -3.342   3.796  1.00  0.00    -0.043 A 
HETATM   13  C4  UNK     1      -2.916  -1.850   3.906  1.00  0.00     0.017 A 
HETATM   14  C10 UNK     1      -4.733  -3.864   5.185  1.00  0.00     0.049 C 
HETATM   15  C8  UNK     1      -5.996  -3.761   3.058  1.00  0.00     0.090 A 
HETATM   16  C12 UNK     1      -6.257  -3.278   1.692  1.00  0.00     0.288 A 
HETATM   17  O3  UNK     1      -7.218  -3.684   1.046  1.00  0.00    -0.260 OA
HETATM   18  C7  UNK     1      -2.074  -0.910   3.300  1.00  0.00     0.038 A 
ENDBRANCH   6   7
ENDBRANCH   5   6
ENDBRANCH   3   5
BRANCH   2  19
HETATM   19  C19 UNK     1       1.212   1.208  -2.573  1.00  0.00     0.173 A 
HETATM   20  S1  UNK     1       1.037   1.044  -4.260  1.00  0.00    -0.061 SA
HETATM   21  C21 UNK     1       2.639   1.630  -4.434  1.00  0.00     0.085 A 
HETATM   22  C11 UNK     1       3.170   1.901  -3.190  1.00  0.00     0.076 A 
HETATM   23  N2  UNK     1       2.341   1.656  -2.113  1.00  0.00    -0.223 NA
BRANCH  22  24
HETATM   24  C9  UNK     1       4.501   2.407  -3.013  1.00  0.00    -0.007 A 
HETATM   25  C15 UNK     1       5.501   2.080  -3.930  1.00  0.00     0.014 A 
HETATM   26  C17 UNK     1       6.794   2.572  -3.758  1.00  0.00     0.007 A 
HETATM   27  C13 UNK     1       7.089   3.393  -2.670  1.00  0.00    -0.062 A 
HETATM   28  C18 UNK     1       6.091   3.721  -1.753  1.00  0.00     0.007 A 
HETATM   29  C22 UNK     1       8.472   3.922  -2.487  1.00  0.00     0.048 C 
HETATM   30  C16 UNK     1       4.797   3.228  -1.925  1.00  0.00     0.014 A 
ENDBRANCH  22  24
ENDBRANCH   2  19
TORSDOF 5
