REMARK  4 active torsions:
REMARK  status: ('A' for Active; 'I' for Inactive)
REMARK    1  A    between atoms: C5_10  and  O2_2 
REMARK    2  A    between atoms: C9_14  and  O3_3 
REMARK    3  A    between atoms: C15_20  and  O5_5 
REMARK    4  A    between atoms: C3_8  and  C4_9 
ROOT
HETATM    1  O1  UNK     1      -0.533   0.470   0.532  1.00  0.00    -0.306 OA
HETATM    2  O4  UNK     1      -2.287  -2.330  -1.854  1.00  0.00    -0.284 OA
HETATM    3  C1  UNK     1      -2.207  -1.265   0.249  1.00  0.00     0.051 A 
HETATM    4  C2  UNK     1      -1.565  -0.294   1.014  1.00  0.00     0.093 A 
HETATM    5  C3  UNK     1      -0.119   0.273  -0.776  1.00  0.00     0.123 A 
HETATM    6  C5  UNK     1      -0.648  -0.637  -1.615  1.00  0.00     0.152 A 
HETATM    7  C6  UNK     1      -1.764  -1.487  -1.136  1.00  0.00     0.220 A 
HETATM    8  C7  UNK     1      -1.964  -0.066   2.331  1.00  0.00     0.075 A 
HETATM    9  C8  UNK     1      -3.253  -2.014   0.794  1.00  0.00     0.021 A 
HETATM   10  C9  UNK     1      -3.008  -0.812   2.878  1.00  0.00     0.070 A 
HETATM   11  C10 UNK     1      -3.651  -1.784   2.111  1.00  0.00     0.038 A 
ENDROOT
BRANCH   5  12
HETATM   12  C4  UNK     1       0.995   1.156  -1.165  1.00  0.00     0.001 A 
HETATM   13  C11 UNK     1       0.732   2.398  -1.744  1.00  0.00     0.017 A 
HETATM   14  C13 UNK     1       1.787   3.233  -2.113  1.00  0.00     0.037 A 
HETATM   15  C15 UNK     1       3.104   2.827  -1.903  1.00  0.00     0.068 A 
HETATM   16  C14 UNK     1       3.368   1.585  -1.324  1.00  0.00     0.037 A 
HETATM   17  C12 UNK     1       2.313   0.750  -0.956  1.00  0.00     0.017 A 
BRANCH  15  18
HETATM   18  O5  UNK     1       4.133   3.641  -2.263  1.00  0.00    -0.356 OA
HETATM   19  C17 UNK     1       5.456   3.164  -2.020  1.00  0.00     0.210 C 
ENDBRANCH  15  18
ENDBRANCH   5  12
BRANCH   6  20
HETATM   20  O2  UNK     1      -0.191  -0.830  -2.901  1.00  0.00    -0.355 OA
HETATM   21  H8  UNK     1       0.538  -0.217  -3.087  1.00  0.00     0.218 HD
ENDBRANCH   6  20
BRANCH  10  22
HETATM   22  O3  UNK     1      -3.401  -0.592   4.163  1.00  0.00    -0.356 OA
HETATM   23  C16 UNK     1      -2.702   0.416   4.892  1.00  0.00     0.210 C 
ENDBRANCH  10  22
TORSDOF 4
