REMARK  6 active torsions:
REMARK  status: ('A' for Active; 'I' for Inactive)
REMARK    1  A    between atoms: C11_17  and  N1_4 
REMARK    2  A    between atoms: C13_19  and  N2_5 
REMARK    3  A    between atoms: C1_7  and  N3_6 
REMARK       I    between atoms: C12_18  and  N3_6 
REMARK    4  A    between atoms: C11_17  and  C12_18 
REMARK    5  A    between atoms: C13_19  and  C14_20 
REMARK    6  A    between atoms: C19_25  and  C23_29 
ROOT
HETATM    1  N1  UNK     1      -0.484  -1.180   2.115  1.00  0.00     0.100 N 
HETATM    2  N2  UNK     1       1.392  -0.376   0.067  1.00  0.00     0.096 N 
HETATM    3  C7  UNK     1      -0.940  -0.783   0.777  1.00  0.00     0.303 C 
HETATM    4  C8  UNK     1       0.767  -0.491   2.455  1.00  0.00     0.303 C 
HETATM    5  C9  UNK     1       0.141  -1.064  -0.273  1.00  0.00     0.303 C 
HETATM    6  C10 UNK     1       1.848  -0.772   1.406  1.00  0.00     0.303 C 
ENDROOT
BRANCH   2   7
HETATM    7  C13 UNK     1       2.423  -0.648  -0.933  1.00  0.00     0.312 C 
BRANCH   7   8
HETATM    8  C14 UNK     1       2.261   0.196  -2.149  1.00  0.00    -0.011 A 
HETATM    9  C15 UNK     1       2.924   1.505  -2.227  1.00  0.00     0.007 A 
HETATM   10  C17 UNK     1       2.753   2.274  -3.379  1.00  0.00     0.090 A 
HETATM   11  C18 UNK     1       3.724   2.035  -1.205  1.00  0.00     0.022 A 
HETATM   12  O2  UNK     1       1.965   1.813  -4.452  1.00  0.00    -0.275 OA
HETATM   13  C21 UNK     1       3.347   3.527  -3.535  1.00  0.00     0.039 A 
HETATM   14  C20 UNK     1       1.328   0.582  -4.408  1.00  0.00     0.288 A 
HETATM   15  C16 UNK     1       1.517  -0.217  -3.185  1.00  0.00     0.092 A 
HETATM   16  O3  UNK     1       0.638   0.172  -5.334  1.00  0.00    -0.260 OA
HETATM   17  C22 UNK     1       4.138   4.035  -2.509  1.00  0.00     0.010 A 
HETATM   18  C19 UNK     1       4.326   3.290  -1.346  1.00  0.00    -0.058 A 
BRANCH  18  19
HETATM   19  C23 UNK     1       5.174   3.834  -0.245  1.00  0.00     0.034 C 
HETATM   20  C24 UNK     1       4.367   4.655   0.757  1.00  0.00     0.010 C 
ENDBRANCH  18  19
ENDBRANCH   7   8
ENDBRANCH   2   7
BRANCH   1  21
HETATM   21  C11 UNK     1      -1.514  -0.911   3.116  1.00  0.00     0.374 C 
BRANCH  21  22
HETATM   22  C12 UNK     1      -2.541  -2.024   3.070  1.00  0.00     0.246 C 
HETATM   23  N3  UNK     1      -3.809  -1.546   2.772  1.00  0.00    -0.355 N 
HETATM   24  H20 UNK     1      -3.919  -0.564   2.538  1.00  0.00     0.162 HD
HETATM   25  O1  UNK     1      -2.265  -3.200   3.297  1.00  0.00    -0.272 OA
BRANCH  23  26
HETATM   26  C1  UNK     1      -4.977  -2.394   2.693  1.00  0.00     0.084 C 
HETATM   27  C2  UNK     1      -5.148  -2.968   1.283  1.00  0.00     0.025 C 
HETATM   28  C4  UNK     1      -5.594  -1.912   0.271  1.00  0.00     0.002 C 
HETATM   29  C6  UNK     1      -6.853  -1.185   0.735  1.00  0.00     0.000 C 
HETATM   30  C5  UNK     1      -6.679  -0.588   2.128  1.00  0.00     0.002 C 
HETATM   31  C3  UNK     1      -6.235  -1.641   3.142  1.00  0.00     0.025 C 
ENDBRANCH  23  26
ENDBRANCH  21  22
ENDBRANCH   1  21
TORSDOF 6
