REMARK  6 active torsions:
REMARK  status: ('A' for Active; 'I' for Inactive)
REMARK    1  A    between atoms: C11_17  and  O3_3 
REMARK       I    between atoms: C12_18  and  N1_6 
REMARK    2  A    between atoms: C15_21  and  N1_6 
REMARK    3  A    between atoms: C1_7  and  C3_9 
REMARK    4  A    between atoms: C3_9  and  C6_12 
REMARK    5  A    between atoms: C12_18  and  C6_12 
REMARK    6  A    between atoms: C15_21  and  C16_22 
ROOT
HETATM    1  O1  UNK     1       0.784  -1.072  -0.906  1.00  0.00    -0.274 OA
HETATM    2  O2  UNK     1      -0.794  -2.612  -0.365  1.00  0.00    -0.259 OA
HETATM    3  C1  UNK     1      -1.570  -0.652  -1.475  1.00  0.00     0.025 A 
HETATM    4  C2  UNK     1      -1.261   0.553  -1.998  1.00  0.00    -0.037 A 
HETATM    5  C4  UNK     1       0.150   0.991  -2.029  1.00  0.00     0.005 A 
HETATM    6  C5  UNK     1       1.124   0.162  -1.479  1.00  0.00     0.099 A 
HETATM    7  C7  UNK     1       2.480   0.501  -1.467  1.00  0.00     0.006 A 
HETATM    8  C8  UNK     1      -0.523  -1.530  -0.876  1.00  0.00     0.295 A 
HETATM    9  C9  UNK     1       0.584   2.202  -2.592  1.00  0.00     0.017 A 
HETATM   10  C10 UNK     1      -2.285   1.512  -2.553  1.00  0.00     0.050 C 
HETATM   11  C11 UNK     1       2.886   1.707  -2.025  1.00  0.00     0.074 A 
HETATM   12  C13 UNK     1       1.938   2.557  -2.589  1.00  0.00     0.038 A 
HETATM   13  C14 UNK     1       3.488  -0.421  -0.862  1.00  0.00     0.054 C 
ENDROOT
BRANCH   3  14
HETATM   14  C3  UNK     1      -2.955  -1.247  -1.439  1.00  0.00     0.055 C 
BRANCH  14  15
HETATM   15  C6  UNK     1      -3.713  -0.874  -0.173  1.00  0.00     0.107 C 
BRANCH  15  16
HETATM   16  C12 UNK     1      -3.049  -1.355   1.108  1.00  0.00     0.218 C 
HETATM   17  O4  UNK     1      -3.289  -2.442   1.626  1.00  0.00    -0.274 OA
HETATM   18  N1  UNK     1      -2.164  -0.411   1.609  1.00  0.00    -0.355 N 
HETATM   19  H13 UNK     1      -2.086   0.489   1.144  1.00  0.00     0.162 HD
BRANCH  18  20
HETATM   20  C15 UNK     1      -1.412  -0.615   2.826  1.00  0.00     0.187 C 
BRANCH  20  21
HETATM   21  C16 UNK     1      -0.127   0.151   2.756  1.00  0.00     0.070 A 
HETATM   22  O5  UNK     1      -0.261   1.484   2.621  1.00  0.00    -0.325 OA
HETATM   23  C19 UNK     1       1.006   1.974   2.579  1.00  0.00     0.142 A 
HETATM   24  C18 UNK     1       1.923   0.954   2.686  1.00  0.00     0.027 A 
HETATM   25  C17 UNK     1       1.171  -0.239   2.801  1.00  0.00     0.036 A 
ENDBRANCH  20  21
ENDBRANCH  18  20
ENDBRANCH  15  16
ENDBRANCH  14  15
ENDBRANCH   3  14
BRANCH  11  26
HETATM   26  O3  UNK     1       4.198   2.072  -2.031  1.00  0.00    -0.360 OA
HETATM   27  H16 UNK     1       4.284   2.940  -2.461  1.00  0.00     0.217 HD
ENDBRANCH  11  26
TORSDOF 6
