REMARK  8 active torsions:
REMARK  status: ('A' for Active; 'I' for Inactive)
REMARK    1  A    between atoms: C1_9  and  O1_2 
REMARK       I    between atoms: C4_12  and  N1_6 
REMARK    2  A    between atoms: N1_6  and  N2_7 
REMARK    3  A    between atoms: C23_31  and  N2_7 
REMARK    4  A    between atoms: C16_24  and  N3_8 
REMARK    5  A    between atoms: C23_31  and  N3_8 
REMARK    6  A    between atoms: C1_9  and  C2_10 
REMARK    7  A    between atoms: C1_9  and  C3_11 
REMARK    8  A    between atoms: C1_9  and  C4_12 
ROOT
HETATM    1  O2  UNK     1       0.510   2.676  -3.387  1.00  0.00    -0.268 OA
HETATM    2  N1  UNK     1       0.644   0.737  -2.140  1.00  0.00    -0.265 N 
HETATM    3  C4  UNK     1       1.058   2.009  -2.509  1.00  0.00     0.280 C 
HETATM    4  H6  UNK     1       1.215   0.115  -1.582  1.00  0.00     0.190 HD
ENDROOT
BRANCH   2   5
HETATM    5  N2  UNK     1      -0.437   0.180  -2.782  1.00  0.00    -0.273 N 
HETATM    6  H16 UNK     1      -0.574   0.443  -3.753  1.00  0.00     0.189 HD
BRANCH   5   7
HETATM    7  C23 UNK     1      -1.305  -0.693  -2.139  1.00  0.00     0.191 C 
HETATM    8  S1  UNK     1      -2.589  -1.296  -3.036  1.00  0.00    -0.039 SA
BRANCH   7   9
HETATM    9  N3  UNK     1      -0.960  -0.988  -0.809  1.00  0.00    -0.332 N 
HETATM   10  H17 UNK     1       0.017  -0.824  -0.587  1.00  0.00     0.168 HD
BRANCH   9  11
HETATM   11  C16 UNK     1      -1.704  -1.382   0.303  1.00  0.00     0.037 A 
HETATM   12  C17 UNK     1      -3.089  -1.476   0.220  1.00  0.00     0.067 A 
HETATM   13  C10 UNK     1      -3.813  -1.874   1.345  1.00  0.00     0.092 A 
HETATM   14  O3  UNK     1      -5.213  -1.951   1.199  1.00  0.00    -0.275 OA
HETATM   15  C9  UNK     1      -3.196  -2.182   2.559  1.00  0.00     0.004 A 
HETATM   16  C25 UNK     1      -6.031  -2.335   2.250  1.00  0.00     0.288 A 
HETATM   17  C22 UNK     1      -5.365  -2.657   3.524  1.00  0.00     0.090 A 
HETATM   18  O4  UNK     1      -7.250  -2.406   2.134  1.00  0.00    -0.260 OA
HETATM   19  C15 UNK     1      -4.037  -2.592   3.691  1.00  0.00    -0.043 A 
HETATM   20  C24 UNK     1      -3.404  -2.930   5.010  1.00  0.00     0.049 C 
HETATM   21  C20 UNK     1      -1.800  -2.081   2.622  1.00  0.00     0.017 A 
HETATM   22  C21 UNK     1      -1.060  -1.684   1.502  1.00  0.00     0.030 A 
ENDBRANCH   9  11
ENDBRANCH   7   9
ENDBRANCH   5   7
ENDBRANCH   2   5
BRANCH   3  23
HETATM   23  C1  UNK     1       2.291   2.506  -1.728  1.00  0.00     0.195 C 
BRANCH  23  24
HETATM   24  O1  UNK     1       2.065   3.928  -1.787  1.00  0.00    -0.371 OA
HETATM   25  H5  UNK     1       2.388   4.254  -2.644  1.00  0.00     0.212 HD
ENDBRANCH  23  24
BRANCH  23  26
HETATM   26  C2  UNK     1       3.625   2.146  -2.392  1.00  0.00    -0.010 A 
HETATM   27  C5  UNK     1       3.611   1.307  -3.481  1.00  0.00     0.011 A 
HETATM   28  C11 UNK     1       4.824   0.979  -4.085  1.00  0.00     0.001 A 
HETATM   29  C18 UNK     1       6.017   1.500  -3.582  1.00  0.00     0.000 A 
HETATM   30  C13 UNK     1       5.995   2.348  -2.475  1.00  0.00     0.001 A 
HETATM   31  C7  UNK     1       4.781   2.676  -1.871  1.00  0.00     0.011 A 
ENDBRANCH  23  26
BRANCH  23  32
HETATM   32  C3  UNK     1       2.280   2.057  -0.261  1.00  0.00    -0.010 A 
HETATM   33  C6  UNK     1       3.019   0.953   0.092  1.00  0.00     0.011 A 
HETATM   34  C12 UNK     1       3.009   0.545   1.425  1.00  0.00     0.001 A 
HETATM   35  C19 UNK     1       2.262   1.253   2.366  1.00  0.00     0.000 A 
HETATM   36  C14 UNK     1       1.524   2.369   1.973  1.00  0.00     0.001 A 
HETATM   37  C8  UNK     1       1.533   2.778   0.639  1.00  0.00     0.011 A 
ENDBRANCH  23  32
ENDBRANCH   3  23
TORSDOF 8
