REMARK  4 active torsions:
REMARK  status: ('A' for Active; 'I' for Inactive)
REMARK    1  A    between atoms: C7_12  and  O2_2 
REMARK    2  A    between atoms: C11_16  and  O4_4 
REMARK    3  A    between atoms: C12_17  and  O5_5 
REMARK    4  A    between atoms: C1_6  and  C3_8 
ROOT
HETATM    1  O1  UNK     1      -0.146   0.456  -1.198  1.00  0.00    -0.340 OA
HETATM    2  O3  UNK     1       1.160   3.380   1.366  1.00  0.00    -0.292 OA
HETATM    3  C1  UNK     1      -0.513   0.432   0.190  1.00  0.00     0.172 C 
HETATM    4  C2  UNK     1      -0.584   1.847   0.763  1.00  0.00     0.121 C 
HETATM    5  C4  UNK     1       0.760   2.509   0.603  1.00  0.00     0.165 C 
HETATM    6  C5  UNK     1       1.546   2.100  -0.579  1.00  0.00     0.043 A 
HETATM    7  C6  UNK     1       1.037   1.110  -1.426  1.00  0.00     0.086 A 
HETATM    8  C9  UNK     1       2.762   2.722  -0.872  1.00  0.00     0.021 A 
HETATM    9  C10 UNK     1       1.731   0.767  -2.587  1.00  0.00     0.074 A 
HETATM   10  C12 UNK     1       2.944   1.389  -2.883  1.00  0.00     0.070 A 
HETATM   11  C14 UNK     1       3.461   2.361  -2.025  1.00  0.00     0.038 A 
ENDROOT
BRANCH   3  12
HETATM   12  C3  UNK     1      -1.845  -0.276   0.320  1.00  0.00     0.008 A 
HETATM   13  C7  UNK     1      -2.139  -1.045   1.447  1.00  0.00     0.110 A 
HETATM   14  C11 UNK     1      -3.371  -1.691   1.551  1.00  0.00     0.102 A 
HETATM   15  C15 UNK     1      -4.311  -1.567   0.527  1.00  0.00     0.039 A 
HETATM   16  C13 UNK     1      -4.019  -0.799  -0.599  1.00  0.00     0.003 A 
HETATM   17  C8  UNK     1      -2.786  -0.153  -0.703  1.00  0.00     0.013 A 
BRANCH  13  18
HETATM   18  O2  UNK     1      -1.223  -1.168   2.450  1.00  0.00    -0.352 OA
HETATM   19  C16 UNK     1      -1.615  -0.711   3.743  1.00  0.00     0.210 C 
ENDBRANCH  13  18
BRANCH  14  20
HETATM   20  O4  UNK     1      -3.669  -2.445   2.645  1.00  0.00    -0.353 OA
HETATM   21  C17 UNK     1      -3.323  -3.828   2.593  1.00  0.00     0.210 C 
ENDBRANCH  14  20
ENDBRANCH   3  12
BRANCH  10  22
HETATM   22  O5  UNK     1       3.627   1.047  -4.010  1.00  0.00    -0.356 OA
HETATM   23  C18 UNK     1       4.861   1.720  -4.251  1.00  0.00     0.210 C 
ENDBRANCH  10  22
TORSDOF 4
