REMARK  4 active torsions:
REMARK  status: ('A' for Active; 'I' for Inactive)
REMARK    1  A    between atoms: C6_9  and  N1_3 
REMARK    2  A    between atoms: C1_4  and  C2_5 
REMARK    3  A    between atoms: C1_4  and  C3_6 
REMARK    4  A    between atoms: C4_7  and  C5_8 
ROOT
HETATM    1  C1  UNK     1      -0.887   0.046   0.333  1.00  0.00    -0.015 C 
HETATM    2  C4  UNK     1      -0.008   0.991   0.788  1.00  0.00     0.027 C 
ENDROOT
BRANCH   1   3
HETATM    3  C2  UNK     1      -0.752  -0.299  -1.124  1.00  0.00    -0.025 A 
HETATM    4  C7  UNK     1      -1.470   0.435  -2.034  1.00  0.00     0.012 A 
HETATM    5  C13 UNK     1      -1.344   0.116  -3.386  1.00  0.00     0.001 A 
HETATM    6  C19 UNK     1      -0.505  -0.926  -3.781  1.00  0.00     0.000 A 
HETATM    7  C15 UNK     1       0.209  -1.648  -2.825  1.00  0.00     0.001 A 
HETATM    8  C9  UNK     1       0.083  -1.329  -1.473  1.00  0.00     0.012 A 
ENDBRANCH   1   3
BRANCH   1   9
HETATM    9  C3  UNK     1      -1.887  -0.560   1.198  1.00  0.00    -0.025 A 
HETATM   10  C10 UNK     1      -3.143   0.032   1.333  1.00  0.00     0.012 A 
HETATM   11  C16 UNK     1      -4.102  -0.549   2.163  1.00  0.00     0.001 A 
HETATM   12  C20 UNK     1      -3.805  -1.721   2.858  1.00  0.00     0.000 A 
HETATM   13  C14 UNK     1      -2.549  -2.313   2.723  1.00  0.00     0.001 A 
HETATM   14  C8  UNK     1      -1.590  -1.732   1.893  1.00  0.00     0.012 A 
ENDBRANCH   1   9
BRANCH   2  15
HETATM   15  C5  UNK     1       1.031   1.652  -0.016  1.00  0.00    -0.002 A 
HETATM   16  C11 UNK     1       0.694   2.835  -0.662  1.00  0.00     0.014 A 
HETATM   17  C17 UNK     1       1.651   3.494  -1.433  1.00  0.00     0.001 A 
HETATM   18  C18 UNK     1       2.936   2.964  -1.553  1.00  0.00     0.002 A 
HETATM   19  C12 UNK     1       3.264   1.776  -0.900  1.00  0.00     0.037 A 
HETATM   20  C6  UNK     1       2.307   1.117  -0.129  1.00  0.00     0.113 A 
BRANCH  20  21
HETATM   21  N1  UNK     1       2.674  -0.094   0.524  1.00  0.00    -0.115 N 
HETATM   22  O1  UNK     1       3.842  -0.521   0.380  1.00  0.00    -0.532 OA
HETATM   23  O2  UNK     1       1.816  -0.686   1.216  1.00  0.00    -0.532 OA
ENDBRANCH  20  21
ENDBRANCH   2  15
TORSDOF 4
