REMARK  6 active torsions:
REMARK  status: ('A' for Active; 'I' for Inactive)
REMARK    1  A    between atoms: C2_9  and  O1_2 
REMARK    2  A    between atoms: C5_12  and  O1_2 
REMARK       I    between atoms: C20_27  and  N1_6 
REMARK    3  A    between atoms: N1_6  and  N2_7 
REMARK    4  A    between atoms: C1_8  and  C2_9 
REMARK    5  A    between atoms: C10_17  and  C20_27 
REMARK    6  A    between atoms: C14_21  and  C21_28 
ROOT
HETATM    1  O4  UNK     1       1.685   0.721   1.568  1.00  0.00    -0.266 OA
HETATM    2  N1  UNK     1       0.437   0.263  -0.328  1.00  0.00    -0.243 N 
HETATM    3  C20 UNK     1       1.547   0.735   0.347  1.00  0.00     0.271 C 
HETATM    4  H19 UNK     1       0.312   0.332  -1.332  1.00  0.00     0.192 HD
ENDROOT
BRANCH   2   5
HETATM    5  N2  UNK     1      -0.585  -0.257   0.393  1.00  0.00    -0.183 NA
HETATM    6  C21 UNK     1      -1.592  -0.641  -0.323  1.00  0.00     0.156 C 
BRANCH   6   7
HETATM    7  C14 UNK     1      -2.796  -1.229   0.266  1.00  0.00     0.056 A 
HETATM    8  C11 UNK     1      -2.977  -1.440   1.719  1.00  0.00     0.198 A 
HETATM    9  O3  UNK     1      -2.119  -1.130   2.534  1.00  0.00    -0.286 OA
HETATM   10  C6  UNK     1      -4.256  -2.050   2.128  1.00  0.00     0.050 A 
HETATM   11  C15 UNK     1      -4.529  -2.295   3.476  1.00  0.00     0.042 A 
HETATM   12  C9  UNK     1      -5.194  -2.380   1.148  1.00  0.00     0.089 A 
HETATM   13  C18 UNK     1      -5.747  -2.872   3.837  1.00  0.00     0.035 A 
HETATM   14 Cl1  UNK     1      -6.092  -3.180   5.496  1.00  0.00    -0.084 Cl
HETATM   15  C19 UNK     1      -6.686  -3.203   2.859  1.00  0.00     0.026 A 
HETATM   16  C16 UNK     1      -6.411  -2.957   1.513  1.00  0.00     0.040 A 
HETATM   17  O2  UNK     1      -4.980  -2.161  -0.190  1.00  0.00    -0.321 OA
HETATM   18  C17 UNK     1      -3.782  -1.595  -0.559  1.00  0.00     0.159 A 
ENDBRANCH   6   7
ENDBRANCH   2   5
BRANCH   3  19
HETATM   19  C10 UNK     1       2.623   1.312  -0.501  1.00  0.00     0.033 A 
HETATM   20  C12 UNK     1       3.454   2.270   0.040  1.00  0.00     0.020 A 
HETATM   21  C7  UNK     1       4.464   2.811  -0.755  1.00  0.00     0.038 A 
HETATM   22  C5  UNK     1       4.620   2.382  -2.073  1.00  0.00     0.068 A 
HETATM   23  C8  UNK     1       3.766   1.411  -2.596  1.00  0.00     0.038 A 
HETATM   24  C13 UNK     1       2.755   0.870  -1.801  1.00  0.00     0.020 A 
BRANCH  22  25
HETATM   25  O1  UNK     1       5.607   2.909  -2.849  1.00  0.00    -0.351 OA
BRANCH  25  26
HETATM   26  C2  UNK     1       5.362   2.979  -4.252  1.00  0.00     0.179 C 
BRANCH  26  27
HETATM   27  C1  UNK     1       6.125   4.161  -4.857  1.00  0.00     0.002 C 
HETATM   28  C3  UNK     1       7.635   4.010  -4.658  1.00  0.00     0.011 C 
HETATM   29  C4  UNK     1       5.797   4.304  -6.341  1.00  0.00     0.011 C 
ENDBRANCH  26  27
ENDBRANCH  25  26
ENDBRANCH  22  25
ENDBRANCH   3  19
TORSDOF 6
