REMARK  6 active torsions:
REMARK  status: ('A' for Active; 'I' for Inactive)
REMARK    1  A    between atoms: C11_15  and  O1_1 
REMARK    2  A    between atoms: C5_9  and  O2_2 
REMARK    3  A    between atoms: C15_19  and  O4_4 
REMARK    4  A    between atoms: C1_5  and  C6_10 
REMARK    5  A    between atoms: C10_14  and  C4_8 
REMARK    6  A    between atoms: C12_16  and  C6_10 
ROOT
HETATM    1  C10 UNK     1       0.775  -1.248  -1.650  1.00  0.00     0.015 C 
HETATM    2  C12 UNK     1      -0.425  -1.454  -1.062  1.00  0.00     0.056 C 
ENDROOT
BRANCH   2   3
HETATM    3  C6  UNK     1      -1.200  -0.308  -0.511  1.00  0.00     0.184 C 
HETATM    4  O3  UNK     1      -1.130   0.823  -0.979  1.00  0.00    -0.287 OA
BRANCH   3   5
HETATM    5  C1  UNK     1      -2.111  -0.577   0.628  1.00  0.00     0.048 A 
HETATM    6  C3  UNK     1      -1.794  -1.598   1.524  1.00  0.00     0.025 A 
HETATM    7  C2  UNK     1      -2.638  -1.866   2.602  1.00  0.00    -0.061 A 
HETATM    8  C14 UNK     1      -2.300  -2.959   3.559  1.00  0.00     0.048 C 
HETATM    9  C7  UNK     1      -3.799  -1.114   2.783  1.00  0.00     0.009 A 
HETATM   10  C8  UNK     1      -4.115  -0.093   1.887  1.00  0.00     0.038 A 
HETATM   11  C5  UNK     1      -3.271   0.176   0.810  1.00  0.00     0.079 A 
BRANCH  11  12
HETATM   12  O2  UNK     1      -3.598   1.178  -0.054  1.00  0.00    -0.360 OA
HETATM   13  H12 UNK     1      -4.433   1.585   0.233  1.00  0.00     0.217 HD
ENDBRANCH  11  12
ENDBRANCH   3   5
ENDBRANCH   2   3
BRANCH   1  14
HETATM   14  C4  UNK     1       1.419   0.047  -1.808  1.00  0.00    -0.033 A 
HETATM   15  C13 UNK     1       1.721   0.525  -3.083  1.00  0.00     0.014 A 
HETATM   16  C16 UNK     1       2.339   1.767  -3.234  1.00  0.00     0.040 A 
HETATM   17  C15 UNK     1       2.654   2.530  -2.110  1.00  0.00     0.099 A 
HETATM   18  C11 UNK     1       2.352   2.052  -0.835  1.00  0.00     0.102 A 
HETATM   19  C9  UNK     1       1.734   0.810  -0.684  1.00  0.00     0.051 A 
BRANCH  17  20
HETATM   20  O4  UNK     1       3.257   3.741  -2.271  1.00  0.00    -0.358 OA
HETATM   21  H13 UNK     1       3.388   3.906  -3.221  1.00  0.00     0.217 HD
ENDBRANCH  17  20
BRANCH  18  22
HETATM   22  O1  UNK     1       2.655   2.789   0.270  1.00  0.00    -0.353 OA
HETATM   23  C17 UNK     1       2.313   2.228   1.536  1.00  0.00     0.210 C 
ENDBRANCH  18  22
ENDBRANCH   1  14
TORSDOF 6
