REMARK  2 active torsions:
REMARK  status: ('A' for Active; 'I' for Inactive)
REMARK    1  A    between atoms: C13_17  and  O3_4 
REMARK    2  A    between atoms: C3_7  and  C5_9 
ROOT
HETATM    1  O1  UNK     1      -2.019  -0.671  -1.089  1.00  0.00    -0.274 OA
HETATM    2  O2  UNK     1      -0.711   0.130  -2.768  1.00  0.00    -0.259 OA
HETATM    3  C1  UNK     1       0.011   0.062   0.752  1.00  0.00    -0.032 A 
HETATM    4  C2  UNK     1      -1.240  -0.574   1.217  1.00  0.00     0.005 A 
HETATM    5  C3  UNK     1       0.178   0.292  -0.569  1.00  0.00     0.057 A 
HETATM    6  C4  UNK     1      -2.211  -0.918   0.280  1.00  0.00     0.092 A 
HETATM    7  C6  UNK     1      -0.864  -0.079  -1.568  1.00  0.00     0.300 A 
HETATM    8  C7  UNK     1       1.035   0.421   1.803  1.00  0.00     0.050 C 
HETATM    9  C8  UNK     1      -1.519  -0.860   2.562  1.00  0.00     0.017 A 
HETATM   10  C9  UNK     1      -3.419  -1.522   0.636  1.00  0.00     0.074 A 
HETATM   11  C10 UNK     1      -2.725  -1.465   2.938  1.00  0.00     0.037 A 
HETATM   12  C13 UNK     1      -3.675  -1.796   1.975  1.00  0.00     0.068 A 
ENDROOT
BRANCH   5  13
HETATM   13  C5  UNK     1       1.399   0.920  -1.069  1.00  0.00    -0.019 A 
HETATM   14  C11 UNK     1       2.485   0.129  -1.430  1.00  0.00     0.014 A 
HETATM   15  C14 UNK     1       3.651   0.730  -1.904  1.00  0.00     0.020 A 
HETATM   16  C16 UNK     1       3.726   2.118  -2.016  1.00  0.00     0.011 A 
HETATM   17 Br1  UNK     1       5.306   2.932  -2.658  1.00  0.00    -0.051 Br
HETATM   18  C15 UNK     1       2.634   2.906  -1.653  1.00  0.00     0.020 A 
HETATM   19  C12 UNK     1       1.468   2.306  -1.178  1.00  0.00     0.014 A 
ENDBRANCH   5  13
BRANCH  12  20
HETATM   20  O3  UNK     1      -4.845  -2.383   2.342  1.00  0.00    -0.361 OA
HETATM   21  H11 UNK     1      -4.851  -2.497   3.308  1.00  0.00     0.217 HD
ENDBRANCH  12  20
TORSDOF 2
