REMARK  5 active torsions:
REMARK  status: ('A' for Active; 'I' for Inactive)
REMARK    1  A    between atoms: C16_22  and  O2_2 
REMARK    2  A    between atoms: C3_9  and  O2_2 
REMARK    3  A    between atoms: C15_21  and  O4_4 
REMARK       I    between atoms: C17_23  and  N1_6 
REMARK    4  A    between atoms: C1_7  and  C5_11 
REMARK    5  A    between atoms: C16_22  and  C17_23 
ROOT
HETATM    1  O1  UNK     1       0.977   1.799   0.314  1.00  0.00    -0.306 OA
HETATM    2  O3  UNK     1       1.576  -0.231  -3.170  1.00  0.00    -0.284 OA
HETATM    3  C1  UNK     1       0.288   0.633   0.025  1.00  0.00     0.123 A 
HETATM    4  C2  UNK     1       2.136   1.614  -1.811  1.00  0.00     0.051 A 
HETATM    5  C3  UNK     1       0.430  -0.086  -1.103  1.00  0.00     0.155 A 
HETATM    6  C4  UNK     1       1.885   2.262  -0.603  1.00  0.00     0.090 A 
HETATM    7  C6  UNK     1       1.399   0.380  -2.125  1.00  0.00     0.221 A 
HETATM    8  C7  UNK     1       3.073   2.133  -2.708  1.00  0.00     0.018 A 
HETATM    9  C8  UNK     1       2.570   3.435  -0.285  1.00  0.00     0.038 A 
HETATM   10  C11 UNK     1       3.758   3.306  -2.387  1.00  0.00     0.001 A 
HETATM   11  C12 UNK     1       3.507   3.955  -1.177  1.00  0.00     0.003 A 
ENDROOT
BRANCH   3  12
HETATM   12  C5  UNK     1      -0.629   0.247   1.051  1.00  0.00     0.001 A 
HETATM   13  C10 UNK     1      -1.942   0.715   1.025  1.00  0.00     0.017 A 
HETATM   14  C14 UNK     1      -2.837   0.338   2.026  1.00  0.00     0.037 A 
HETATM   15  C15 UNK     1      -2.419  -0.507   3.054  1.00  0.00     0.068 A 
HETATM   16  C13 UNK     1      -1.105  -0.975   3.081  1.00  0.00     0.037 A 
HETATM   17  C9  UNK     1      -0.210  -0.598   2.080  1.00  0.00     0.017 A 
BRANCH  15  18
HETATM   18  O4  UNK     1      -3.291  -0.874   4.032  1.00  0.00    -0.356 OA
HETATM   19  C18 UNK     1      -4.619  -0.360   3.944  1.00  0.00     0.210 C 
ENDBRANCH  15  18
ENDBRANCH   3  12
BRANCH   5  20
HETATM   20  O2  UNK     1      -0.292  -1.230  -1.366  1.00  0.00    -0.335 OA
BRANCH  20  21
HETATM   21  C16 UNK     1      -1.496  -0.922  -2.043  1.00  0.00     0.278 C 
BRANCH  21  22
HETATM   22  C17 UNK     1      -2.551  -1.942  -1.685  1.00  0.00     0.239 C 
HETATM   23  O5  UNK     1      -2.356  -2.884  -0.922  1.00  0.00    -0.271 OA
HETATM   24  N1  UNK     1      -3.754  -1.694  -2.309  1.00  0.00    -0.368 N 
HETATM   25  H14 UNK     1      -4.554  -2.299  -2.160  1.00  0.00     0.159 HD
HETATM   26  H15 UNK     1      -3.888  -0.907  -2.936  1.00  0.00     0.159 HD
ENDBRANCH  21  22
ENDBRANCH  20  21
ENDBRANCH   5  20
TORSDOF 5
