REMARK  3 active torsions:
REMARK  status: ('A' for Active; 'I' for Inactive)
REMARK    1  A    between atoms: C1_5  and  N1_3 
REMARK    2  A    between atoms: C11_15  and  N2_4 
REMARK    3  A    between atoms: C11_15  and  C12_16 
ROOT
HETATM    1  O1  UNK     1       2.056   1.258  -3.693  1.00  0.00    -0.275 OA
HETATM    2  O2  UNK     1       0.119   0.817  -4.825  1.00  0.00    -0.260 OA
HETATM    3  C12 UNK     1       0.517   1.436  -1.326  1.00  0.00    -0.011 A 
HETATM    4  C13 UNK     1       1.972   1.637  -1.282  1.00  0.00     0.012 A 
HETATM    5  C14 UNK     1      -0.065   1.168  -2.504  1.00  0.00     0.092 A 
HETATM    6  C15 UNK     1       2.697   1.541  -2.470  1.00  0.00     0.091 A 
HETATM    7  C16 UNK     1       2.683   1.921  -0.108  1.00  0.00    -0.048 A 
HETATM    8  C17 UNK     1       0.686   1.064  -3.766  1.00  0.00     0.288 A 
HETATM    9  C18 UNK     1       4.081   1.718  -2.516  1.00  0.00     0.045 A 
HETATM   10  C19 UNK     1       4.070   2.100  -0.138  1.00  0.00     0.014 A 
HETATM   11  C20 UNK     1       4.768   1.999  -1.340  1.00  0.00    -0.059 A 
HETATM   12  C21 UNK     1       2.068   2.056   1.249  1.00  0.00     0.049 C 
HETATM   13  C22 UNK     1       6.247   2.190  -1.365  1.00  0.00     0.048 C 
ENDROOT
BRANCH   3  14
HETATM   14  C11 UNK     1      -0.351   1.520  -0.123  1.00  0.00     0.312 C 
BRANCH  14  15
HETATM   15  N2  UNK     1      -0.409   0.170   0.438  1.00  0.00     0.092 N 
HETATM   16  C4  UNK     1      -0.823   0.215   1.846  1.00  0.00     0.275 C 
HETATM   17  C2  UNK     1      -0.836  -1.187   2.464  1.00  0.00     0.066 C 
HETATM   18  C1  UNK     1      -1.712  -2.159   1.670  1.00  0.00     0.226 C 
HETATM   19  C3  UNK     1      -1.338  -2.111   0.186  1.00  0.00     0.066 C 
HETATM   20  C5  UNK     1      -1.308  -0.678  -0.355  1.00  0.00     0.275 C 
BRANCH  18  21
HETATM   21  N1  UNK     1      -3.132  -1.870   1.866  1.00  0.00     0.093 N 
HETATM   22  C6  UNK     1      -3.957  -2.757   1.034  1.00  0.00     0.273 C 
HETATM   23  C8  UNK     1      -5.444  -2.435   1.190  1.00  0.00     0.030 C 
HETATM   24  C10 UNK     1      -5.876  -2.502   2.651  1.00  0.00     0.003 C 
HETATM   25  C9  UNK     1      -4.962  -1.641   3.516  1.00  0.00     0.030 C 
HETATM   26  C7  UNK     1      -3.490  -1.989   3.286  1.00  0.00     0.273 C 
ENDBRANCH  18  21
ENDBRANCH  14  15
ENDBRANCH   3  14
TORSDOF 3
