REMARK  3 active torsions:
REMARK  status: ('A' for Active; 'I' for Inactive)
REMARK    1  A    between atoms: C11_14  and  C8_11 
REMARK    2  A    between atoms: C11_14  and  C12_15 
REMARK    3  A    between atoms: C13_16  and  C14_17 
ROOT
HETATM    1  O1  UNK     1       1.221   1.520  -2.682  1.00  0.00    -0.348 OA
HETATM    2  O2  UNK     1       4.045   1.683  -1.771  1.00  0.00    -0.348 OA
HETATM    3  C1  UNK     1       2.562   2.358  -4.501  1.00  0.00     0.029 C 
HETATM    4  C2  UNK     1       3.999   1.953  -4.165  1.00  0.00     0.029 C 
HETATM    5  C3  UNK     1       1.708   2.719  -3.292  1.00  0.00     0.176 C 
HETATM    6  C4  UNK     1       4.125   0.970  -3.008  1.00  0.00     0.176 C 
HETATM    7  C5  UNK     1       1.650   1.295  -1.405  1.00  0.00     0.102 A 
HETATM    8  C6  UNK     1       2.979   1.364  -0.978  1.00  0.00     0.102 A 
HETATM    9  C7  UNK     1       0.651   0.921  -0.498  1.00  0.00     0.055 A 
HETATM   10  C8  UNK     1       0.965   0.678   0.839  1.00  0.00     0.017 A 
HETATM   11  C9  UNK     1       3.284   1.146   0.371  1.00  0.00     0.040 A 
HETATM   12  C10 UNK     1       2.281   0.800   1.276  1.00  0.00     0.018 A 
ENDROOT
BRANCH  10  13
HETATM   13  C11 UNK     1      -0.082   0.307   1.777  1.00  0.00     0.182 C 
HETATM   14  O3  UNK     1      -0.024   0.569   2.987  1.00  0.00    -0.288 OA
BRANCH  13  15
HETATM   15  C12 UNK     1      -1.273  -0.462   1.269  1.00  0.00     0.056 C 
HETATM   16  C13 UNK     1      -2.247  -0.850   2.106  1.00  0.00     0.015 C 
BRANCH  16  17
HETATM   17  C14 UNK     1      -3.438  -1.619   1.701  1.00  0.00    -0.036 A 
HETATM   18  C15 UNK     1      -3.819  -1.629   0.369  1.00  0.00     0.011 A 
HETATM   19  C17 UNK     1      -4.946  -2.356  -0.013  1.00  0.00     0.001 A 
HETATM   20  C19 UNK     1      -5.676  -3.063   0.942  1.00  0.00     0.000 A 
HETATM   21  C18 UNK     1      -5.280  -3.043   2.279  1.00  0.00     0.001 A 
HETATM   22  C16 UNK     1      -4.153  -2.316   2.661  1.00  0.00     0.011 A 
ENDBRANCH  16  17
ENDBRANCH  13  15
ENDBRANCH  10  13
TORSDOF 3
