REMARK  6 active torsions:
REMARK  status: ('A' for Active; 'I' for Inactive)
REMARK    1  A    between atoms: C3_7  and  O1_1 
REMARK    2  A    between atoms: C6_10  and  O2_2 
REMARK    3  A    between atoms: C13_17  and  O4_4 
REMARK    4  A    between atoms: C1_5  and  C4_8 
REMARK    5  A    between atoms: C2_6  and  C5_9 
REMARK    6  A    between atoms: C5_9  and  C9_13 
ROOT
HETATM    1  O3  UNK     1       0.173  -0.213   0.487  1.00  0.00    -0.287 OA
HETATM    2  C5  UNK     1       0.105   0.880  -0.066  1.00  0.00     0.184 C 
ENDROOT
BRANCH   2   3
HETATM    3  C2  UNK     1       1.235   1.352  -0.901  1.00  0.00     0.047 A 
HETATM    4  C6  UNK     1       1.671   0.613  -2.001  1.00  0.00     0.082 A 
HETATM    5  C11 UNK     1       2.736   1.075  -2.775  1.00  0.00     0.074 A 
HETATM    6  C13 UNK     1       3.365   2.276  -2.448  1.00  0.00     0.068 A 
HETATM    7  C12 UNK     1       2.930   3.015  -1.348  1.00  0.00     0.037 A 
HETATM    8  C8  UNK     1       1.865   2.553  -0.575  1.00  0.00     0.021 A 
BRANCH   4   9
HETATM    9  O2  UNK     1       1.069  -0.563  -2.336  1.00  0.00    -0.360 OA
HETATM   10  H10 UNK     1       0.343  -0.758  -1.722  1.00  0.00     0.217 HD
ENDBRANCH   4   9
BRANCH   6  11
HETATM   11  O4  UNK     1       4.406   2.726  -3.202  1.00  0.00    -0.361 OA
HETATM   12  H14 UNK     1       4.572   2.091  -3.920  1.00  0.00     0.217 HD
ENDBRANCH   6  11
ENDBRANCH   2   3
BRANCH   2  13
HETATM   13  C9  UNK     1      -1.093   1.759   0.038  1.00  0.00     0.056 C 
HETATM   14  C4  UNK     1      -2.165   1.366   0.760  1.00  0.00     0.018 C 
BRANCH  14  15
HETATM   15  C1  UNK     1      -2.272   0.106   1.483  1.00  0.00    -0.003 A 
HETATM   16  C3  UNK     1      -2.808  -1.030   0.875  1.00  0.00     0.078 A 
HETATM   17  C10 UNK     1      -2.900  -2.225   1.588  1.00  0.00     0.037 A 
HETATM   18  C15 UNK     1      -2.456  -2.285   2.909  1.00  0.00     0.003 A 
HETATM   19  C14 UNK     1      -1.921  -1.150   3.517  1.00  0.00     0.001 A 
HETATM   20  C7  UNK     1      -1.828   0.046   2.804  1.00  0.00     0.014 A 
BRANCH  16  21
HETATM   21  O1  UNK     1      -3.249  -0.998  -0.415  1.00  0.00    -0.355 OA
HETATM   22  C16 UNK     1      -3.780  -2.210  -0.946  1.00  0.00     0.210 C 
ENDBRANCH  16  21
ENDBRANCH  14  15
ENDBRANCH   2  13
TORSDOF 6
