REMARK  4 active torsions:
REMARK  status: ('A' for Active; 'I' for Inactive)
REMARK    1  A    between atoms: C11_16  and  O2_2 
REMARK    2  A    between atoms: C3_8  and  O2_2 
REMARK    3  A    between atoms: C2_7  and  C6_11 
REMARK    4  A    between atoms: C11_16  and  C15_20 
ROOT
HETATM    1  O1  UNK     1      -0.510  -0.149   1.657  1.00  0.00    -0.304 OA
HETATM    2  O4  UNK     1      -1.707  -1.064  -2.130  1.00  0.00    -0.284 OA
HETATM    3  C1  UNK     1      -2.217  -1.031   0.173  1.00  0.00     0.051 A 
HETATM    4  C2  UNK     1       0.303   0.098   0.562  1.00  0.00     0.147 A 
HETATM    5  C3  UNK     1      -0.026  -0.185  -0.712  1.00  0.00     0.157 A 
HETATM    6  C4  UNK     1      -1.747  -0.698   1.442  1.00  0.00     0.090 A 
HETATM    7  C5  UNK     1      -1.352  -0.786  -0.992  1.00  0.00     0.221 A 
HETATM    8  C7  UNK     1      -3.487  -1.589   0.014  1.00  0.00     0.018 A 
HETATM    9  C8  UNK     1      -2.548  -0.923   2.562  1.00  0.00     0.038 A 
HETATM   10  C9  UNK     1      -4.286  -1.813   1.136  1.00  0.00     0.001 A 
HETATM   11  C10 UNK     1      -3.817  -1.480   2.408  1.00  0.00     0.003 A 
ENDROOT
BRANCH   4  12
HETATM   12  C6  UNK     1       1.601   0.689   0.931  1.00  0.00     0.111 A 
HETATM   13  C12 UNK     1       2.047   1.021   2.196  1.00  0.00     0.042 A 
HETATM   14  C13 UNK     1       3.348   1.556   2.035  1.00  0.00     0.027 A 
HETATM   15  C14 UNK     1       3.612   1.518   0.686  1.00  0.00     0.142 A 
HETATM   16  O3  UNK     1       2.558   0.993   0.007  1.00  0.00    -0.320 OA
ENDBRANCH   4  12
BRANCH   5  17
HETATM   17  O2  UNK     1       0.821   0.043  -1.775  1.00  0.00    -0.337 OA
BRANCH  17  18
HETATM   18  C11 UNK     1       0.614   1.334  -2.315  1.00  0.00     0.253 C 
BRANCH  18  19
HETATM   19  C15 UNK     1       1.561   1.589  -3.468  1.00  0.00     0.146 C 
HETATM   20  C16 UNK     1       1.457   2.938  -4.130  1.00  0.00     0.093 C 
HETATM   21  O5  UNK     1       2.373   0.750  -3.853  1.00  0.00    -0.296 OA
ENDBRANCH  18  19
ENDBRANCH  17  18
ENDBRANCH   5  17
TORSDOF 4
