REMARK  4 active torsions:
REMARK  status: ('A' for Active; 'I' for Inactive)
REMARK    1  A    between atoms: C1_8  and  O1_2 
REMARK    2  A    between atoms: C17_24  and  O1_2 
REMARK    3  A    between atoms: C16_23  and  C4_11 
REMARK    4  A    between atoms: C10_17  and  C17_24 
ROOT
HETATM    1  O2  UNK     1       2.247   3.000   0.805  1.00  0.00    -0.293 OA
HETATM    2  N1  UNK     1       2.390   0.724  -3.347  1.00  0.00    -0.362 N 
HETATM    3  C4  UNK     1       0.811   1.346  -1.073  1.00  0.00     0.104 C 
HETATM    4  C8  UNK     1       2.271   1.762  -1.221  1.00  0.00     0.024 C 
HETATM    5  C9  UNK     1       2.987   1.420  -2.313  1.00  0.00     0.020 C 
HETATM    6  C10 UNK     1       0.245   0.715  -2.346  1.00  0.00     0.052 C 
HETATM    7  C11 UNK     1       4.443   1.760  -2.488  1.00  0.00     0.058 C 
HETATM    8  C12 UNK     1       5.128   2.059  -1.160  1.00  0.00     0.014 C 
HETATM    9  C13 UNK     1       4.331   3.070  -0.356  1.00  0.00     0.084 C 
HETATM   10  C14 UNK     1       1.041   0.412  -3.398  1.00  0.00     0.018 C 
HETATM   11  C15 UNK     1       2.900   2.617  -0.165  1.00  0.00     0.158 C 
HETATM   12  C18 UNK     1       0.593  -0.254  -4.671  1.00  0.00     0.069 C 
HETATM   13  H19 UNK     1       2.961   0.489  -4.151  1.00  0.00     0.165 HD
ENDROOT
BRANCH   3  14
HETATM   14  C16 UNK     1       0.653   0.404   0.090  1.00  0.00     0.029 A 
HETATM   15  C19 UNK     1      -0.201   0.821   1.230  1.00  0.00     0.194 A 
HETATM   16  O5  UNK     1      -0.776   1.901   1.251  1.00  0.00    -0.287 OA
HETATM   17  C21 UNK     1      -0.322  -0.140   2.342  1.00  0.00     0.050 A 
HETATM   18  C22 UNK     1       0.356  -1.357   2.263  1.00  0.00     0.089 A 
HETATM   19  C23 UNK     1      -1.103   0.159   3.461  1.00  0.00     0.042 A 
HETATM   20  O4  UNK     1       1.136  -1.703   1.189  1.00  0.00    -0.321 OA
HETATM   21  C24 UNK     1       0.256  -2.281   3.304  1.00  0.00     0.040 A 
HETATM   22  C20 UNK     1       1.239  -0.798   0.161  1.00  0.00     0.154 A 
HETATM   23  C26 UNK     1      -0.523  -1.984   4.422  1.00  0.00     0.026 A 
HETATM   24  C25 UNK     1      -1.201  -0.767   4.500  1.00  0.00     0.035 A 
HETATM   25 Cl1  UNK     1      -2.161  -0.407   5.883  1.00  0.00    -0.084 Cl
ENDBRANCH   3  14
BRANCH   6  26
HETATM   26  C17 UNK     1      -1.211   0.504  -2.383  1.00  0.00     0.292 C 
HETATM   27  O3  UNK     1      -1.999   1.348  -2.766  1.00  0.00    -0.259 OA
BRANCH  26  28
HETATM   28  O1  UNK     1      -1.473  -0.745  -1.930  1.00  0.00    -0.312 OA
BRANCH  28  29
HETATM   29  C1  UNK     1      -2.852  -1.101  -1.906  1.00  0.00     0.132 C 
HETATM   30  C2  UNK     1      -3.619  -0.119  -1.023  1.00  0.00     0.032 C 
HETATM   31  C5  UNK     1      -5.086  -0.515  -0.886  1.00  0.00     0.002 C 
HETATM   32  C7  UNK     1      -5.236  -1.953  -0.393  1.00  0.00     0.000 C 
HETATM   33  C6  UNK     1      -4.468  -2.936  -1.274  1.00  0.00     0.002 C 
HETATM   34  C3  UNK     1      -3.001  -2.539  -1.410  1.00  0.00     0.032 C 
ENDBRANCH  28  29
ENDBRANCH  26  28
ENDBRANCH   6  26
TORSDOF 4
