REMARK  7 active torsions:
REMARK  status: ('A' for Active; 'I' for Inactive)
REMARK    1  A    between atoms: C15_22  and  O3_3 
REMARK    2  A    between atoms: C19_26  and  O3_3 
REMARK    3  A    between atoms: C5_12  and  N1_5 
REMARK    4  A    between atoms: C6_13  and  N2_6 
REMARK    5  A    between atoms: C16_23  and  N3_7 
REMARK       I    between atoms: C9_16  and  N3_7 
REMARK    6  A    between atoms: C5_12  and  C7_14 
REMARK    7  A    between atoms: C6_13  and  C9_16 
ROOT
HETATM    1  O1  UNK     1       1.151   1.880  -4.110  1.00  0.00    -0.275 OA
HETATM    2  O4  UNK     1      -0.464   0.691  -5.209  1.00  0.00    -0.260 OA
HETATM    3  C7  UNK     1       1.084  -0.092  -2.083  1.00  0.00    -0.011 A 
HETATM    4  C8  UNK     1       1.998   1.054  -1.973  1.00  0.00     0.009 A 
HETATM    5  C10 UNK     1       0.287  -0.186  -3.157  1.00  0.00     0.092 A 
HETATM    6  C11 UNK     1       2.002   2.006  -2.993  1.00  0.00     0.090 A 
HETATM    7  C12 UNK     1       2.874   1.250  -0.897  1.00  0.00     0.051 A 
HETATM    8  C13 UNK     1       0.280   0.810  -4.241  1.00  0.00     0.288 A 
HETATM    9  C14 UNK     1       2.838   3.124  -2.967  1.00  0.00     0.041 A 
HETATM   10  C15 UNK     1       3.719   2.365  -0.857  1.00  0.00     0.069 A 
HETATM   11  C17 UNK     1       3.700   3.301  -1.891  1.00  0.00     0.039 A 
ENDROOT
BRANCH   3  12
HETATM   12  C5  UNK     1       1.056  -1.125  -1.011  1.00  0.00     0.312 C 
BRANCH  12  13
HETATM   13  N1  UNK     1       0.088  -0.807   0.037  1.00  0.00     0.096 N 
HETATM   14  C1  UNK     1       0.436  -1.485   1.292  1.00  0.00     0.303 C 
HETATM   15  C3  UNK     1      -0.579  -1.154   2.391  1.00  0.00     0.303 C 
HETATM   16  N2  UNK     1      -1.939  -1.518   1.973  1.00  0.00     0.100 N 
HETATM   17  C4  UNK     1      -2.287  -0.840   0.718  1.00  0.00     0.303 C 
HETATM   18  C2  UNK     1      -1.272  -1.169  -0.381  1.00  0.00     0.303 C 
BRANCH  16  19
HETATM   19  C6  UNK     1      -2.907  -1.202   3.021  1.00  0.00     0.374 C 
BRANCH  19  20
HETATM   20  C9  UNK     1      -4.136  -2.065   2.825  1.00  0.00     0.246 C 
HETATM   21  O2  UNK     1      -4.091  -3.195   2.344  1.00  0.00    -0.272 OA
HETATM   22  N3  UNK     1      -5.287  -1.437   3.278  1.00  0.00    -0.360 N 
HETATM   23  H15 UNK     1      -5.223  -0.501   3.666  1.00  0.00     0.162 HD
BRANCH  22  24
HETATM   24  C16 UNK     1      -6.595  -2.052   3.235  1.00  0.00     0.118 C 
HETATM   25  C18 UNK     1      -7.207  -1.957   1.853  1.00  0.00     0.026 C 
ENDBRANCH  22  24
ENDBRANCH  19  20
ENDBRANCH  16  19
ENDBRANCH  12  13
ENDBRANCH   3  12
BRANCH  10  26
HETATM   26  O3  UNK     1       4.563   2.538   0.197  1.00  0.00    -0.351 OA
BRANCH  26  27
HETATM   27  C19 UNK     1       4.142   2.018   1.457  1.00  0.00     0.171 C 
HETATM   28  C20 UNK     1       4.741   2.860   2.563  1.00  0.00     0.034 C 
ENDBRANCH  26  27
ENDBRANCH  10  26
TORSDOF 7
