REMARK  8 active torsions:
REMARK  status: ('A' for Active; 'I' for Inactive)
REMARK    1  A    between atoms: C16_26  and  N1_7 
REMARK    2  A    between atoms: C4_14  and  N1_7 
REMARK       I    between atoms: C13_23  and  N2_8 
REMARK    3  A    between atoms: C15_25  and  N2_8 
REMARK       I    between atoms: C14_24  and  N3_9 
REMARK    4  A    between atoms: N3_9  and  N4_10 
REMARK    5  A    between atoms: C16_26  and  N4_10 
REMARK    6  A    between atoms: C13_23  and  C8_18 
REMARK    7  A    between atoms: C8_18  and  C9_19 
REMARK    8  A    between atoms: C14_24  and  C9_19 
ROOT
HETATM    1  N4  UNK     1       0.904   1.035  -3.878  1.00  0.00    -0.274 N 
HETATM    2  H15 UNK     1       1.215   0.749  -4.801  1.00  0.00     0.189 HD
ENDROOT
BRANCH   1   3
HETATM    3  C16 UNK     1      -0.077   0.332  -3.187  1.00  0.00     0.191 C 
HETATM    4  S1  UNK     1      -0.712  -1.021  -3.945  1.00  0.00    -0.039 SA
BRANCH   3   5
HETATM    5  N1  UNK     1      -0.391   0.887  -1.951  1.00  0.00    -0.332 N 
HETATM    6  H12 UNK     1      -0.028   1.831  -1.839  1.00  0.00     0.168 HD
BRANCH   5   7
HETATM    7  C4  UNK     1      -1.299   0.535  -0.921  1.00  0.00     0.037 A 
HETATM    8  C6  UNK     1      -1.603  -0.801  -0.684  1.00  0.00     0.067 A 
HETATM    9  C2  UNK     1      -2.500  -1.125   0.336  1.00  0.00     0.092 A 
HETATM   10  C1  UNK     1      -3.107  -0.153   1.132  1.00  0.00     0.004 A 
HETATM   11  O1  UNK     1      -2.767  -2.495   0.528  1.00  0.00    -0.275 OA
HETATM   12  C3  UNK     1      -4.038  -0.584   2.183  1.00  0.00    -0.043 A 
HETATM   13  C5  UNK     1      -2.787   1.188   0.877  1.00  0.00     0.017 A 
HETATM   14  C10 UNK     1      -4.274  -1.894   2.343  1.00  0.00     0.090 A 
HETATM   15  C11 UNK     1      -4.707   0.437   3.056  1.00  0.00     0.049 C 
HETATM   16  C12 UNK     1      -3.641  -2.932   1.512  1.00  0.00     0.288 A 
HETATM   17  O2  UNK     1      -3.881  -4.121   1.688  1.00  0.00    -0.260 OA
HETATM   18  C7  UNK     1      -1.890   1.528  -0.142  1.00  0.00     0.030 A 
ENDBRANCH   5   7
ENDBRANCH   3   5
ENDBRANCH   1   3
BRANCH   1  19
HETATM   19  N3  UNK     1       1.571   2.096  -3.316  1.00  0.00    -0.268 N 
HETATM   20  C14 UNK     1       2.918   2.072  -3.040  1.00  0.00     0.236 C 
HETATM   21  O4  UNK     1       3.610   1.080  -3.288  1.00  0.00    -0.272 OA
HETATM   22  H14 UNK     1       1.015   2.932  -3.166  1.00  0.00     0.190 HD
BRANCH  20  23
HETATM   23  C9  UNK     1       3.542   3.292  -2.382  1.00  0.00     0.114 C 
BRANCH  23  24
HETATM   24  C8  UNK     1       4.163   2.918  -1.037  1.00  0.00     0.112 C 
BRANCH  24  25
HETATM   25  C13 UNK     1       3.135   2.438  -0.021  1.00  0.00     0.222 C 
HETATM   26  O3  UNK     1       2.601   3.220   0.761  1.00  0.00    -0.273 OA
HETATM   27  N2  UNK     1       2.950   1.062  -0.092  1.00  0.00    -0.326 N 
HETATM   28  H13 UNK     1       3.489   0.545  -0.783  1.00  0.00     0.169 HD
BRANCH  27  29
HETATM   29  C15 UNK     1       2.080   0.268   0.692  1.00  0.00     0.056 A 
HETATM   30  C17 UNK     1       1.994  -1.113   0.512  1.00  0.00     0.060 A 
HETATM   31  C19 UNK     1       1.125  -1.866   1.301  1.00  0.00     0.026 A 
HETATM   32 Cl1  UNK     1       2.944  -1.929  -0.678  1.00  0.00    -0.082 Cl
HETATM   33  C21 UNK     1       0.341  -1.239   2.270  1.00  0.00     0.002 A 
HETATM   34  C20 UNK     1       0.427   0.141   2.450  1.00  0.00     0.002 A 
HETATM   35  C18 UNK     1       1.297   0.895   1.661  1.00  0.00     0.031 A 
ENDBRANCH  27  29
ENDBRANCH  24  25
ENDBRANCH  23  24
ENDBRANCH  20  23
ENDBRANCH   1  19
TORSDOF 8
