REMARK  3 active torsions:
REMARK  status: ('A' for Active; 'I' for Inactive)
REMARK    1  A    between atoms: C7_11  and  O2_2 
REMARK    2  A    between atoms: C9_13  and  O4_4 
REMARK    3  A    between atoms: C1_5  and  C3_7 
ROOT
HETATM    1  O1  UNK     1       0.810   1.454   0.193  1.00  0.00    -0.340 OA
HETATM    2  O3  UNK     1       1.806  -0.772  -3.106  1.00  0.00    -0.292 OA
HETATM    3  C1  UNK     1      -0.051   0.402  -0.270  1.00  0.00     0.172 C 
HETATM    4  C2  UNK     1       0.752  -0.704  -0.952  1.00  0.00     0.121 C 
HETATM    5  C4  UNK     1       1.509  -0.116  -2.115  1.00  0.00     0.165 C 
HETATM    6  C5  UNK     1       1.940   1.289  -1.962  1.00  0.00     0.043 A 
HETATM    7  C6  UNK     1       1.584   1.988  -0.805  1.00  0.00     0.083 A 
HETATM    8  C10 UNK     1       2.729   1.898  -2.941  1.00  0.00     0.018 A 
HETATM    9  C11 UNK     1       2.048   3.290  -0.611  1.00  0.00     0.038 A 
HETATM   10  C14 UNK     1       3.173   3.207  -2.750  1.00  0.00     0.001 A 
HETATM   11  C15 UNK     1       2.838   3.900  -1.586  1.00  0.00     0.003 A 
ENDROOT
BRANCH   3  12
HETATM   12  C3  UNK     1      -0.827  -0.137   0.913  1.00  0.00     0.008 A 
HETATM   13  C7  UNK     1      -2.132  -0.607   0.758  1.00  0.00     0.110 A 
HETATM   14  C9  UNK     1      -2.832  -1.101   1.859  1.00  0.00     0.102 A 
HETATM   15  C13 UNK     1      -2.227  -1.125   3.116  1.00  0.00     0.039 A 
HETATM   16  C12 UNK     1      -0.923  -0.655   3.272  1.00  0.00     0.003 A 
HETATM   17  C8  UNK     1      -0.223  -0.162   2.171  1.00  0.00     0.013 A 
BRANCH  13  18
HETATM   18  O2  UNK     1      -2.726  -0.585  -0.469  1.00  0.00    -0.352 OA
HETATM   19  C16 UNK     1      -3.147  -1.836  -1.007  1.00  0.00     0.210 C 
ENDBRANCH  13  18
BRANCH  14  20
HETATM   20  O4  UNK     1      -4.106  -1.562   1.721  1.00  0.00    -0.353 OA
HETATM   21  C17 UNK     1      -5.160  -0.616   1.893  1.00  0.00     0.210 C 
ENDBRANCH  14  20
ENDBRANCH   3  12
TORSDOF 3
