REMARK  6 active torsions:
REMARK  status: ('A' for Active; 'I' for Inactive)
REMARK    1  A    between atoms: C5_13  and  N1_6 
REMARK    2  A    between atoms: C6_14  and  N2_7 
REMARK    3  A    between atoms: C18_26  and  N3_8 
REMARK       I    between atoms: C9_17  and  N3_8 
REMARK    4  A    between atoms: C5_13  and  C7_15 
REMARK    5  A    between atoms: C6_14  and  C9_17 
REMARK    6  A    between atoms: C13_21  and  C17_25 
ROOT
HETATM    1  N1  UNK     1       2.100   0.047  -0.788  1.00  0.00     0.096 N 
HETATM    2  N2  UNK     1       0.250  -0.828   1.254  1.00  0.00     0.100 N 
HETATM    3  C1  UNK     1       0.730  -0.357  -1.124  1.00  0.00     0.303 C 
HETATM    4  C2  UNK     1       2.566  -0.664   0.410  1.00  0.00     0.303 C 
HETATM    5  C3  UNK     1      -0.216  -0.116   0.058  1.00  0.00     0.303 C 
HETATM    6  C4  UNK     1       1.620  -0.421   1.591  1.00  0.00     0.303 C 
ENDROOT
BRANCH   1   7
HETATM    7  C5  UNK     1       3.002  -0.188  -1.914  1.00  0.00     0.312 C 
BRANCH   7   8
HETATM    8  C7  UNK     1       2.910   0.888  -2.940  1.00  0.00    -0.011 A 
HETATM    9  C10 UNK     1       2.041   0.802  -3.957  1.00  0.00     0.092 A 
HETATM   10  C14 UNK     1       1.914   1.839  -4.995  1.00  0.00     0.288 A 
HETATM   11  O1  UNK     1       2.749   2.940  -4.881  1.00  0.00    -0.275 OA
HETATM   12  O3  UNK     1       1.105   1.727  -5.909  1.00  0.00    -0.260 OA
HETATM   13  C11 UNK     1       3.673   3.058  -3.823  1.00  0.00     0.090 A 
HETATM   14  C8  UNK     1       3.782   2.066  -2.847  1.00  0.00     0.007 A 
HETATM   15  C15 UNK     1       4.463   4.208  -3.810  1.00  0.00     0.039 A 
HETATM   16  C12 UNK     1       4.726   2.258  -1.829  1.00  0.00     0.022 A 
HETATM   17  C13 UNK     1       5.525   3.407  -1.802  1.00  0.00    -0.058 A 
HETATM   18  C16 UNK     1       5.394   4.380  -2.790  1.00  0.00     0.010 A 
BRANCH  17  19
HETATM   19  C17 UNK     1       6.524   3.590  -0.708  1.00  0.00     0.034 C 
HETATM   20  C20 UNK     1       5.937   4.321   0.497  1.00  0.00     0.010 C 
ENDBRANCH  17  19
ENDBRANCH   7   8
ENDBRANCH   1   7
BRANCH   2  21
HETATM   21  C6  UNK     1      -0.652  -0.595   2.381  1.00  0.00     0.375 C 
BRANCH  21  22
HETATM   22  C9  UNK     1      -1.866  -1.499   2.251  1.00  0.00     0.250 C 
HETATM   23  O2  UNK     1      -1.817  -2.599   1.711  1.00  0.00    -0.271 OA
HETATM   24  N3  UNK     1      -2.981  -0.893   2.826  1.00  0.00    -0.326 N 
HETATM   25  H15 UNK     1      -2.857   0.026   3.246  1.00  0.00     0.169 HD
BRANCH  24  26
HETATM   26  C18 UNK     1      -4.297  -1.408   2.910  1.00  0.00     0.037 A 
HETATM   27  C19 UNK     1      -4.584  -2.666   2.375  1.00  0.00     0.069 A 
HETATM   28  C22 UNK     1      -5.881  -3.126   2.481  1.00  0.00     0.107 A 
HETATM   29  O4  UNK     1      -6.345  -4.320   2.020  1.00  0.00    -0.323 OA
HETATM   30  C23 UNK     1      -6.865  -2.383   3.091  1.00  0.00     0.105 A 
HETATM   31  C25 UNK     1      -7.732  -4.244   2.408  1.00  0.00     0.352 A 
HETATM   32  O5  UNK     1      -8.069  -3.018   3.087  1.00  0.00    -0.323 OA
HETATM   33  C24 UNK     1      -6.608  -1.138   3.627  1.00  0.00     0.042 A 
HETATM   34  C21 UNK     1      -5.303  -0.649   3.533  1.00  0.00     0.032 A 
ENDBRANCH  24  26
ENDBRANCH  21  22
ENDBRANCH   2  21
TORSDOF 6
