REMARK  4 active torsions:
REMARK  status: ('A' for Active; 'I' for Inactive)
REMARK    1  A    between atoms: C5_9  and  N1_3 
REMARK    2  A    between atoms: C6_10  and  N2_4 
REMARK    3  A    between atoms: C5_9  and  C7_11 
REMARK    4  A    between atoms: C6_10  and  C8_12 
ROOT
HETATM    1  N1  UNK     1       0.089  -0.399   0.155  1.00  0.00     0.096 N 
HETATM    2  N2  UNK     1       1.797   1.722  -0.816  1.00  0.00     0.096 N 
HETATM    3  C1  UNK     1       0.783   0.504   1.081  1.00  0.00     0.303 C 
HETATM    4  C2  UNK     1       0.855  -0.546  -1.088  1.00  0.00     0.303 C 
HETATM    5  C3  UNK     1       1.032   1.869   0.428  1.00  0.00     0.303 C 
HETATM    6  C4  UNK     1       1.103   0.818  -1.741  1.00  0.00     0.303 C 
ENDROOT
BRANCH   1   7
HETATM    7  C5  UNK     1      -0.147  -1.700   0.777  1.00  0.00     0.312 C 
BRANCH   7   8
HETATM    8  C7  UNK     1      -1.341  -1.537   1.647  1.00  0.00    -0.011 A 
HETATM    9  C10 UNK     1      -1.220  -1.165   2.929  1.00  0.00     0.092 A 
HETATM   10  C16 UNK     1      -2.373  -0.990   3.828  1.00  0.00     0.288 A 
HETATM   11  O1  UNK     1      -3.626  -1.232   3.287  1.00  0.00    -0.275 OA
HETATM   12  O2  UNK     1      -2.223  -0.648   4.995  1.00  0.00    -0.260 OA
HETATM   13  C12 UNK     1      -3.786  -1.625   1.943  1.00  0.00     0.090 A 
HETATM   14  C17 UNK     1      -5.094  -1.841   1.507  1.00  0.00     0.045 A 
HETATM   15  C9  UNK     1      -2.683  -1.786   1.103  1.00  0.00     0.006 A 
HETATM   16  C19 UNK     1      -5.314  -2.231   0.190  1.00  0.00    -0.059 A 
HETATM   17  C20 UNK     1      -4.232  -2.400  -0.672  1.00  0.00     0.007 A 
HETATM   18  C23 UNK     1      -6.703  -2.469  -0.298  1.00  0.00     0.048 C 
HETATM   19  C14 UNK     1      -2.926  -2.180  -0.220  1.00  0.00     0.015 A 
ENDBRANCH   7   8
ENDBRANCH   1   7
BRANCH   2  20
HETATM   20  C6  UNK     1       2.030   3.024  -1.439  1.00  0.00     0.311 C 
BRANCH  20  21
HETATM   21  C8  UNK     1       3.182   2.924  -2.392  1.00  0.00    -0.030 A 
HETATM   22  C11 UNK     1       4.345   2.254  -2.014  1.00  0.00     0.015 A 
HETATM   23  C15 UNK     1       5.416   2.161  -2.902  1.00  0.00    -0.061 A 
HETATM   24  C21 UNK     1       5.324   2.737  -4.169  1.00  0.00     0.007 A 
HETATM   25  C22 UNK     1       6.661   1.445  -2.499  1.00  0.00     0.048 C 
HETATM   26  C18 UNK     1       4.160   3.407  -4.548  1.00  0.00     0.001 A 
HETATM   27  C13 UNK     1       3.089   3.501  -3.659  1.00  0.00     0.009 A 
ENDBRANCH  20  21
ENDBRANCH   2  20
TORSDOF 4
