REMARK  3 active torsions:
REMARK  status: ('A' for Active; 'I' for Inactive)
REMARK       I    between atoms: C13_22  and  N1_8 
REMARK    1  A    between atoms: C3_12  and  N1_8 
REMARK    2  A    between atoms: C17_26  and  N2_9 
REMARK    3  A    between atoms: C13_22  and  C8_17 
ROOT
HETATM    1  O3  UNK     1       2.861   0.932   0.609  1.00  0.00    -0.274 OA
HETATM    2  O5  UNK     1       1.304  -0.294   1.746  1.00  0.00    -0.259 OA
HETATM    3  C6  UNK     1       2.503   1.447  -1.739  1.00  0.00     0.001 A 
HETATM    4  C8  UNK     1       0.849   0.146  -0.538  1.00  0.00     0.108 A 
HETATM    5  C9  UNK     1       3.282   1.537  -0.591  1.00  0.00     0.089 A 
HETATM    6  C12 UNK     1       1.245   0.718  -1.681  1.00  0.00     0.037 A 
HETATM    7  C14 UNK     1       2.954   2.060  -2.911  1.00  0.00     0.050 A 
HETATM    8  C15 UNK     1       4.497   2.220  -0.580  1.00  0.00     0.041 A 
HETATM    9  C16 UNK     1       1.662   0.229   0.696  1.00  0.00     0.304 A 
HETATM   10  C17 UNK     1       4.171   2.749  -2.915  1.00  0.00     0.103 A 
HETATM   11  C18 UNK     1       4.940   2.828  -1.752  1.00  0.00     0.039 A 
ENDROOT
BRANCH   4  12
HETATM   12  C13 UNK     1      -0.433  -0.567  -0.579  1.00  0.00     0.262 C 
HETATM   13  O4  UNK     1      -0.801  -1.092  -1.628  1.00  0.00    -0.267 OA
HETATM   14  N1  UNK     1      -1.079  -0.541   0.649  1.00  0.00    -0.323 N 
HETATM   15  H9  UNK     1      -0.647  -0.040   1.422  1.00  0.00     0.169 HD
BRANCH  14  16
HETATM   16  C3  UNK     1      -2.313  -1.124   0.943  1.00  0.00     0.037 A 
HETATM   17  C11 UNK     1      -3.011  -1.812  -0.050  1.00  0.00     0.032 A 
HETATM   18  C10 UNK     1      -4.242  -2.401   0.240  1.00  0.00     0.042 A 
HETATM   19  C2  UNK     1      -4.772  -2.303   1.526  1.00  0.00     0.102 A 
HETATM   20  C1  UNK     1      -4.086  -1.591   2.513  1.00  0.00     0.104 A 
HETATM   21  O2  UNK     1      -5.975  -2.919   1.756  1.00  0.00    -0.346 OA
HETATM   22  O1  UNK     1      -4.569  -1.430   3.786  1.00  0.00    -0.346 OA
HETATM   23  C7  UNK     1      -2.849  -1.014   2.226  1.00  0.00     0.069 A 
HETATM   24  C4  UNK     1      -5.962  -1.747   3.871  1.00  0.00     0.202 C 
HETATM   25  C5  UNK     1      -6.248  -3.052   3.153  1.00  0.00     0.202 C 
ENDBRANCH  14  16
ENDBRANCH   4  12
BRANCH  10  26
HETATM   26  N2  UNK     1       4.627   3.370  -4.108  1.00  0.00    -0.116 N 
HETATM   27  O6  UNK     1       5.721   3.981  -4.089  1.00  0.00    -0.532 OA
HETATM   28  O7  UNK     1       3.919   3.286  -5.139  1.00  0.00    -0.532 OA
ENDBRANCH  10  26
TORSDOF 3
