REMARK  1 active torsions:
REMARK  status: ('A' for Active; 'I' for Inactive)
REMARK    1  A    between atoms: C4_8  and  C9_13 
ROOT
HETATM    1 Br1  UNK     1       3.783   2.206  -2.876  1.00  0.00    -0.051 Br
HETATM    2  O1  UNK     1      -0.746  -0.121  -1.612  1.00  0.00    -0.274 OA
HETATM    3  O2  UNK     1      -2.743  -1.142  -1.178  1.00  0.00    -0.259 OA
HETATM    4  C1  UNK     1       0.706   0.510   0.233  1.00  0.00    -0.001 A 
HETATM    5  C2  UNK     1       0.449   0.451  -1.133  1.00  0.00     0.091 A 
HETATM    6  C3  UNK     1      -0.278  -0.029   1.158  1.00  0.00     0.035 A 
HETATM    7  C4  UNK     1      -1.411  -0.572   0.697  1.00  0.00     0.086 A 
HETATM    8  C5  UNK     1       1.901   1.086   0.670  1.00  0.00     0.015 A 
HETATM    9  C6  UNK     1       1.350   0.950  -2.071  1.00  0.00     0.057 A 
HETATM   10  C7  UNK     1      -1.706  -0.646  -0.751  1.00  0.00     0.302 A 
HETATM   11  C8  UNK     1       2.815   1.590  -0.260  1.00  0.00     0.020 A 
HETATM   12  C10 UNK     1       2.540   1.522  -1.628  1.00  0.00     0.013 A 
ENDROOT
BRANCH   7  13
HETATM   13  C9  UNK     1      -2.342  -1.089   1.708  1.00  0.00     0.161 C 
HETATM   14  C11 UNK     1      -1.765  -1.611   2.998  1.00  0.00     0.097 C 
HETATM   15  O3  UNK     1      -3.555  -1.097   1.495  1.00  0.00    -0.293 OA
ENDBRANCH   7  13
TORSDOF 1
