REMARK  7 active torsions:
REMARK  status: ('A' for Active; 'I' for Inactive)
REMARK    1  A    between atoms: C15_23  and  O3_4 
REMARK    2  A    between atoms: C23_31  and  O3_4 
REMARK    3  A    between atoms: C5_13  and  N1_6 
REMARK    4  A    between atoms: C6_14  and  N2_7 
REMARK    5  A    between atoms: C16_24  and  N3_8 
REMARK       I    between atoms: C9_17  and  N3_8 
REMARK    6  A    between atoms: C5_13  and  C7_15 
REMARK    7  A    between atoms: C6_14  and  C9_17 
ROOT
HETATM    1  N1  UNK     1       1.291  -0.540  -1.289  1.00  0.00     0.096 N 
HETATM    2  N2  UNK     1      -1.374  -1.639  -1.069  1.00  0.00     0.100 N 
HETATM    3  C1  UNK     1       0.704  -0.862   0.018  1.00  0.00     0.303 C 
HETATM    4  C2  UNK     1       0.741  -1.419  -2.329  1.00  0.00     0.303 C 
HETATM    5  C3  UNK     1      -0.824  -0.759  -0.031  1.00  0.00     0.303 C 
HETATM    6  C4  UNK     1      -0.787  -1.318  -2.376  1.00  0.00     0.303 C 
ENDROOT
BRANCH   1   7
HETATM    7  C5  UNK     1       2.749  -0.641  -1.242  1.00  0.00     0.312 C 
BRANCH   7   8
HETATM    8  C7  UNK     1       3.372   0.534  -0.572  1.00  0.00    -0.011 A 
HETATM    9  C10 UNK     1       3.591   0.542   0.750  1.00  0.00     0.092 A 
HETATM   10  C13 UNK     1       4.204   1.679   1.456  1.00  0.00     0.288 A 
HETATM   11  O1  UNK     1       4.557   2.775   0.684  1.00  0.00    -0.275 OA
HETATM   12  O4  UNK     1       4.389   1.651   2.668  1.00  0.00    -0.260 OA
HETATM   13  C11 UNK     1       4.339   2.796  -0.708  1.00  0.00     0.090 A 
HETATM   14  C8  UNK     1       3.757   1.710  -1.364  1.00  0.00     0.009 A 
HETATM   15  C14 UNK     1       4.734   3.952  -1.385  1.00  0.00     0.041 A 
HETATM   16  C12 UNK     1       3.573   1.810  -2.750  1.00  0.00     0.051 A 
HETATM   17  C15 UNK     1       3.963   2.963  -3.442  1.00  0.00     0.069 A 
HETATM   18  C17 UNK     1       4.542   4.031  -2.760  1.00  0.00     0.039 A 
BRANCH  17  19
HETATM   19  O3  UNK     1       3.775   3.040  -4.788  1.00  0.00    -0.351 OA
BRANCH  19  20
HETATM   20  C23 UNK     1       3.550   4.336  -5.339  1.00  0.00     0.171 C 
HETATM   21  C25 UNK     1       2.688   4.204  -6.576  1.00  0.00     0.034 C 
ENDBRANCH  19  20
ENDBRANCH  17  19
ENDBRANCH   7   8
ENDBRANCH   1   7
BRANCH   2  22
HETATM   22  C6  UNK     1      -2.831  -1.540  -1.116  1.00  0.00     0.375 C 
BRANCH  22  23
HETATM   23  C9  UNK     1      -3.428  -2.328   0.038  1.00  0.00     0.250 C 
HETATM   24  O2  UNK     1      -3.242  -3.532   0.182  1.00  0.00    -0.271 OA
HETATM   25  N3  UNK     1      -4.176  -1.488   0.859  1.00  0.00    -0.325 N 
HETATM   26  H15 UNK     1      -4.223  -0.507   0.598  1.00  0.00     0.169 HD
BRANCH  25  27
HETATM   27  C16 UNK     1      -4.888  -1.836   2.032  1.00  0.00     0.041 A 
HETATM   28  C18 UNK     1      -5.595  -0.872   2.752  1.00  0.00    -0.032 A 
HETATM   29  C20 UNK     1      -6.289  -1.234   3.906  1.00  0.00     0.051 A 
HETATM   30  C21 UNK     1      -5.624   0.555   2.311  1.00  0.00     0.050 C 
HETATM   31  C24 UNK     1      -6.277  -2.560   4.341  1.00  0.00     0.117 A 
HETATM   32  C22 UNK     1      -5.570  -3.523   3.621  1.00  0.00     0.044 A 
HETATM   33  F1  UNK     1      -6.943  -2.907   5.449  1.00  0.00    -0.206 F 
HETATM   34  C19 UNK     1      -4.875  -3.161   2.466  1.00  0.00     0.033 A 
ENDBRANCH  25  27
ENDBRANCH  22  23
ENDBRANCH   2  22
TORSDOF 7
