REMARK  8 active torsions:
REMARK  status: ('A' for Active; 'I' for Inactive)
REMARK    1  A    between atoms: C2_9  and  O1_2 
REMARK    2  A    between atoms: C3_10  and  O1_2 
REMARK    3  A    between atoms: C10_17  and  O2_3 
REMARK    4  A    between atoms: C4_11  and  O2_3 
REMARK    5  A    between atoms: C20_27  and  N1_6 
REMARK    6  A    between atoms: C1_8  and  C5_12 
REMARK    7  A    between atoms: C3_10  and  C4_11 
REMARK    8  A    between atoms: C6_13  and  C7_14 
ROOT
HETATM    1  N2  UNK     1       1.628   3.359   1.444  1.00  0.00    -0.191 NA
HETATM    2  C5  UNK     1       1.701   0.373  -0.278  1.00  0.00     0.038 C 
HETATM    3  C7  UNK     1       1.059   0.906   0.795  1.00  0.00     0.055 C 
HETATM    4  C24 UNK     1       1.380   2.265   1.147  1.00  0.00     0.100 C 
ENDROOT
BRANCH   3   5
HETATM    5  C6  UNK     1       0.074   0.188   1.588  1.00  0.00    -0.015 A 
HETATM    6  C14 UNK     1      -0.962   0.884   2.212  1.00  0.00     0.015 A 
HETATM    7  C21 UNK     1      -1.908   0.194   2.970  1.00  0.00     0.037 A 
HETATM    8  C20 UNK     1      -1.818  -1.192   3.105  1.00  0.00     0.102 A 
HETATM    9  C22 UNK     1      -0.782  -1.887   2.481  1.00  0.00     0.037 A 
HETATM   10  C15 UNK     1       0.164  -1.197   1.723  1.00  0.00     0.015 A 
BRANCH   8  11
HETATM   11  N1  UNK     1      -2.780  -1.895   3.878  1.00  0.00    -0.116 N 
HETATM   12  O3  UNK     1      -3.703  -1.250   4.431  1.00  0.00    -0.532 OA
HETATM   13  O4  UNK     1      -2.680  -3.141   3.986  1.00  0.00    -0.532 OA
ENDBRANCH   8  11
ENDBRANCH   3   5
BRANCH   2  14
HETATM   14  C1  UNK     1       2.697   1.063  -1.111  1.00  0.00    -0.000 A 
HETATM   15  C2  UNK     1       2.303   1.778  -2.234  1.00  0.00     0.079 A 
HETATM   16  C9  UNK     1       3.265   2.425  -3.009  1.00  0.00     0.039 A 
HETATM   17  C12 UNK     1       4.612   2.350  -2.654  1.00  0.00     0.022 A 
HETATM   18  C11 UNK     1       4.997   1.629  -1.524  1.00  0.00     0.011 A 
HETATM   19 Br1  UNK     1       6.822   1.527  -1.045  1.00  0.00    -0.051 Br
HETATM   20  C8  UNK     1       4.035   0.982  -0.749  1.00  0.00     0.033 A 
BRANCH  15  21
HETATM   21  O1  UNK     1       0.993   1.867  -2.603  1.00  0.00    -0.348 OA
BRANCH  21  22
HETATM   22  C3  UNK     1       0.649   1.363  -3.892  1.00  0.00     0.202 C 
BRANCH  22  23
HETATM   23  C4  UNK     1      -0.352   0.235  -3.730  1.00  0.00     0.202 C 
BRANCH  23  24
HETATM   24  O2  UNK     1      -1.506   0.730  -3.062  1.00  0.00    -0.349 OA
BRANCH  24  25
HETATM   25  C10 UNK     1      -2.211  -0.166  -2.302  1.00  0.00     0.068 A 
HETATM   26  C16 UNK     1      -2.224  -1.509  -2.659  1.00  0.00     0.037 A 
HETATM   27  C18 UNK     1      -2.942  -2.422  -1.886  1.00  0.00     0.009 A 
HETATM   28  C13 UNK     1      -3.642  -1.985  -0.762  1.00  0.00    -0.062 A 
HETATM   29  C19 UNK     1      -3.624  -0.636  -0.409  1.00  0.00     0.009 A 
HETATM   30  C23 UNK     1      -4.409  -2.961   0.065  1.00  0.00     0.048 C 
HETATM   31  C17 UNK     1      -2.906   0.277  -1.182  1.00  0.00     0.037 A 
ENDBRANCH  24  25
ENDBRANCH  23  24
ENDBRANCH  22  23
ENDBRANCH  21  22
ENDBRANCH  15  21
ENDBRANCH   2  14
TORSDOF 8
