REMARK  10 active torsions:
REMARK  status: ('A' for Active; 'I' for Inactive)
REMARK    1  A    between atoms: C11_22  and  O2_2 
REMARK    2  A    between atoms: C15_26  and  O2_2 
REMARK    3  A    between atoms: N1_8  and  N2_9 
REMARK    4  A    between atoms: C26_37  and  N2_9 
REMARK    5  A    between atoms: C27_38  and  N3_10 
REMARK    6  A    between atoms: C31_42  and  N4_11 
REMARK    7  A    between atoms: C2_13  and  C4_15 
REMARK    8  A    between atoms: C4_15  and  C8_19 
REMARK    9  A    between atoms: C15_26  and  C16_27 
REMARK   10  A    between atoms: C16_27  and  C17_28 
ROOT
HETATM    1  N1  UNK     1      -2.706  -1.654   1.643  1.00  0.00    -0.176 NA
HETATM    2  C16 UNK     1      -1.846  -1.476   2.602  1.00  0.00     0.089 C 
ENDROOT
BRANCH   2   3
HETATM    3  C15 UNK     1      -0.446  -0.911   2.409  1.00  0.00     0.237 C 
BRANCH   3   4
HETATM    4  O2  UNK     1      -0.487   0.512   2.513  1.00  0.00    -0.345 OA
BRANCH   4   5
HETATM    5  C11 UNK     1       0.378   1.216   1.735  1.00  0.00     0.071 A 
HETATM    6  C10 UNK     1       1.608   0.670   1.385  1.00  0.00     0.075 A 
HETATM    7  C5  UNK     1       2.482   1.410   0.585  1.00  0.00     0.092 A 
HETATM    8  C3  UNK     1       2.172   2.682   0.114  1.00  0.00     0.005 A 
HETATM    9  O1  UNK     1       3.709   0.803   0.275  1.00  0.00    -0.274 OA
HETATM   10  C1  UNK     1       3.158   3.392  -0.727  1.00  0.00    -0.036 A 
HETATM   11  C7  UNK     1       0.928   3.216   0.485  1.00  0.00     0.017 A 
HETATM   12  C9  UNK     1       2.751   4.744  -1.261  1.00  0.00     0.050 C 
HETATM   13  C2  UNK     1       4.348   2.811  -0.989  1.00  0.00     0.029 A 
HETATM   14  C6  UNK     1       4.668   1.442  -0.492  1.00  0.00     0.295 A 
HETATM   15  O3  UNK     1       5.731   0.886  -0.751  1.00  0.00    -0.259 OA
HETATM   16  C12 UNK     1       0.039   2.489   1.286  1.00  0.00     0.038 A 
BRANCH  13  17
HETATM   17  C4  UNK     1       5.464   3.449  -1.777  1.00  0.00     0.084 C 
BRANCH  17  18
HETATM   18  C8  UNK     1       5.581   2.875  -3.158  1.00  0.00    -0.054 A 
HETATM   19  C13 UNK     1       6.835   2.540  -3.670  1.00  0.00     0.007 A 
HETATM   20  C18 UNK     1       6.944   2.006  -4.954  1.00  0.00     0.001 A 
HETATM   21  C20 UNK     1       5.799   1.806  -5.726  1.00  0.00     0.000 A 
HETATM   22  C19 UNK     1       4.545   2.141  -5.214  1.00  0.00     0.001 A 
HETATM   23  C14 UNK     1       4.437   2.675  -3.930  1.00  0.00     0.007 A 
ENDBRANCH  17  18
ENDBRANCH  13  17
ENDBRANCH   4   5
ENDBRANCH   3   4
ENDBRANCH   2   3
BRANCH   2  24
HETATM   24  C17 UNK     1      -2.254  -1.863   3.983  1.00  0.00    -0.008 A 
HETATM   25  C21 UNK     1      -1.721  -1.191   5.083  1.00  0.00     0.014 A 
HETATM   26  C24 UNK     1      -2.102  -1.554   6.374  1.00  0.00     0.007 A 
HETATM   27  C23 UNK     1      -3.017  -2.589   6.567  1.00  0.00    -0.062 A 
HETATM   28  C25 UNK     1      -3.551  -3.261   5.467  1.00  0.00     0.007 A 
HETATM   29  C28 UNK     1      -3.426  -2.975   7.948  1.00  0.00     0.048 C 
HETATM   30  C22 UNK     1      -3.170  -2.898   4.175  1.00  0.00     0.014 A 
ENDBRANCH   2  24
BRANCH   1  31
HETATM   31  N2  UNK     1      -2.349  -1.282   0.401  1.00  0.00    -0.276 N 
HETATM   32  H20 UNK     1      -1.508  -0.745   0.235  1.00  0.00     0.189 HD
BRANCH  31  33
HETATM   33  C26 UNK     1      -3.235  -1.449  -0.676  1.00  0.00     0.083 A 
HETATM   34  C27 UNK     1      -2.911  -0.992  -1.953  1.00  0.00     0.133 A 
HETATM   35  C30 UNK     1      -3.809  -1.170  -3.006  1.00  0.00     0.074 A 
HETATM   36  C31 UNK     1      -5.030  -1.806  -2.781  1.00  0.00     0.105 A 
HETATM   37  C32 UNK     1      -5.353  -2.264  -1.503  1.00  0.00     0.038 A 
HETATM   38  C29 UNK     1      -4.456  -2.085  -0.451  1.00  0.00     0.036 A 
BRANCH  34  39
HETATM   39  N3  UNK     1      -1.673  -0.339  -2.209  1.00  0.00    -0.113 N 
HETATM   40  O4  UNK     1      -1.609   0.907  -2.087  1.00  0.00    -0.532 OA
HETATM   41  O5  UNK     1      -0.684  -1.030  -2.548  1.00  0.00    -0.532 OA
ENDBRANCH  34  39
BRANCH  36  42
HETATM   42  N4  UNK     1      -5.944  -1.989  -3.852  1.00  0.00    -0.116 N 
HETATM   43  O6  UNK     1      -7.036  -2.565  -3.628  1.00  0.00    -0.532 OA
HETATM   44  O7  UNK     1      -5.634  -1.570  -4.994  1.00  0.00    -0.532 OA
ENDBRANCH  36  42
ENDBRANCH  31  33
ENDBRANCH   1  31
TORSDOF 10
