REMARK  1 active torsions:
REMARK  status: ('A' for Active; 'I' for Inactive)
REMARK    1  A    between atoms: C3_7  and  C6_10 
ROOT
HETATM    1 Cl1  UNK     1      -4.237  -2.127   2.583  1.00  0.00    -0.084 Cl
HETATM    2  O1  UNK     1       0.619   0.385   0.417  1.00  0.00    -0.308 OA
HETATM    3  O2  UNK     1      -2.305  -0.675  -2.215  1.00  0.00    -0.287 OA
HETATM    4  C1  UNK     1      -1.571  -0.593   0.030  1.00  0.00     0.050 A 
HETATM    5  C2  UNK     1      -0.532  -0.204   0.875  1.00  0.00     0.090 A 
HETATM    6  C3  UNK     1       0.756   0.596  -0.947  1.00  0.00     0.097 A 
HETATM    7  C4  UNK     1      -1.432  -0.363  -1.417  1.00  0.00     0.187 A 
HETATM    8  C5  UNK     1      -0.174   0.272  -1.859  1.00  0.00     0.094 A 
HETATM    9  C7  UNK     1      -2.721  -1.188   0.552  1.00  0.00     0.042 A 
HETATM   10  C8  UNK     1      -0.639  -0.409   2.250  1.00  0.00     0.040 A 
HETATM   11  C9  UNK     1      -2.825  -1.392   1.928  1.00  0.00     0.035 A 
HETATM   12  C10 UNK     1      -1.787  -1.003   2.776  1.00  0.00     0.026 A 
ENDROOT
BRANCH   6  13
HETATM   13  C6  UNK     1       2.028   1.241  -1.329  1.00  0.00     0.038 A 
HETATM   14  C11 UNK     1       2.473   1.607  -2.588  1.00  0.00     0.022 A 
HETATM   15  C12 UNK     1       3.764   2.210  -2.553  1.00  0.00     0.008 A 
HETATM   16  C13 UNK     1       4.265   2.286  -1.273  1.00  0.00     0.050 A 
HETATM   17  S1  UNK     1       3.182   1.633  -0.119  1.00  0.00    -0.099 SA
ENDBRANCH   6  13
TORSDOF 1
