REMARK  3 active torsions:
REMARK  status: ('A' for Active; 'I' for Inactive)
REMARK    1  A    between atoms: C15_19  and  O3_3 
REMARK    2  A    between atoms: C16_20  and  O4_4 
REMARK    3  A    between atoms: C4_8  and  C9_13 
ROOT
HETATM    1  O1  UNK     1      -0.811   0.351   0.604  1.00  0.00    -0.308 OA
HETATM    2  O2  UNK     1      -2.806  -2.745  -1.138  1.00  0.00    -0.287 OA
HETATM    3  C1  UNK     1      -1.800  -0.300   1.296  1.00  0.00     0.096 A 
HETATM    4  C2  UNK     1      -2.521  -1.367   0.761  1.00  0.00     0.049 A 
HETATM    5  C3  UNK     1      -2.075   0.149   2.588  1.00  0.00    -0.027 A 
HETATM    6  C4  UNK     1      -0.511  -0.077  -0.680  1.00  0.00     0.090 A 
HETATM    7  C5  UNK     1      -3.791  -1.542   2.804  1.00  0.00    -0.060 A 
HETATM    8  C6  UNK     1      -3.519  -1.992   1.511  1.00  0.00     0.025 A 
HETATM    9  C7  UNK     1      -3.071  -0.473   3.341  1.00  0.00     0.016 A 
HETATM   10  C8  UNK     1      -2.212  -1.818  -0.605  1.00  0.00     0.187 A 
HETATM   11  C10 UNK     1      -1.138  -1.087  -1.306  1.00  0.00     0.093 A 
HETATM   12  C11 UNK     1      -1.319   1.289   3.186  1.00  0.00     0.051 C 
HETATM   13  C14 UNK     1      -4.856  -2.202   3.613  1.00  0.00     0.048 C 
ENDROOT
BRANCH   6  14
HETATM   14  C9  UNK     1       0.564   0.695  -1.335  1.00  0.00     0.001 A 
HETATM   15  C12 UNK     1       1.587   1.261  -0.571  1.00  0.00     0.054 A 
HETATM   16  C15 UNK     1       2.602   1.991  -1.190  1.00  0.00     0.102 A 
HETATM   17  C16 UNK     1       2.596   2.158  -2.575  1.00  0.00     0.101 A 
HETATM   18  C17 UNK     1       1.576   1.594  -3.341  1.00  0.00     0.040 A 
HETATM   19  C13 UNK     1       0.561   0.864  -2.722  1.00  0.00     0.017 A 
BRANCH  16  20
HETATM   20  O3  UNK     1       3.593   2.537  -0.431  1.00  0.00    -0.353 OA
HETATM   21  C18 UNK     1       3.380   3.859   0.061  1.00  0.00     0.210 C 
ENDBRANCH  16  20
BRANCH  17  22
HETATM   22  O4  UNK     1       3.582   2.868  -3.191  1.00  0.00    -0.353 OA
HETATM   23  C19 UNK     1       4.735   2.144  -3.614  1.00  0.00     0.210 C 
ENDBRANCH  17  22
ENDBRANCH   6  14
TORSDOF 3
