REMARK  9 active torsions:
REMARK  status: ('A' for Active; 'I' for Inactive)
REMARK    1  A    between atoms: C3_12  and  O1_2 
REMARK    2  A    between atoms: C6_15  and  O1_2 
REMARK    3  A    between atoms: C13_22  and  O3_4 
REMARK    4  A    between atoms: C21_30  and  O3_4 
REMARK       I    between atoms: C19_28  and  N1_8 
REMARK    5  A    between atoms: N1_8  and  N2_9 
REMARK       I    between atoms: C22_31  and  N2_9 
REMARK    6  A    between atoms: C1_10  and  C2_11 
REMARK    7  A    between atoms: C1_10  and  C3_12 
REMARK    8  A    between atoms: C19_28  and  C9_18 
REMARK    9  A    between atoms: C21_30  and  C22_31 
ROOT
HETATM    1  O6  UNK     1      -0.531  -1.016  -1.818  1.00  0.00    -0.269 OA
HETATM    2  N2  UNK     1      -0.740   1.285  -1.575  1.00  0.00    -0.265 N 
HETATM    3  C22 UNK     1      -1.168  -0.025  -1.470  1.00  0.00     0.260 C 
HETATM    4  H21 UNK     1      -1.289   2.087  -1.284  1.00  0.00     0.190 HD
ENDROOT
BRANCH   2   5
HETATM    5  N1  UNK     1       0.499   1.541  -2.108  1.00  0.00    -0.263 N 
HETATM    6  C19 UNK     1       1.592   1.593  -1.268  1.00  0.00     0.276 C 
HETATM    7  O5  UNK     1       1.584   1.432  -0.050  1.00  0.00    -0.266 OA
HETATM    8  H20 UNK     1       0.529   1.705  -3.108  1.00  0.00     0.190 HD
BRANCH   6   9
HETATM    9  C9  UNK     1       2.842   1.875  -1.985  1.00  0.00     0.110 A 
HETATM   10  C15 UNK     1       3.055   1.451  -3.387  1.00  0.00     0.304 A 
HETATM   11  O2  UNK     1       4.283   1.775  -3.959  1.00  0.00    -0.274 OA
HETATM   12  O4  UNK     1       2.197   0.844  -4.019  1.00  0.00    -0.259 OA
HETATM   13  C7  UNK     1       5.275   2.473  -3.242  1.00  0.00     0.089 A 
HETATM   14  C14 UNK     1       6.471   2.753  -3.899  1.00  0.00     0.039 A 
HETATM   15  C5  UNK     1       5.054   2.862  -1.925  1.00  0.00     0.000 A 
HETATM   16  C20 UNK     1       7.472   3.441  -3.216  1.00  0.00     0.022 A 
HETATM   17  C18 UNK     1       7.268   3.840  -1.893  1.00  0.00     0.011 A 
HETATM   18 Br1  UNK     1       8.630   4.773  -0.972  1.00  0.00    -0.051 Br
HETATM   19  C10 UNK     1       6.062   3.552  -1.247  1.00  0.00     0.033 A 
HETATM   20  C8  UNK     1       3.781   2.537  -1.300  1.00  0.00     0.037 A 
ENDBRANCH   6   9
ENDBRANCH   2   5
BRANCH   3  21
HETATM   21  C21 UNK     1      -2.550  -0.111  -0.861  1.00  0.00     0.280 C 
BRANCH  21  22
HETATM   22  O3  UNK     1      -2.974  -1.455  -0.775  1.00  0.00    -0.342 OA
BRANCH  22  23
HETATM   23  C13 UNK     1      -3.831  -1.779   0.250  1.00  0.00     0.069 A 
HETATM   24  C16 UNK     1      -4.719  -0.824   0.745  1.00  0.00     0.039 A 
HETATM   25  C11 UNK     1      -5.589  -1.152   1.784  1.00  0.00     0.039 A 
HETATM   26  C6  UNK     1      -5.571  -2.436   2.330  1.00  0.00     0.068 A 
HETATM   27  C12 UNK     1      -4.682  -3.391   1.835  1.00  0.00     0.039 A 
HETATM   28  C17 UNK     1      -3.813  -3.063   0.795  1.00  0.00     0.039 A 
BRANCH  26  29
HETATM   29  O1  UNK     1      -6.419  -2.756   3.344  1.00  0.00    -0.351 OA
BRANCH  29  30
HETATM   30  C3  UNK     1      -5.975  -3.743   4.275  1.00  0.00     0.175 C 
BRANCH  30  31
HETATM   31  C1  UNK     1      -6.618  -3.467   5.627  1.00  0.00     0.026 C 
BRANCH  31  32
HETATM   32  C2  UNK     1      -6.173  -4.479   6.679  1.00  0.00    -0.002 C 
HETATM   33  C4  UNK     1      -6.782  -4.175   8.038  1.00  0.00     0.005 C 
ENDBRANCH  31  32
ENDBRANCH  30  31
ENDBRANCH  29  30
ENDBRANCH  26  29
ENDBRANCH  22  23
ENDBRANCH  21  22
ENDBRANCH   3  21
TORSDOF 9
