REMARK  4 active torsions:
REMARK  status: ('A' for Active; 'I' for Inactive)
REMARK    1  A    between atoms: C10_14  and  O2_2 
REMARK    2  A    between atoms: C13_17  and  O2_2 
REMARK    3  A    between atoms: C3_7  and  C5_9 
REMARK    4  A    between atoms: C13_17  and  C14_18 
ROOT
HETATM    1  O1  UNK     1      -0.185  -0.620   1.743  1.00  0.00    -0.274 OA
HETATM    2  O3  UNK     1      -1.551  -1.235   3.448  1.00  0.00    -0.259 OA
HETATM    3  C1  UNK     1      -2.357  -0.955  -0.041  1.00  0.00    -0.037 A 
HETATM    4  C2  UNK     1      -1.031  -0.534  -0.537  1.00  0.00     0.005 A 
HETATM    5  C3  UNK     1      -2.522  -1.216   1.273  1.00  0.00     0.024 A 
HETATM    6  C4  UNK     1       0.010  -0.379   0.374  1.00  0.00     0.093 A 
HETATM    7  C6  UNK     1      -0.740  -0.285  -1.887  1.00  0.00     0.017 A 
HETATM    8  C7  UNK     1      -1.406  -1.035   2.246  1.00  0.00     0.295 A 
HETATM    9  C8  UNK     1      -3.466  -1.053  -1.059  1.00  0.00     0.050 C 
HETATM   10  C9  UNK     1       1.294   0.015  -0.010  1.00  0.00     0.075 A 
HETATM   11  C10 UNK     1       1.557   0.263  -1.352  1.00  0.00     0.082 A 
HETATM   12  C11 UNK     1       0.541   0.111  -2.291  1.00  0.00     0.038 A 
ENDROOT
BRANCH  11  13
HETATM   13  O2  UNK     1       2.801   0.647  -1.747  1.00  0.00    -0.279 OA
BRANCH  13  14
HETATM   14  C13 UNK     1       3.000   2.042  -1.756  1.00  0.00     0.263 C 
HETATM   15  O4  UNK     1       2.162   2.876  -1.444  1.00  0.00    -0.265 OA
BRANCH  14  16
HETATM   16  C14 UNK     1       4.410   2.344  -2.209  1.00  0.00     0.107 C 
HETATM   17  C15 UNK     1       4.698   3.835  -2.221  1.00  0.00     0.015 C 
ENDBRANCH  14  16
ENDBRANCH  13  14
ENDBRANCH  11  13
BRANCH   5  18
HETATM   18  C5  UNK     1      -3.801  -1.713   1.900  1.00  0.00     0.041 C 
HETATM   19  C12 UNK     1      -4.682  -0.565   2.341  1.00  0.00     0.010 C 
ENDBRANCH   5  18
TORSDOF 4
