REMARK  5 active torsions:
REMARK  status: ('A' for Active; 'I' for Inactive)
REMARK    1  A    between atoms: C1_11  and  S1_1 
REMARK    2  A    between atoms: N1_8  and  S1_1 
REMARK    3  A    between atoms: C12_22  and  N1_8 
REMARK       I    between atoms: C11_21  and  N2_9 
REMARK    4  A    between atoms: C2_12  and  N2_9 
REMARK    5  A    between atoms: C11_21  and  C8_18 
ROOT
HETATM    1  C1  UNK     1      -1.793  -0.661   2.542  1.00  0.00     0.080 A 
HETATM    2  C2  UNK     1       0.239   0.131   0.836  1.00  0.00     0.035 A 
HETATM    3  C3  UNK     1      -2.072   0.188   1.471  1.00  0.00     0.027 A 
HETATM    4  C4  UNK     1      -0.490  -1.111   2.754  1.00  0.00     0.027 A 
HETATM    5  C5  UNK     1      -1.049   0.587   0.612  1.00  0.00     0.031 A 
HETATM    6  C6  UNK     1       0.534  -0.712   1.894  1.00  0.00     0.031 A 
ENDROOT
BRANCH   2   7
HETATM    7  N2  UNK     1       1.278   0.537  -0.036  1.00  0.00    -0.323 N 
HETATM    8  C11 UNK     1       1.179   1.371  -1.141  1.00  0.00     0.262 C 
HETATM    9  O5  UNK     1       0.175   1.924  -1.586  1.00  0.00    -0.267 OA
HETATM   10  H6  UNK     1       2.195   0.173   0.214  1.00  0.00     0.169 HD
BRANCH   8  11
HETATM   11  C8  UNK     1       2.473   1.567  -1.805  1.00  0.00     0.108 A 
HETATM   12  C10 UNK     1       2.648   2.740  -2.425  1.00  0.00     0.037 A 
HETATM   13  C7  UNK     1       3.898   3.027  -3.112  1.00  0.00    -0.001 A 
HETATM   14  C14 UNK     1       4.124   4.238  -3.772  1.00  0.00     0.014 A 
HETATM   15  C9  UNK     1       4.902   2.065  -3.112  1.00  0.00     0.089 A 
HETATM   16  C17 UNK     1       5.342   4.466  -4.417  1.00  0.00     0.001 A 
HETATM   17  C18 UNK     1       6.339   3.487  -4.407  1.00  0.00     0.003 A 
HETATM   18  C15 UNK     1       6.122   2.278  -3.751  1.00  0.00     0.038 A 
HETATM   19  O1  UNK     1       4.713   0.832  -2.458  1.00  0.00    -0.274 OA
HETATM   20  C13 UNK     1       3.528   0.529  -1.792  1.00  0.00     0.304 A 
HETATM   21  O6  UNK     1       3.371  -0.548  -1.226  1.00  0.00    -0.259 OA
ENDBRANCH   8  11
ENDBRANCH   2   7
BRANCH   1  22
HETATM   22  S1  UNK     1      -3.074  -1.160   3.618  1.00  0.00     0.264 S 
HETATM   23  O2  UNK     1      -2.480  -1.510   4.902  1.00  0.00    -0.200 OA
HETATM   24  O3  UNK     1      -4.128  -0.154   3.566  1.00  0.00    -0.200 OA
BRANCH  22  25
HETATM   25  N1  UNK     1      -3.621  -2.583   2.850  1.00  0.00    -0.262 N 
HETATM   26  H5  UNK     1      -3.250  -3.483   3.181  1.00  0.00     0.180 HD
BRANCH  25  27
HETATM   27  C12 UNK     1      -4.640  -2.641   1.869  1.00  0.00     0.167 A 
HETATM   28  N3  UNK     1      -5.284  -1.560   1.443  1.00  0.00    -0.109 NA
HETATM   29  O4  UNK     1      -6.185  -2.040   0.501  1.00  0.00    -0.216 OA
HETATM   30  C19 UNK     1      -6.049  -3.387   0.396  1.00  0.00     0.079 A 
HETATM   31  C16 UNK     1      -5.072  -3.819   1.253  1.00  0.00     0.087 A 
HETATM   32  C20 UNK     1      -6.931  -4.063  -0.563  1.00  0.00     0.079 C 
ENDBRANCH  25  27
ENDBRANCH  22  25
ENDBRANCH   1  22
TORSDOF 5
