REMARK  2 active torsions:
REMARK  status: ('A' for Active; 'I' for Inactive)
REMARK    1  A    between atoms: C18_23  and  O5_5 
REMARK    2  A    between atoms: C1_6  and  C2_7 
ROOT
HETATM    1  O3  UNK     1      -1.447  -0.155   2.634  1.00  0.00    -0.313 OA
HETATM    2  O4  UNK     1      -1.868  -0.511  -1.399  1.00  0.00    -0.286 OA
HETATM    3  C2  UNK     1      -0.671   0.442   0.424  1.00  0.00     0.055 A 
HETATM    4  C9  UNK     1      -0.588   0.514   1.771  1.00  0.00     0.065 A 
HETATM    5  C10 UNK     1      -1.739  -0.401  -0.187  1.00  0.00     0.198 A 
HETATM    6  C11 UNK     1      -2.637  -1.098   0.745  1.00  0.00     0.049 A 
HETATM    7  C13 UNK     1      -2.442  -0.937   2.112  1.00  0.00     0.092 A 
HETATM    8  C15 UNK     1      -3.671  -1.910   0.270  1.00  0.00     0.021 A 
HETATM    9  C16 UNK     1       0.432   1.320   2.526  1.00  0.00     0.077 C 
HETATM   10  C17 UNK     1      -3.281  -1.588   3.018  1.00  0.00     0.074 A 
HETATM   11  C18 UNK     1      -4.314  -2.400   2.549  1.00  0.00     0.068 A 
HETATM   12  C19 UNK     1      -4.508  -2.561   1.177  1.00  0.00     0.037 A 
ENDROOT
BRANCH   3  13
HETATM   13  C1  UNK     1       0.250   1.159  -0.444  1.00  0.00    -0.017 A 
HETATM   14  C6  UNK     1       1.433   0.550  -0.863  1.00  0.00     0.052 A 
HETATM   15  C3  UNK     1       2.317   1.227  -1.711  1.00  0.00     0.102 A 
HETATM   16  O1  UNK     1       3.422   0.507  -2.090  1.00  0.00    -0.348 OA
HETATM   17  C5  UNK     1       2.036   2.546  -2.092  1.00  0.00     0.102 A 
HETATM   18  C7  UNK     1       3.860   0.776  -3.422  1.00  0.00     0.178 C 
HETATM   19  C4  UNK     1       4.777   1.988  -3.463  1.00  0.00     0.053 C 
HETATM   20  C8  UNK     1       4.242   3.144  -2.631  1.00  0.00     0.178 C 
HETATM   21  O2  UNK     1       2.848   3.342  -2.862  1.00  0.00    -0.348 OA
HETATM   22  C14 UNK     1       0.836   3.142  -1.689  1.00  0.00     0.040 A 
HETATM   23  C12 UNK     1      -0.054   2.451  -0.866  1.00  0.00     0.015 A 
ENDBRANCH   3  13
BRANCH  11  24
HETATM   24  O5  UNK     1      -5.133  -3.036   3.431  1.00  0.00    -0.361 OA
HETATM   25  H16 UNK     1      -5.790  -3.553   2.934  1.00  0.00     0.217 HD
ENDBRANCH  11  24
TORSDOF 2
