REMARK  6 active torsions:
REMARK  status: ('A' for Active; 'I' for Inactive)
REMARK    1  A    between atoms: C12_20  and  O2_2 
REMARK    2  A    between atoms: C14_22  and  O5_5 
REMARK    3  A    between atoms: C23_31  and  O5_5 
REMARK    4  A    between atoms: C12_20  and  C2_10 
REMARK    5  A    between atoms: C11_19  and  C6_14 
REMARK    6  A    between atoms: C14_22  and  C8_16 
ROOT
HETATM    1  O1  UNK     1       2.423  -0.345  -0.127  1.00  0.00    -0.292 OA
HETATM    2  N1  UNK     1      -0.472   1.293  -3.498  1.00  0.00    -0.362 N 
HETATM    3  C1  UNK     1       2.730   2.703  -2.069  1.00  0.00     0.008 C 
HETATM    4  C2  UNK     1       3.311   1.382  -1.544  1.00  0.00     0.164 C 
HETATM    5  C3  UNK     1       1.698   2.393  -3.164  1.00  0.00     0.063 C 
HETATM    6  C4  UNK     1       0.896   0.472  -1.747  1.00  0.00     0.025 C 
HETATM    7  C5  UNK     1       0.695   1.341  -2.760  1.00  0.00     0.020 C 
HETATM    8  C6  UNK     1      -0.184  -0.529  -1.339  1.00  0.00     0.104 C 
HETATM    9  C7  UNK     1       2.218   0.452  -1.042  1.00  0.00     0.172 C 
HETATM   10  C8  UNK     1      -1.326  -0.597  -2.357  1.00  0.00     0.052 C 
HETATM   11  C9  UNK     1       2.119   3.581  -0.966  1.00  0.00     0.011 C 
HETATM   12  C10 UNK     1      -1.441   0.314  -3.352  1.00  0.00     0.018 C 
HETATM   13  C13 UNK     1      -2.556   0.366  -4.361  1.00  0.00     0.069 C 
HETATM   14  H9  UNK     1      -0.582   1.958  -4.255  1.00  0.00     0.165 HD
ENDROOT
BRANCH   8  15
HETATM   15  C11 UNK     1      -0.725  -0.195   0.028  1.00  0.00     0.029 A 
HETATM   16  C15 UNK     1      -0.557  -1.188   1.120  1.00  0.00     0.194 A 
HETATM   17  O7  UNK     1       0.003  -2.261   0.942  1.00  0.00    -0.287 OA
HETATM   18  C17 UNK     1      -1.106  -0.812   2.436  1.00  0.00     0.049 A 
HETATM   19  C18 UNK     1      -1.736   0.425   2.580  1.00  0.00     0.089 A 
HETATM   20  C19 UNK     1      -0.999  -1.678   3.526  1.00  0.00     0.025 A 
HETATM   21  O3  UNK     1      -1.870   1.314   1.543  1.00  0.00    -0.321 OA
HETATM   22  C21 UNK     1      -2.263   0.801   3.816  1.00  0.00     0.039 A 
HETATM   23  C16 UNK     1      -1.354   0.950   0.323  1.00  0.00     0.154 A 
HETATM   24  C24 UNK     1      -2.156  -0.062   4.906  1.00  0.00     0.009 A 
HETATM   25  C22 UNK     1      -1.526  -1.299   4.762  1.00  0.00    -0.061 A 
HETATM   26  C25 UNK     1      -1.415  -2.217   5.932  1.00  0.00     0.048 C 
ENDBRANCH   8  15
BRANCH  10  27
HETATM   27  C14 UNK     1      -2.255  -1.732  -2.235  1.00  0.00     0.292 C 
HETATM   28  O6  UNK     1      -2.066  -2.811  -2.765  1.00  0.00    -0.259 OA
BRANCH  27  29
HETATM   29  O5  UNK     1      -3.296  -1.350  -1.457  1.00  0.00    -0.318 OA
BRANCH  29  30
HETATM   30  C23 UNK     1      -4.293  -2.355  -1.241  1.00  0.00     0.174 C 
HETATM   31  C26 UNK     1      -5.384  -1.785  -0.361  1.00  0.00     0.034 C 
ENDBRANCH  29  30
ENDBRANCH  27  29
ENDBRANCH  10  27
BRANCH   4  32
HETATM   32  C12 UNK     1       4.394   1.639  -0.541  1.00  0.00     0.270 C 
HETATM   33  O4  UNK     1       4.379   1.217   0.607  1.00  0.00    -0.264 OA
BRANCH  32  34
HETATM   34  O2  UNK     1       5.370   2.402  -1.111  1.00  0.00    -0.326 OA
HETATM   35  C20 UNK     1       6.473   2.725  -0.258  1.00  0.00     0.213 C 
ENDBRANCH  32  34
ENDBRANCH   4  32
TORSDOF 6
