REMARK  6 active torsions:
REMARK  status: ('A' for Active; 'I' for Inactive)
REMARK    1  A    between atoms: C3_9  and  N1_4 
REMARK    2  A    between atoms: C8_14  and  N2_5 
REMARK    3  A    between atoms: C17_23  and  N3_6 
REMARK    4  A    between atoms: C8_14  and  N3_6 
REMARK    5  A    between atoms: C3_9  and  C6_12 
REMARK    6  A    between atoms: C3_9  and  C7_13 
ROOT
HETATM    1  N1  UNK     1      -1.559  -1.039  -0.346  1.00  0.00     0.105 N 
HETATM    2  N2  UNK     1      -0.740  -0.591  -3.035  1.00  0.00    -0.355 N 
HETATM    3  C1  UNK     1      -2.314  -0.114  -1.207  1.00  0.00     0.293 C 
HETATM    4  C2  UNK     1      -0.128  -1.019  -0.692  1.00  0.00     0.293 C 
HETATM    5  C4  UNK     1      -2.148  -0.485  -2.681  1.00  0.00     0.155 C 
HETATM    6  C5  UNK     1       0.083  -1.408  -2.155  1.00  0.00     0.155 C 
ENDROOT
BRANCH   2   7
HETATM    7  C8  UNK     1      -0.248  -0.052  -4.177  1.00  0.00     0.174 C 
HETATM    8  S1  UNK     1      -1.204   0.010  -5.554  1.00  0.00    -0.041 SA
BRANCH   7   9
HETATM    9  N3  UNK     1       1.050   0.385  -4.222  1.00  0.00    -0.333 N 
HETATM   10  H14 UNK     1       1.491   0.323  -5.138  1.00  0.00     0.168 HD
BRANCH   9  11
HETATM   11  C17 UNK     1       1.886   0.932  -3.218  1.00  0.00     0.036 A 
HETATM   12  C20 UNK     1       1.319   1.635  -2.174  1.00  0.00     0.067 A 
HETATM   13  C22 UNK     1       2.161   2.164  -1.195  1.00  0.00     0.092 A 
HETATM   14  O1  UNK     1       1.541   2.874  -0.146  1.00  0.00    -0.275 OA
HETATM   15  C23 UNK     1       3.547   2.007  -1.238  1.00  0.00     0.004 A 
HETATM   16  C28 UNK     1       2.280   3.442   0.880  1.00  0.00     0.288 A 
HETATM   17  C26 UNK     1       3.740   3.268   0.820  1.00  0.00     0.090 A 
HETATM   18  O2  UNK     1       1.751   4.061   1.797  1.00  0.00    -0.260 OA
HETATM   19  C25 UNK     1       4.357   2.598  -0.165  1.00  0.00    -0.043 A 
HETATM   20  C27 UNK     1       5.850   2.447  -0.183  1.00  0.00     0.049 C 
HETATM   21  C24 UNK     1       4.086   1.288  -2.314  1.00  0.00     0.017 A 
HETATM   22  C21 UNK     1       3.254   0.751  -3.303  1.00  0.00     0.030 A 
ENDBRANCH   9  11
ENDBRANCH   7   9
ENDBRANCH   2   7
BRANCH   1  23
HETATM   23  C3  UNK     1      -1.751  -0.699   1.063  1.00  0.00     0.289 C 
BRANCH  23  24
HETATM   24  C6  UNK     1      -0.988  -1.631   1.994  1.00  0.00    -0.021 A 
HETATM   25  C11 UNK     1      -0.766  -2.934   1.598  1.00  0.00     0.010 A 
HETATM   26  C15 UNK     1      -0.067  -3.788   2.451  1.00  0.00     0.001 A 
HETATM   27  C18 UNK     1       0.396  -3.320   3.681  1.00  0.00     0.000 A 
HETATM   28  C13 UNK     1       0.159  -1.998   4.058  1.00  0.00     0.001 A 
HETATM   29  C9  UNK     1      -0.540  -1.144   3.205  1.00  0.00     0.010 A 
ENDBRANCH  23  24
BRANCH  23  30
HETATM   30  C7  UNK     1      -3.222  -0.602   1.441  1.00  0.00    -0.021 A 
HETATM   31  C10 UNK     1      -3.862   0.615   1.323  1.00  0.00     0.010 A 
HETATM   32  C14 UNK     1      -5.210   0.704   1.669  1.00  0.00     0.001 A 
HETATM   33  C19 UNK     1      -5.890  -0.426   2.125  1.00  0.00     0.000 A 
HETATM   34  C16 UNK     1      -5.221  -1.645   2.234  1.00  0.00     0.001 A 
HETATM   35  C12 UNK     1      -3.872  -1.734   1.889  1.00  0.00     0.010 A 
ENDBRANCH  23  30
ENDBRANCH   1  23
TORSDOF 6
