REMARK  2 active torsions:
REMARK  status: ('A' for Active; 'I' for Inactive)
REMARK       I    between atoms: C5_13  and  N1_8 
REMARK    1  A    between atoms: C6_14  and  N1_8 
REMARK    2  A    between atoms: C2_10  and  C5_13 
ROOT
HETATM    1  O2  UNK     1       0.803  -0.483   1.705  1.00  0.00    -0.267 OA
HETATM    2  N1  UNK     1      -1.127  -0.476   0.356  1.00  0.00    -0.320 N 
HETATM    3  C5  UNK     1       0.214  -0.266   0.648  1.00  0.00     0.262 C 
HETATM    4  H3  UNK     1      -1.469  -0.224  -0.568  1.00  0.00     0.169 HD
ENDROOT
BRANCH   3   5
HETATM    5  C2  UNK     1       0.950   0.283  -0.497  1.00  0.00     0.108 A 
HETATM    6  C4  UNK     1       1.991   1.073  -0.207  1.00  0.00     0.037 A 
HETATM    7  C1  UNK     1       2.782   1.664  -1.275  1.00  0.00     0.001 A 
HETATM    8  C3  UNK     1       2.439   1.394  -2.596  1.00  0.00     0.089 A 
HETATM    9  C7  UNK     1       3.876   2.495  -1.019  1.00  0.00     0.038 A 
HETATM   10  O1  UNK     1       1.343   0.562  -2.895  1.00  0.00    -0.274 OA
HETATM   11  C9  UNK     1       3.156   1.930  -3.664  1.00  0.00     0.040 A 
HETATM   12  C8  UNK     1       0.567  -0.018  -1.894  1.00  0.00     0.304 A 
HETATM   13  O3  UNK     1      -0.386  -0.741  -2.164  1.00  0.00    -0.259 OA
HETATM   14  C11 UNK     1       4.245   2.757  -3.400  1.00  0.00     0.026 A 
HETATM   15  C10 UNK     1       4.605   3.039  -2.081  1.00  0.00     0.035 A 
HETATM   16 Cl1  UNK     1       5.953   4.061  -1.761  1.00  0.00    -0.084 Cl
ENDBRANCH   3   5
BRANCH   2  17
HETATM   17  C6  UNK     1      -2.127  -0.993   1.215  1.00  0.00     0.077 A 
HETATM   18  C12 UNK     1      -3.421  -1.135   0.743  1.00  0.00     0.184 A 
HETATM   19  F1  UNK     1      -3.745  -0.794  -0.513  1.00  0.00    -0.200 F 
HETATM   20  C14 UNK     1      -4.404  -1.645   1.591  1.00  0.00     0.195 A 
HETATM   21  F2  UNK     1      -5.660  -1.790   1.150  1.00  0.00    -0.199 F 
HETATM   22  C16 UNK     1      -4.078  -2.006   2.899  1.00  0.00     0.158 A 
HETATM   23  C15 UNK     1      -2.770  -1.856   3.358  1.00  0.00     0.048 A 
HETATM   24  F3  UNK     1      -5.022  -2.496   3.713  1.00  0.00    -0.203 F 
HETATM   25  C13 UNK     1      -1.787  -1.346   2.510  1.00  0.00     0.036 A 
ENDBRANCH   2  17
TORSDOF 2
