REMARK  4 active torsions:
REMARK  status: ('A' for Active; 'I' for Inactive)
REMARK    1  A    between atoms: C1_9  and  N1_6 
REMARK    2  A    between atoms: C5_13  and  N1_6 
REMARK    3  A    between atoms: C4_12  and  N2_7 
REMARK       I    between atoms: C16_24  and  N3_8 
REMARK    4  A    between atoms: C16_24  and  C7_15 
ROOT
HETATM    1  O1  UNK     1       2.558   1.368  -2.207  1.00  0.00    -0.273 OA
HETATM    2  O2  UNK     1       1.342   0.976  -4.097  1.00  0.00    -0.257 OA
HETATM    3  C1  UNK     1       0.236   0.696  -0.666  1.00  0.00     0.085 A 
HETATM    4  C2  UNK     1       1.507   1.097  -0.008  1.00  0.00     0.027 A 
HETATM    5  C3  UNK     1       2.616   1.415  -0.800  1.00  0.00     0.092 A 
HETATM    6  C4  UNK     1       0.256   0.678  -2.009  1.00  0.00     0.205 A 
HETATM    7  C6  UNK     1       1.680   1.184   1.384  1.00  0.00     0.017 A 
HETATM    8  C8  UNK     1       3.846   1.800  -0.258  1.00  0.00     0.038 A 
HETATM    9  C9  UNK     1       1.398   1.010  -2.873  1.00  0.00     0.324 A 
HETATM   10  C11 UNK     1       2.907   1.569   1.942  1.00  0.00     0.001 A 
HETATM   11  C12 UNK     1       3.988   1.877   1.122  1.00  0.00     0.003 A 
ENDROOT
BRANCH   3  12
HETATM   12  N1  UNK     1      -0.833   0.382   0.133  1.00  0.00    -0.352 N 
HETATM   13  H1  UNK     1      -1.233   1.180   0.617  1.00  0.00     0.166 HD
BRANCH  12  14
HETATM   14  C5  UNK     1      -1.184  -0.864   0.655  1.00  0.00     0.048 A 
HETATM   15  C10 UNK     1      -0.391  -1.986   0.369  1.00  0.00     0.030 A 
HETATM   16  C14 UNK     1      -0.724  -3.240   0.879  1.00  0.00     0.002 A 
HETATM   17  C15 UNK     1      -1.855  -3.388   1.682  1.00  0.00     0.001 A 
HETATM   18  C13 UNK     1      -2.653  -2.282   1.975  1.00  0.00     0.019 A 
HETATM   19  C7  UNK     1      -2.319  -1.027   1.464  1.00  0.00     0.058 A 
BRANCH  19  20
HETATM   20  C16 UNK     1      -3.173   0.109   1.788  1.00  0.00     0.251 C 
HETATM   21  O5  UNK     1      -4.147   0.407   1.078  1.00  0.00    -0.268 OA
HETATM   22  N3  UNK     1      -2.868   0.838   2.932  1.00  0.00    -0.366 N 
HETATM   23  H10 UNK     1      -2.079   0.604   3.526  1.00  0.00     0.159 HD
HETATM   24  H11 UNK     1      -3.432   1.635   3.209  1.00  0.00     0.159 HD
ENDBRANCH  19  20
ENDBRANCH  12  14
ENDBRANCH   3  12
BRANCH   6  25
HETATM   25  N2  UNK     1      -0.947   0.298  -2.678  1.00  0.00    -0.107 N 
HETATM   26  O3  UNK     1      -1.919   0.014  -1.968  1.00  0.00    -0.531 OA
HETATM   27  O4  UNK     1      -0.922   0.283  -3.914  1.00  0.00    -0.531 OA
ENDBRANCH   6  25
TORSDOF 4
