REMARK  2 active torsions:
REMARK  status: ('A' for Active; 'I' for Inactive)
REMARK       I    between atoms: C5_11  and  N1_6 
REMARK    1  A    between atoms: C7_13  and  N1_6 
REMARK    2  A    between atoms: C2_8  and  C5_11 
ROOT
HETATM    1  O2  UNK     1      -1.042  -0.839  -1.784  1.00  0.00    -0.267 OA
HETATM    2  N1  UNK     1      -0.979  -0.362   0.521  1.00  0.00    -0.320 N 
HETATM    3  C5  UNK     1      -0.512  -0.354  -0.786  1.00  0.00     0.262 C 
HETATM    4  H4  UNK     1      -0.429   0.106   1.237  1.00  0.00     0.169 HD
ENDROOT
BRANCH   3   5
HETATM    5  C2  UNK     1       0.776   0.339  -0.909  1.00  0.00     0.108 A 
HETATM    6  C4  UNK     1       1.014   0.942  -2.080  1.00  0.00     0.037 A 
HETATM    7  C1  UNK     1       2.264   1.653  -2.297  1.00  0.00    -0.001 A 
HETATM    8  C3  UNK     1       3.202   1.695  -1.271  1.00  0.00     0.089 A 
HETATM    9  C6  UNK     1       2.554   2.297  -3.503  1.00  0.00     0.014 A 
HETATM   10  O1  UNK     1       2.946   1.058  -0.041  1.00  0.00    -0.274 OA
HETATM   11  C9  UNK     1       4.419   2.359  -1.416  1.00  0.00     0.038 A 
HETATM   12  C8  UNK     1       1.760   0.370   0.197  1.00  0.00     0.304 A 
HETATM   13  O3  UNK     1       1.546  -0.183   1.270  1.00  0.00    -0.259 OA
HETATM   14  C11 UNK     1       4.701   2.998  -2.621  1.00  0.00     0.003 A 
HETATM   15  C10 UNK     1       3.770   2.968  -3.662  1.00  0.00     0.001 A 
ENDBRANCH   3   5
BRANCH   2  16
HETATM   16  C7  UNK     1      -2.181  -0.935   1.006  1.00  0.00     0.074 A 
HETATM   17  C12 UNK     1      -2.482  -0.842   2.354  1.00  0.00     0.144 A 
HETATM   18  F1  UNK     1      -1.657  -0.221   3.210  1.00  0.00    -0.204 F 
HETATM   19  C14 UNK     1      -3.665  -1.407   2.828  1.00  0.00     0.063 A 
HETATM   20  C16 UNK     1      -4.531  -2.056   1.947  1.00  0.00     0.014 A 
HETATM   21 Br1  UNK     1      -6.135  -2.821   2.591  1.00  0.00    -0.051 Br
HETATM   22  C15 UNK     1      -4.212  -2.140   0.592  1.00  0.00     0.021 A 
HETATM   23  C13 UNK     1      -3.028  -1.575   0.118  1.00  0.00     0.034 A 
ENDBRANCH   2  16
TORSDOF 2
