REMARK  6 active torsions:
REMARK  status: ('A' for Active; 'I' for Inactive)
REMARK    1  A    between atoms: C7_14  and  S1_1 
REMARK    2  A    between atoms: O2_3  and  S1_1 
REMARK    3  A    between atoms: C2_9  and  O2_3 
REMARK    4  A    between atoms: C14_21  and  O4_5 
REMARK    5  A    between atoms: C23_30  and  O4_5 
REMARK    6  A    between atoms: C1_8  and  C4_11 
ROOT
HETATM    1  O1  UNK     1      -2.027  -0.043   2.436  1.00  0.00    -0.306 OA
HETATM    2  O3  UNK     1      -3.294  -1.907  -0.959  1.00  0.00    -0.284 OA
HETATM    3  C1  UNK     1      -1.401   0.168   1.218  1.00  0.00     0.125 A 
HETATM    4  C2  UNK     1      -1.762  -0.418   0.062  1.00  0.00     0.175 A 
HETATM    5  C3  UNK     1      -3.590  -1.553   1.354  1.00  0.00     0.051 A 
HETATM    6  C5  UNK     1      -3.105  -0.888   2.479  1.00  0.00     0.090 A 
HETATM    7  C6  UNK     1      -2.919  -1.345   0.062  1.00  0.00     0.222 A 
HETATM    8  C8  UNK     1      -4.693  -2.404   1.458  1.00  0.00     0.018 A 
HETATM    9  C11 UNK     1      -3.723  -1.071   3.717  1.00  0.00     0.038 A 
HETATM   10  C17 UNK     1      -5.309  -2.584   2.697  1.00  0.00     0.001 A 
HETATM   11  C19 UNK     1      -4.825  -1.920   3.824  1.00  0.00     0.003 A 
ENDROOT
BRANCH   4  12
HETATM   12  O2  UNK     1      -1.096  -0.210  -1.126  1.00  0.00    -0.222 OA
BRANCH  12  13
HETATM   13  S1  UNK     1       0.142  -1.178  -1.535  1.00  0.00     0.303 S 
HETATM   14  O5  UNK     1       1.039  -1.316  -0.404  1.00  0.00    -0.193 OA
HETATM   15  O6  UNK     1      -0.395  -2.337  -2.222  1.00  0.00    -0.193 OA
BRANCH  13  16
HETATM   16  C7  UNK     1       1.023  -0.231  -2.737  1.00  0.00     0.086 A 
HETATM   17  C12 UNK     1       2.043   0.632  -2.335  1.00  0.00     0.026 A 
HETATM   18  C20 UNK     1       2.737   1.382  -3.284  1.00  0.00     0.008 A 
HETATM   19  C18 UNK     1       2.412   1.270  -4.635  1.00  0.00    -0.062 A 
HETATM   20  C21 UNK     1       1.393   0.407  -5.038  1.00  0.00     0.008 A 
HETATM   21  C22 UNK     1       3.155   2.072  -5.650  1.00  0.00     0.048 C 
HETATM   22  C13 UNK     1       0.698  -0.343  -4.089  1.00  0.00     0.026 A 
ENDBRANCH  13  16
ENDBRANCH  12  13
ENDBRANCH   4  12
BRANCH   3  23
HETATM   23  C4  UNK     1      -0.261   1.097   1.311  1.00  0.00     0.001 A 
HETATM   24  C10 UNK     1       0.812   0.802   2.153  1.00  0.00     0.017 A 
HETATM   25  C16 UNK     1       1.892   1.680   2.240  1.00  0.00     0.037 A 
HETATM   26  C14 UNK     1       1.900   2.853   1.485  1.00  0.00     0.068 A 
HETATM   27  C15 UNK     1       0.827   3.148   0.644  1.00  0.00     0.037 A 
HETATM   28  C9  UNK     1      -0.253   2.270   0.557  1.00  0.00     0.017 A 
BRANCH  26  29
HETATM   29  O4  UNK     1       2.954   3.710   1.569  1.00  0.00    -0.352 OA
BRANCH  29  30
HETATM   30  C23 UNK     1       3.260   4.479   0.407  1.00  0.00     0.171 C 
HETATM   31  C24 UNK     1       4.745   4.774   0.388  1.00  0.00     0.034 C 
ENDBRANCH  29  30
ENDBRANCH  26  29
ENDBRANCH   3  23
TORSDOF 6
