REMARK  5 active torsions:
REMARK  status: ('A' for Active; 'I' for Inactive)
REMARK    1  A    between atoms: C12_18  and  N1_5 
REMARK    2  A    between atoms: C4_10  and  N1_5 
REMARK    3  A    between atoms: C12_18  and  N2_6 
REMARK    4  A    between atoms: C8_14  and  N2_6 
REMARK    5  A    between atoms: C10_16  and  C8_14 
ROOT
HETATM    1  N1  UNK     1       0.252   0.388  -0.022  1.00  0.00    -0.333 N 
HETATM    2  H7  UNK     1       1.168   0.369   0.418  1.00  0.00     0.168 HD
ENDROOT
BRANCH   1   3
HETATM    3  C12 UNK     1       0.169   1.269  -1.115  1.00  0.00     0.172 C 
HETATM    4  S1  UNK     1      -1.218   1.889  -1.832  1.00  0.00    -0.041 SA
BRANCH   3   5
HETATM    5  N2  UNK     1       1.386   1.698  -1.628  1.00  0.00    -0.363 N 
HETATM    6  H11 UNK     1       1.332   2.342  -2.413  1.00  0.00     0.162 HD
BRANCH   5   7
HETATM    7  C8  UNK     1       2.710   1.335  -1.159  1.00  0.00     0.162 C 
BRANCH   7   8
HETATM    8  C10 UNK     1       3.791   2.034  -1.931  1.00  0.00    -0.023 A 
HETATM    9  C14 UNK     1       4.346   1.477  -3.079  1.00  0.00     0.018 A 
HETATM   10 Br1  UNK     1       3.776  -0.203  -3.750  1.00  0.00    -0.051 Br
HETATM   11  C16 UNK     1       5.349   2.161  -3.765  1.00  0.00     0.019 A 
HETATM   12  C18 UNK     1       5.793   3.399  -3.300  1.00  0.00     0.001 A 
HETATM   13  C17 UNK     1       5.234   3.952  -2.149  1.00  0.00     0.001 A 
HETATM   14  C15 UNK     1       4.231   3.268  -1.462  1.00  0.00     0.010 A 
ENDBRANCH   7   8
ENDBRANCH   5   7
ENDBRANCH   3   5
ENDBRANCH   1   3
BRANCH   1  15
HETATM   15  C4  UNK     1      -0.716  -0.250   0.753  1.00  0.00     0.036 A 
HETATM   16  C5  UNK     1      -1.905  -0.677   0.172  1.00  0.00     0.067 A 
HETATM   17  C2  UNK     1      -2.861  -1.314   0.966  1.00  0.00     0.092 A 
HETATM   18  C1  UNK     1      -2.667  -1.539   2.330  1.00  0.00     0.004 A 
HETATM   19  O1  UNK     1      -4.045  -1.725   0.321  1.00  0.00    -0.275 OA
HETATM   20  C3  UNK     1      -3.726  -2.217   3.089  1.00  0.00    -0.043 A 
HETATM   21  C6  UNK     1      -1.462  -1.101   2.896  1.00  0.00     0.017 A 
HETATM   22  C11 UNK     1      -3.548  -2.474   4.557  1.00  0.00     0.049 C 
HETATM   23  C9  UNK     1      -4.842  -2.597   2.449  1.00  0.00     0.090 A 
HETATM   24  C13 UNK     1      -5.061  -2.367   1.011  1.00  0.00     0.288 A 
HETATM   25  O2  UNK     1      -6.095  -2.728   0.460  1.00  0.00    -0.260 OA
HETATM   26  C7  UNK     1      -0.495  -0.461   2.112  1.00  0.00     0.030 A 
ENDBRANCH   1  15
TORSDOF 5
