REMARK  1 active torsions:
REMARK  status: ('A' for Active; 'I' for Inactive)
REMARK    1  A    between atoms: C12_17  and  C5_10 
ROOT
HETATM    1  O1  UNK     1       0.731   1.252  -2.443  1.00  0.00    -0.332 OA
HETATM    2  O2  UNK     1      -1.098  -0.735   1.606  1.00  0.00    -0.274 OA
HETATM    3  O3  UNK     1       3.377   1.296   0.013  1.00  0.00    -0.289 OA
HETATM    4  O4  UNK     1      -1.981  -1.752   3.459  1.00  0.00    -0.260 OA
HETATM    5  C1  UNK     1       2.072   1.020  -2.009  1.00  0.00     0.125 C 
HETATM    6  C2  UNK     1      -0.151   0.359  -0.352  1.00  0.00     0.048 A 
HETATM    7  C3  UNK     1       2.275   1.090  -0.491  1.00  0.00     0.196 C 
HETATM    8  C4  UNK     1      -0.250   0.615  -1.727  1.00  0.00     0.084 A 
HETATM    9  C5  UNK     1       1.053   0.852   0.335  1.00  0.00     0.043 C 
HETATM   10  C6  UNK     1       2.908   2.127  -2.664  1.00  0.00     0.055 C 
HETATM   11  C7  UNK     1       2.551  -0.344  -2.521  1.00  0.00     0.055 C 
HETATM   12  C8  UNK     1      -1.202  -0.359   0.244  1.00  0.00     0.103 A 
HETATM   13  C9  UNK     1      -2.339  -0.747  -0.472  1.00  0.00    -0.001 A 
HETATM   14  C10 UNK     1      -1.392   0.256  -2.451  1.00  0.00     0.039 A 
HETATM   15  C11 UNK     1      -2.436  -0.421  -1.825  1.00  0.00     0.017 A 
HETATM   16  C13 UNK     1      -3.395  -1.482   0.205  1.00  0.00     0.020 A 
HETATM   17  C14 UNK     1      -3.279  -1.808   1.494  1.00  0.00     0.083 A 
HETATM   18  C15 UNK     1      -2.087  -1.444   2.278  1.00  0.00     0.288 A 
ENDROOT
BRANCH   9  19
HETATM   19  C12 UNK     1       1.115   1.222   1.623  1.00  0.00     0.096 C 
HETATM   20  N1  UNK     1       2.191   1.680   2.301  1.00  0.00    -0.407 N 
HETATM   21  H12 UNK     1       3.091   1.784   1.850  1.00  0.00     0.155 HD
HETATM   22  H13 UNK     1       2.096   1.920   3.280  1.00  0.00     0.155 HD
ENDBRANCH   9  19
TORSDOF 1
