REMARK  4 active torsions:
REMARK  status: ('A' for Active; 'I' for Inactive)
REMARK    1  A    between atoms: C13_16  and  O3_3 
REMARK    2  A    between atoms: C1_4  and  C2_5 
REMARK    3  A    between atoms: C1_4  and  C3_6 
REMARK    4  A    between atoms: C3_6  and  C6_9 
ROOT
HETATM    1  O1  UNK     1      -0.492   0.298  -1.790  1.00  0.00    -0.274 OA
HETATM    2  O2  UNK     1      -2.645  -0.397  -1.597  1.00  0.00    -0.259 OA
HETATM    3  C2  UNK     1      -1.475  -0.011   0.442  1.00  0.00     0.024 A 
HETATM    4  C4  UNK     1      -0.311   0.330   1.035  1.00  0.00    -0.037 A 
HETATM    5  C5  UNK     1       0.844   0.720   0.199  1.00  0.00     0.005 A 
HETATM    6  C7  UNK     1       0.713   0.688  -1.186  1.00  0.00     0.092 A 
HETATM    7  C8  UNK     1      -1.604  -0.055  -1.043  1.00  0.00     0.295 A 
HETATM    8  C9  UNK     1      -0.100   0.325   2.529  1.00  0.00     0.050 C 
HETATM    9  C10 UNK     1       2.081   1.136   0.715  1.00  0.00     0.017 A 
HETATM   10  C12 UNK     1       1.754   1.040  -2.048  1.00  0.00     0.075 A 
HETATM   11  C13 UNK     1       2.973   1.443  -1.515  1.00  0.00     0.070 A 
HETATM   12  C14 UNK     1       3.136   1.493  -0.134  1.00  0.00     0.038 A 
ENDROOT
BRANCH   3  13
HETATM   13  C1  UNK     1      -2.744  -0.366   1.174  1.00  0.00     0.045 C 
BRANCH  13  14
HETATM   14  C3  UNK     1      -2.819  -1.860   1.459  1.00  0.00     0.004 C 
BRANCH  14  15
HETATM   15  C6  UNK     1      -4.097  -2.200   2.228  1.00  0.00    -0.004 C 
HETATM   16  C11 UNK     1      -4.173  -3.683   2.555  1.00  0.00     0.005 C 
ENDBRANCH  14  15
ENDBRANCH  13  14
ENDBRANCH   3  13
BRANCH  11  17
HETATM   17  O3  UNK     1       3.998   1.791  -2.338  1.00  0.00    -0.356 OA
HETATM   18  C15 UNK     1       3.760   1.716  -3.743  1.00  0.00     0.210 C 
ENDBRANCH  11  17
TORSDOF 4
