REMARK  3 active torsions:
REMARK  status: ('A' for Active; 'I' for Inactive)
REMARK    1  A    between atoms: C5_9  and  O1_2 
REMARK    2  A    between atoms: C8_12  and  O1_2 
REMARK    3  A    between atoms: C11_15  and  C8_12 
ROOT
HETATM    1 Cl1  UNK     1      -0.932   0.725  -2.994  1.00  0.00    -0.081 Cl
HETATM    2  O2  UNK     1      -3.643  -1.784   0.483  1.00  0.00    -0.275 OA
HETATM    3  O3  UNK     1      -4.936  -2.946   1.969  1.00  0.00    -0.260 OA
HETATM    4  C1  UNK     1      -1.645  -0.631   1.285  1.00  0.00     0.007 A 
HETATM    5  C2  UNK     1      -2.507  -0.985   0.246  1.00  0.00     0.092 A 
HETATM    6  C3  UNK     1      -1.943  -1.110   2.642  1.00  0.00    -0.043 A 
HETATM    7  C4  UNK     1      -0.536   0.165   0.967  1.00  0.00     0.053 A 
HETATM    8  C5  UNK     1      -0.312   0.586  -0.349  1.00  0.00     0.091 A 
HETATM    9  C6  UNK     1      -2.296  -0.573  -1.071  1.00  0.00     0.065 A 
HETATM   10  C7  UNK     1      -1.191   0.218  -1.366  1.00  0.00     0.070 A 
HETATM   11  C9  UNK     1      -3.031  -1.869   2.837  1.00  0.00     0.090 A 
HETATM   12  C10 UNK     1      -1.036  -0.746   3.781  1.00  0.00     0.049 C 
HETATM   13  C12 UNK     1      -3.950  -2.251   1.752  1.00  0.00     0.288 A 
ENDROOT
BRANCH   8  14
HETATM   14  O1  UNK     1       0.781   1.360  -0.609  1.00  0.00    -0.345 OA
BRANCH  14  15
HETATM   15  C8  UNK     1       2.056   0.800  -0.306  1.00  0.00     0.214 C 
BRANCH  15  16
HETATM   16  C11 UNK     1       3.040   1.409  -1.256  1.00  0.00    -0.034 A 
HETATM   17  C14 UNK     1       3.700   2.585  -0.910  1.00  0.00     0.009 A 
HETATM   18  C16 UNK     1       4.616   3.153  -1.795  1.00  0.00     0.001 A 
HETATM   19  C17 UNK     1       4.868   2.542  -3.024  1.00  0.00     0.000 A 
HETATM   20  C15 UNK     1       4.205   1.365  -3.367  1.00  0.00     0.001 A 
HETATM   21  C13 UNK     1       3.289   0.797  -2.481  1.00  0.00     0.009 A 
ENDBRANCH  15  16
ENDBRANCH  14  15
ENDBRANCH   8  14
TORSDOF 3
