REMARK  7 active torsions:
REMARK  status: ('A' for Active; 'I' for Inactive)
REMARK    1  A    between atoms: C12_21  and  O2_4 
REMARK    2  A    between atoms: C19_28  and  O2_4 
REMARK    3  A    between atoms: C15_24  and  O3_5 
REMARK    4  A    between atoms: C20_29  and  O3_5 
REMARK    5  A    between atoms: C18_27  and  O4_6 
REMARK    6  A    between atoms: C22_31  and  O4_6 
REMARK    7  A    between atoms: C3_12  and  C8_17 
ROOT
HETATM    1 Cl1  UNK     1       5.107   0.945  -1.325  1.00  0.00    -0.081 Cl
HETATM    2  O1  UNK     1      -0.522   2.431  -0.508  1.00  0.00    -0.335 OA
HETATM    3  C1  UNK     1       1.155   2.074   1.918  1.00  0.00    -0.015 C 
HETATM    4  C2  UNK     1      -0.232   2.762   1.895  1.00  0.00     0.057 C 
HETATM    5  C3  UNK     1      -1.171   2.273   0.770  1.00  0.00     0.095 C 
HETATM    6  C4  UNK     1       1.656   1.906   0.493  1.00  0.00    -0.015 A 
HETATM    7  C5  UNK     1       1.103   0.700   2.614  1.00  0.00     0.020 C 
HETATM    8  C6  UNK     1       2.095   2.986   2.744  1.00  0.00     0.020 C 
HETATM    9  C7  UNK     1       0.804   2.104  -0.601  1.00  0.00     0.080 A 
HETATM   10  C9  UNK     1      -2.375   3.239   0.699  1.00  0.00     0.052 C 
HETATM   11  C10 UNK     1       2.989   1.535   0.233  1.00  0.00     0.037 A 
HETATM   12  C11 UNK     1       1.285   1.981  -1.912  1.00  0.00     0.076 A 
HETATM   13  C14 UNK     1       3.462   1.399  -1.074  1.00  0.00     0.068 A 
HETATM   14  C15 UNK     1       2.611   1.629  -2.147  1.00  0.00     0.103 A 
ENDROOT
BRANCH   5  15
HETATM   15  C8  UNK     1      -1.747   0.864   0.956  1.00  0.00     0.012 A 
HETATM   16  C12 UNK     1      -2.057   0.072  -0.148  1.00  0.00     0.091 A 
HETATM   17  C16 UNK     1      -2.580  -1.207   0.039  1.00  0.00     0.077 A 
HETATM   18  C18 UNK     1      -2.793  -1.692   1.329  1.00  0.00     0.103 A 
HETATM   19  C17 UNK     1      -2.483  -0.897   2.433  1.00  0.00     0.068 A 
HETATM   20  C13 UNK     1      -1.960   0.382   2.246  1.00  0.00     0.040 A 
HETATM   21 Cl2  UNK     1      -2.738  -1.472   4.040  1.00  0.00    -0.081 Cl
BRANCH  16  22
HETATM   22  O2  UNK     1      -1.855   0.531  -1.415  1.00  0.00    -0.279 OA
BRANCH  22  23
HETATM   23  C19 UNK     1      -3.021   0.590  -2.195  1.00  0.00     0.260 C 
HETATM   24  O5  UNK     1      -4.144   0.270  -1.828  1.00  0.00    -0.265 OA
HETATM   25  C21 UNK     1      -2.695   1.104  -3.565  1.00  0.00     0.126 C 
ENDBRANCH  22  23
ENDBRANCH  16  22
BRANCH  18  26
HETATM   26  O4  UNK     1      -3.307  -2.945   1.482  1.00  0.00    -0.277 OA
BRANCH  26  27
HETATM   27  C22 UNK     1      -2.335  -3.955   1.561  1.00  0.00     0.260 C 
HETATM   28  O7  UNK     1      -1.124  -3.791   1.501  1.00  0.00    -0.265 OA
HETATM   29  C24 UNK     1      -2.998  -5.291   1.728  1.00  0.00     0.126 C 
ENDBRANCH  26  27
ENDBRANCH  18  26
ENDBRANCH   5  15
BRANCH  14  30
HETATM   30  O3  UNK     1       3.041   1.510  -3.434  1.00  0.00    -0.277 OA
BRANCH  30  31
HETATM   31  C20 UNK     1       2.894   0.221  -3.971  1.00  0.00     0.260 C 
HETATM   32  O6  UNK     1       2.431  -0.749  -3.386  1.00  0.00    -0.265 OA
HETATM   33  C23 UNK     1       3.395   0.194  -5.384  1.00  0.00     0.126 C 
ENDBRANCH  30  31
ENDBRANCH  14  30
TORSDOF 7
