REMARK  5 active torsions:
REMARK  status: ('A' for Active; 'I' for Inactive)
REMARK    1  A    between atoms: C16_24  and  O4_4 
REMARK    2  A    between atoms: C22_30  and  O4_4 
REMARK       I    between atoms: C5_13  and  N1_7 
REMARK       I    between atoms: C17_25  and  N2_8 
REMARK    3  A    between atoms: C9_17  and  N2_8 
REMARK    4  A    between atoms: C5_13  and  C6_14 
REMARK    5  A    between atoms: C14_22  and  C17_25 
ROOT
HETATM    1  O5  UNK     1       0.679   1.690   1.446  1.00  0.00    -0.267 OA
HETATM    2  N2  UNK     1       0.180  -0.177   0.100  1.00  0.00    -0.323 N 
HETATM    3  C17 UNK     1       0.844   0.992   0.446  1.00  0.00     0.262 C 
HETATM    4  H14 UNK     1       0.451  -0.651  -0.758  1.00  0.00     0.169 HD
ENDROOT
BRANCH   2   5
HETATM    5  C9  UNK     1      -0.844  -0.836   0.823  1.00  0.00     0.035 A 
HETATM    6  C10 UNK     1      -1.277  -0.300   2.024  1.00  0.00     0.030 A 
HETATM    7  C7  UNK     1      -2.285  -0.950   2.736  1.00  0.00     0.019 A 
HETATM    8  C6  UNK     1      -2.846  -2.125   2.236  1.00  0.00     0.032 A 
HETATM    9  C8  UNK     1      -2.398  -2.651   1.024  1.00  0.00     0.019 A 
HETATM   10  C11 UNK     1      -1.389  -2.002   0.313  1.00  0.00     0.030 A 
BRANCH   8  11
HETATM   11  C5  UNK     1      -3.909  -2.809   2.985  1.00  0.00     0.253 C 
HETATM   12  N1  UNK     1      -5.233  -2.455   2.719  1.00  0.00    -0.344 N 
HETATM   13  C1  UNK     1      -6.315  -3.051   3.501  1.00  0.00     0.152 C 
HETATM   14  C2  UNK     1      -5.673  -1.452   1.742  1.00  0.00     0.152 C 
HETATM   15  C3  UNK     1      -7.426  -3.540   2.584  1.00  0.00     0.187 C 
HETATM   16  O1  UNK     1      -7.876  -2.473   1.745  1.00  0.00    -0.388 OA
HETATM   17  C4  UNK     1      -6.821  -2.003   0.903  1.00  0.00     0.187 C 
HETATM   18  O2  UNK     1      -3.544  -3.650   3.805  1.00  0.00    -0.267 OA
ENDBRANCH   8  11
ENDBRANCH   2   5
BRANCH   3  19
HETATM   19  C14 UNK     1       1.849   1.374  -0.552  1.00  0.00     0.108 A 
HETATM   20  C15 UNK     1       2.914   2.042  -0.093  1.00  0.00     0.037 A 
HETATM   21  C12 UNK     1       3.965   2.464  -1.006  1.00  0.00     0.002 A 
HETATM   22  C13 UNK     1       3.842   2.163  -2.358  1.00  0.00     0.123 A 
HETATM   23  C18 UNK     1       5.094   3.162  -0.570  1.00  0.00     0.014 A 
HETATM   24  O3  UNK     1       2.719   1.460  -2.836  1.00  0.00    -0.271 OA
HETATM   25  C16 UNK     1       4.813   2.539  -3.285  1.00  0.00     0.103 A 
HETATM   26  C19 UNK     1       1.698   1.043  -1.986  1.00  0.00     0.304 A 
HETATM   27  O6  UNK     1       0.724   0.431  -2.411  1.00  0.00    -0.259 OA
HETATM   28  C20 UNK     1       5.936   3.235  -2.842  1.00  0.00     0.040 A 
HETATM   29  C21 UNK     1       6.077   3.545  -1.488  1.00  0.00     0.004 A 
BRANCH  25  30
HETATM   30  O4  UNK     1       4.680   2.239  -4.604  1.00  0.00    -0.349 OA
BRANCH  30  31
HETATM   31  C22 UNK     1       5.273   3.139  -5.539  1.00  0.00     0.171 C 
HETATM   32  C23 UNK     1       4.478   3.107  -6.827  1.00  0.00     0.034 C 
ENDBRANCH  30  31
ENDBRANCH  25  30
ENDBRANCH   3  19
TORSDOF 5
