REMARK  6 active torsions:
REMARK  status: ('A' for Active; 'I' for Inactive)
REMARK    1  A    between atoms: C14_20  and  O3_3 
REMARK    2  A    between atoms: C20_26  and  O3_3 
REMARK    3  A    between atoms: C12_18  and  C6_12 
REMARK    4  A    between atoms: C10_16  and  C14_20 
REMARK    5  A    between atoms: C20_26  and  C22_28 
REMARK    6  A    between atoms: C22_28  and  C25_31 
ROOT
HETATM    1  O1  UNK     1      -1.925   0.221   3.185  1.00  0.00    -0.293 OA
HETATM    2  N1  UNK     1      -2.805  -2.121  -0.837  1.00  0.00    -0.362 N 
HETATM    3  C1  UNK     1      -3.838  -2.825   2.721  1.00  0.00    -0.036 C 
HETATM    4  C2  UNK     1      -3.345  -3.193   1.307  1.00  0.00     0.067 C 
HETATM    5  C3  UNK     1      -2.756  -2.004   3.436  1.00  0.00     0.092 C 
HETATM    6  C4  UNK     1      -2.764  -2.030   0.542  1.00  0.00     0.021 C 
HETATM    7  C5  UNK     1      -2.262  -0.926   1.135  1.00  0.00     0.024 C 
HETATM    8  C6  UNK     1      -1.681   0.221   0.310  1.00  0.00     0.104 C 
HETATM    9  C7  UNK     1      -2.299  -0.809   2.625  1.00  0.00     0.159 C 
HETATM   10  C8  UNK     1      -4.105  -4.116   3.515  1.00  0.00     0.015 C 
HETATM   11  C9  UNK     1      -5.158  -2.027   2.647  1.00  0.00     0.015 C 
HETATM   12  C10 UNK     1      -1.974   0.067  -1.185  1.00  0.00     0.052 C 
HETATM   13  C11 UNK     1      -2.478  -1.081  -1.692  1.00  0.00     0.018 C 
HETATM   14  C13 UNK     1      -2.743  -1.349  -3.149  1.00  0.00     0.069 C 
HETATM   15  H12 UNK     1      -3.188  -2.966  -1.245  1.00  0.00     0.165 HD
ENDROOT
BRANCH   8  16
HETATM   16  C12 UNK     1      -0.194   0.338   0.539  1.00  0.00     0.029 A 
HETATM   17  C15 UNK     1       0.335   1.593   1.131  1.00  0.00     0.194 A 
HETATM   18  O5  UNK     1      -0.394   2.527   1.437  1.00  0.00    -0.287 OA
HETATM   19  C17 UNK     1       1.795   1.656   1.331  1.00  0.00     0.048 A 
HETATM   20  C18 UNK     1       2.578   0.561   0.963  1.00  0.00     0.089 A 
HETATM   21  C19 UNK     1       2.390   2.794   1.881  1.00  0.00     0.018 A 
HETATM   22  O2  UNK     1       2.047  -0.581   0.419  1.00  0.00    -0.321 OA
HETATM   23  C21 UNK     1       3.961   0.599   1.144  1.00  0.00     0.038 A 
HETATM   24  C16 UNK     1       0.686  -0.625   0.238  1.00  0.00     0.154 A 
HETATM   25  C24 UNK     1       4.557   1.734   1.694  1.00  0.00     0.003 A 
HETATM   26  C23 UNK     1       3.773   2.829   2.061  1.00  0.00     0.001 A 
ENDBRANCH   8  16
BRANCH  12  27
HETATM   27  C14 UNK     1      -1.734   1.248  -2.032  1.00  0.00     0.292 C 
HETATM   28  O4  UNK     1      -2.568   2.113  -2.224  1.00  0.00    -0.259 OA
BRANCH  27  29
HETATM   29  O3  UNK     1      -0.473   1.175  -2.520  1.00  0.00    -0.317 OA
BRANCH  29  30
HETATM   30  C20 UNK     1      -0.087   2.261  -3.368  1.00  0.00     0.183 C 
BRANCH  30  31
HETATM   31  C22 UNK     1       0.931   1.777  -4.395  1.00  0.00     0.065 C 
BRANCH  31  32
HETATM   32  C25 UNK     1       2.197   1.266  -3.751  1.00  0.00    -0.056 A 
HETATM   33  C26 UNK     1       3.241   2.145  -3.514  1.00  0.00     0.007 A 
HETATM   34  C28 UNK     1       4.411   1.673  -2.919  1.00  0.00     0.001 A 
HETATM   35  C30 UNK     1       4.521   0.327  -2.569  1.00  0.00     0.000 A 
HETATM   36  C29 UNK     1       3.462  -0.546  -2.814  1.00  0.00     0.001 A 
HETATM   37  C27 UNK     1       2.292  -0.074  -3.409  1.00  0.00     0.007 A 
ENDBRANCH  31  32
ENDBRANCH  30  31
ENDBRANCH  29  30
ENDBRANCH  27  29
ENDBRANCH  12  27
TORSDOF 6
