REMARK  9 active torsions:
REMARK  status: ('A' for Active; 'I' for Inactive)
REMARK    1  A    between atoms: C3_10  and  O1_1 
REMARK    2  A    between atoms: C5_12  and  O2_2 
REMARK    3  A    between atoms: C6_13  and  O3_3 
REMARK    4  A    between atoms: C7_14  and  O4_4 
REMARK    5  A    between atoms: C14_21  and  O5_5 
REMARK    6  A    between atoms: C10_17  and  O6_6 
REMARK    7  A    between atoms: C1_8  and  C8_15 
REMARK    8  A    between atoms: C11_18  and  C2_9 
REMARK    9  A    between atoms: C11_18  and  C12_19 
ROOT
HETATM    1  O7  UNK     1      -0.759  -0.110  -1.350  1.00  0.00    -0.287 OA
HETATM    2  C11 UNK     1      -0.732  -0.815  -0.348  1.00  0.00     0.187 C 
ENDROOT
BRANCH   2   3
HETATM    3  C2  UNK     1      -1.982  -1.065   0.410  1.00  0.00     0.081 A 
HETATM    4  C10 UNK     1      -3.074  -1.659  -0.223  1.00  0.00     0.085 A 
HETATM    5  C15 UNK     1      -4.250  -1.894   0.489  1.00  0.00     0.074 A 
HETATM    6  C14 UNK     1      -4.334  -1.536   1.835  1.00  0.00     0.073 A 
HETATM    7  C13 UNK     1      -3.242  -0.943   2.468  1.00  0.00     0.074 A 
HETATM    8  C6  UNK     1      -2.066  -0.707   1.756  1.00  0.00     0.087 A 
BRANCH   4   9
HETATM    9  O6  UNK     1      -3.013  -2.016  -1.537  1.00  0.00    -0.360 OA
HETATM   10  H7  UNK     1      -3.863  -2.411  -1.799  1.00  0.00     0.217 HD
ENDBRANCH   4   9
BRANCH   6  11
HETATM   11  O5  UNK     1      -5.481  -1.766   2.530  1.00  0.00    -0.356 OA
HETATM   12  C20 UNK     1      -5.498  -1.375   3.902  1.00  0.00     0.210 C 
ENDBRANCH   6  11
BRANCH   8  13
HETATM   13  O3  UNK     1      -1.011  -0.126   2.394  1.00  0.00    -0.355 OA
HETATM   14  C18 UNK     1      -1.189   0.205   3.769  1.00  0.00     0.210 C 
ENDBRANCH   8  13
ENDBRANCH   2   3
BRANCH   2  15
HETATM   15  C12 UNK     1       0.514  -1.471   0.139  1.00  0.00     0.057 C 
HETATM   16  C8  UNK     1       1.717  -0.898  -0.085  1.00  0.00     0.018 C 
BRANCH  16  17
HETATM   17  C1  UNK     1       1.928   0.360  -0.789  1.00  0.00     0.000 A 
HETATM   18  C3  UNK     1       1.923   1.576  -0.105  1.00  0.00     0.081 A 
HETATM   19  C9  UNK     1       2.129   2.768  -0.800  1.00  0.00     0.077 A 
HETATM   20  C7  UNK     1       2.340   2.744  -2.178  1.00  0.00     0.104 A 
HETATM   21  C5  UNK     1       2.345   1.528  -2.862  1.00  0.00     0.102 A 
HETATM   22  C4  UNK     1       2.139   0.336  -2.167  1.00  0.00     0.054 A 
BRANCH  18  23
HETATM   23  O1  UNK     1       1.718   1.629   1.242  1.00  0.00    -0.355 OA
HETATM   24  C16 UNK     1       1.731   2.919   1.849  1.00  0.00     0.210 C 
ENDBRANCH  18  23
BRANCH  20  25
HETATM   25  O4  UNK     1       2.539   3.914  -2.846  1.00  0.00    -0.353 OA
HETATM   26  C19 UNK     1       2.519   5.113  -2.073  1.00  0.00     0.210 C 
ENDBRANCH  20  25
BRANCH  21  27
HETATM   27  O2  UNK     1       2.552   1.492  -4.208  1.00  0.00    -0.353 OA
HETATM   28  C17 UNK     1       3.901   1.371  -4.654  1.00  0.00     0.210 C 
ENDBRANCH  21  27
ENDBRANCH  16  17
ENDBRANCH   2  15
TORSDOF 9
