REMARK  3 active torsions:
REMARK  status: ('A' for Active; 'I' for Inactive)
REMARK    1  A    between atoms: C6_10  and  O2_2 
REMARK    2  A    between atoms: C16_20  and  O4_4 
REMARK    3  A    between atoms: C3_7  and  C4_8 
ROOT
HETATM    1  O1  UNK     1      -0.856  -0.376  -0.382  1.00  0.00    -0.306 OA
HETATM    2  O3  UNK     1      -1.328   1.099   3.387  1.00  0.00    -0.284 OA
HETATM    3  C1  UNK     1      -2.081  -0.382   1.714  1.00  0.00     0.051 A 
HETATM    4  C2  UNK     1      -1.868  -0.843   0.417  1.00  0.00     0.091 A 
HETATM    5  C3  UNK     1      -0.003   0.589   0.128  1.00  0.00     0.123 A 
HETATM    6  C5  UNK     1      -1.187   0.652   2.257  1.00  0.00     0.220 A 
HETATM    7  C6  UNK     1      -0.105   1.124   1.359  1.00  0.00     0.152 A 
HETATM    8  C7  UNK     1      -2.704  -1.821  -0.123  1.00  0.00     0.045 A 
HETATM    9  C8  UNK     1      -3.752  -2.336   0.641  1.00  0.00    -0.059 A 
HETATM   10  C9  UNK     1      -3.130  -0.895   2.481  1.00  0.00     0.019 A 
HETATM   11  C10 UNK     1      -3.964  -1.873   1.940  1.00  0.00     0.008 A 
HETATM   12  C13 UNK     1      -4.648  -3.381   0.067  1.00  0.00     0.048 C 
ENDROOT
BRANCH   5  13
HETATM   13  C4  UNK     1       1.037   1.003  -0.831  1.00  0.00     0.001 A 
HETATM   14  C11 UNK     1       2.267   0.346  -0.854  1.00  0.00     0.017 A 
HETATM   15  C14 UNK     1       3.250   0.738  -1.763  1.00  0.00     0.037 A 
HETATM   16  C16 UNK     1       3.003   1.787  -2.649  1.00  0.00     0.068 A 
HETATM   17  C15 UNK     1       1.772   2.444  -2.626  1.00  0.00     0.037 A 
HETATM   18  C12 UNK     1       0.789   2.052  -1.718  1.00  0.00     0.017 A 
BRANCH  16  19
HETATM   19  O4  UNK     1       3.962   2.168  -3.536  1.00  0.00    -0.356 OA
HETATM   20  C17 UNK     1       3.644   3.247  -4.413  1.00  0.00     0.210 C 
ENDBRANCH  16  19
ENDBRANCH   5  13
BRANCH   7  21
HETATM   21  O2  UNK     1       0.740   2.108   1.825  1.00  0.00    -0.355 OA
HETATM   22  H11 UNK     1       1.396   2.328   1.144  1.00  0.00     0.218 HD
ENDBRANCH   7  21
TORSDOF 3
