REMARK  6 active torsions:
REMARK  status: ('A' for Active; 'I' for Inactive)
REMARK    1  A    between atoms: C1_7  and  O1_4 
REMARK    2  A    between atoms: C4_10  and  O1_4 
REMARK    3  A    between atoms: C3_9  and  O2_5 
REMARK    4  A    between atoms: C2_8  and  C9_15 
REMARK    5  A    between atoms: C4_10  and  C6_12 
REMARK    6  A    between atoms: C10_16  and  C11_17 
ROOT
HETATM    1  N1  UNK     1      -2.356   1.487   1.771  1.00  0.00    -0.191 NA
HETATM    2  C9  UNK     1      -1.949  -1.734   0.608  1.00  0.00     0.036 C 
HETATM    3  C10 UNK     1      -2.793  -1.053   1.429  1.00  0.00     0.055 C 
HETATM    4  C23 UNK     1      -2.543   0.352   1.612  1.00  0.00     0.100 C 
ENDROOT
BRANCH   3   5
HETATM    5  C11 UNK     1      -3.923  -1.662   2.114  1.00  0.00    -0.015 A 
HETATM    6  C16 UNK     1      -5.172  -1.704   1.496  1.00  0.00     0.016 A 
HETATM    7  C19 UNK     1      -6.256  -2.287   2.153  1.00  0.00     0.043 A 
HETATM    8  C21 UNK     1      -6.090  -2.829   3.428  1.00  0.00     0.116 A 
HETATM    9  C20 UNK     1      -4.840  -2.787   4.046  1.00  0.00     0.043 A 
HETATM   10  F1  UNK     1      -7.131  -3.388   4.059  1.00  0.00    -0.206 F 
HETATM   11  C17 UNK     1      -3.756  -2.204   3.389  1.00  0.00     0.016 A 
ENDBRANCH   3   5
BRANCH   2  12
HETATM   12  C2  UNK     1      -0.802  -1.159  -0.108  1.00  0.00    -0.015 A 
HETATM   13  C5  UNK     1       0.421  -1.157   0.551  1.00  0.00     0.052 A 
HETATM   14  C3  UNK     1       1.544  -0.623  -0.081  1.00  0.00     0.102 A 
HETATM   15  C1  UNK     1       1.435  -0.096  -1.368  1.00  0.00     0.103 A 
HETATM   16  C7  UNK     1       0.202  -0.102  -2.022  1.00  0.00     0.059 A 
HETATM   17  C8  UNK     1      -0.920  -0.636  -1.389  1.00  0.00     0.024 A 
HETATM   18 Br1  UNK     1      -2.568  -0.613  -2.336  1.00  0.00    -0.050 Br
BRANCH  14  19
HETATM   19  O2  UNK     1       2.742  -0.623   0.567  1.00  0.00    -0.353 OA
HETATM   20  C22 UNK     1       3.046   0.519   1.366  1.00  0.00     0.210 C 
ENDBRANCH  14  19
BRANCH  15  21
HETATM   21  O1  UNK     1       2.524   0.428  -1.996  1.00  0.00    -0.344 OA
BRANCH  21  22
HETATM   22  C4  UNK     1       2.291   1.481  -2.929  1.00  0.00     0.214 C 
BRANCH  22  23
HETATM   23  C6  UNK     1       3.499   2.368  -2.979  1.00  0.00    -0.034 A 
HETATM   24  C12 UNK     1       3.590   3.456  -2.118  1.00  0.00     0.011 A 
HETATM   25  C14 UNK     1       4.713   4.282  -2.165  1.00  0.00     0.019 A 
HETATM   26  C18 UNK     1       5.739   4.015  -3.072  1.00  0.00     0.011 A 
HETATM   27 Br2  UNK     1       7.259   5.135  -3.136  1.00  0.00    -0.051 Br
HETATM   28  C15 UNK     1       5.641   2.921  -3.932  1.00  0.00     0.019 A 
HETATM   29  C13 UNK     1       4.518   2.095  -3.885  1.00  0.00     0.011 A 
ENDBRANCH  22  23
ENDBRANCH  21  22
ENDBRANCH  15  21
ENDBRANCH   2  12
TORSDOF 6
