REMARK  3 active torsions:
REMARK  status: ('A' for Active; 'I' for Inactive)
REMARK    1  A    between atoms: C5_10  and  N1_4 
REMARK    2  A    between atoms: C1_6  and  C9_14 
REMARK    3  A    between atoms: C11_16  and  C7_12 
ROOT
HETATM    1  O2  UNK     1      -0.451  -2.523   1.973  1.00  0.00    -0.267 OA
HETATM    2  N1  UNK     1      -1.508  -0.597   1.119  1.00  0.00    -0.262 N 
HETATM    3  N2  UNK     1      -0.571   1.539   1.619  1.00  0.00    -0.230 NA
HETATM    4  C1  UNK     1      -1.465   0.801   1.031  1.00  0.00     0.138 A 
HETATM    5  C2  UNK     1       0.534  -0.473   2.458  1.00  0.00     0.061 A 
HETATM    6  C3  UNK     1      -0.503  -1.306   1.814  1.00  0.00     0.266 A 
HETATM    7  C4  UNK     1       0.440   0.915   2.357  1.00  0.00     0.074 A 
HETATM    8  C13 UNK     1       1.576  -1.066   3.182  1.00  0.00     0.019 A 
HETATM    9  C15 UNK     1       1.403   1.708   2.990  1.00  0.00     0.032 A 
HETATM   10  C21 UNK     1       2.530  -0.265   3.807  1.00  0.00     0.001 A 
HETATM   11  C22 UNK     1       2.443   1.122   3.713  1.00  0.00     0.002 A 
ENDROOT
BRANCH   4  12
HETATM   12  C9  UNK     1      -2.443   1.497   0.161  1.00  0.00     0.052 C 
HETATM   13  C11 UNK     1      -2.146   1.658  -1.131  1.00  0.00     0.021 C 
BRANCH  13  14
HETATM   14  C7  UNK     1      -0.919   1.186  -1.715  1.00  0.00     0.037 A 
HETATM   15  C10 UNK     1       0.283   2.062  -1.756  1.00  0.00     0.197 A 
HETATM   16  O3  UNK     1       0.284   3.200  -1.303  1.00  0.00    -0.286 OA
HETATM   17  C6  UNK     1       1.492   1.487  -2.376  1.00  0.00     0.049 A 
HETATM   18  C12 UNK     1       2.673   2.230  -2.460  1.00  0.00     0.025 A 
HETATM   19  C8  UNK     1       1.444   0.187  -2.879  1.00  0.00     0.089 A 
HETATM   20  C14 UNK     1       3.803   1.664  -3.051  1.00  0.00    -0.061 A 
HETATM   21  C20 UNK     1       3.755   0.364  -3.555  1.00  0.00     0.009 A 
HETATM   22  C23 UNK     1       5.068   2.451  -3.143  1.00  0.00     0.048 C 
HETATM   23  C16 UNK     1       2.576  -0.376  -3.469  1.00  0.00     0.039 A 
HETATM   24  O1  UNK     1       0.314  -0.587  -2.823  1.00  0.00    -0.321 OA
HETATM   25  C19 UNK     1      -0.804  -0.040  -2.242  1.00  0.00     0.158 A 
ENDBRANCH  13  14
ENDBRANCH   4  12
BRANCH   2  26
HETATM   26  C5  UNK     1      -2.598  -1.371   0.583  1.00  0.00     0.044 A 
HETATM   27  C17 UNK     1      -2.378  -2.685   0.192  1.00  0.00     0.030 A 
HETATM   28  C24 UNK     1      -3.435  -3.435  -0.326  1.00  0.00     0.002 A 
HETATM   29  C26 UNK     1      -4.701  -2.863  -0.449  1.00  0.00     0.000 A 
HETATM   30  C25 UNK     1      -4.911  -1.542  -0.053  1.00  0.00     0.002 A 
HETATM   31  C18 UNK     1      -3.855  -0.793   0.465  1.00  0.00     0.030 A 
ENDBRANCH   2  26
TORSDOF 3
