REMARK  2 active torsions:
REMARK  status: ('A' for Active; 'I' for Inactive)
REMARK    1  A    between atoms: C1_5  and  C4_8 
REMARK    2  A    between atoms: C6_10  and  C7_11 
ROOT
HETATM    1  O1  UNK     1      -0.647   1.023   1.356  1.00  0.00    -0.356 OA
HETATM    2  O2  UNK     1       0.342  -1.110   1.148  1.00  0.00    -0.356 OA
HETATM    3  C1  UNK     1      -1.842  -0.930   2.310  1.00  0.00     0.026 C 
HETATM    4  C2  UNK     1      -1.571   0.597   2.357  1.00  0.00     0.187 C 
HETATM    5  C3  UNK     1      -0.506  -1.699   2.133  1.00  0.00     0.187 C 
HETATM    6  C5  UNK     1      -2.412  -1.330   3.694  1.00  0.00     0.025 C 
HETATM    7  C6  UNK     1       0.563   0.272   1.421  1.00  0.00     0.300 C 
ENDROOT
BRANCH   7   8
HETATM    8  C7  UNK     1       1.494   0.805   0.387  1.00  0.00     0.070 A 
HETATM    9  C10 UNK     1       1.078   0.749  -1.037  1.00  0.00     0.198 A 
HETATM   10  O4  UNK     1       0.000   0.283  -1.383  1.00  0.00    -0.287 OA
HETATM   11  C14 UNK     1       2.036   1.288  -2.020  1.00  0.00     0.049 A 
HETATM   12  C16 UNK     1       3.250   1.807  -1.569  1.00  0.00     0.089 A 
HETATM   13  C17 UNK     1       1.737   1.282  -3.385  1.00  0.00     0.018 A 
HETATM   14  O3  UNK     1       3.595   1.839  -0.242  1.00  0.00    -0.321 OA
HETATM   15  C18 UNK     1       4.172   2.323  -2.481  1.00  0.00     0.038 A 
HETATM   16  C13 UNK     1       2.693   1.334   0.662  1.00  0.00     0.158 A 
HETATM   17  C20 UNK     1       3.875   2.317  -3.844  1.00  0.00     0.003 A 
HETATM   18  C19 UNK     1       2.661   1.798  -4.295  1.00  0.00     0.001 A 
ENDBRANCH   7   8
BRANCH   3  19
HETATM   19  C4  UNK     1      -2.815  -1.269   1.154  1.00  0.00    -0.046 A 
HETATM   20  C8  UNK     1      -3.304  -0.250   0.345  1.00  0.00     0.008 A 
HETATM   21  C11 UNK     1      -4.180  -0.555  -0.697  1.00  0.00     0.001 A 
HETATM   22  C15 UNK     1      -4.562  -1.877  -0.922  1.00  0.00     0.000 A 
HETATM   23  C12 UNK     1      -4.068  -2.895  -0.105  1.00  0.00     0.001 A 
HETATM   24  C9  UNK     1      -3.192  -2.589   0.936  1.00  0.00     0.008 A 
ENDBRANCH   3  19
TORSDOF 2
