REMARK  2 active torsions:
REMARK  status: ('A' for Active; 'I' for Inactive)
REMARK       I    between atoms: C5_11  and  N1_6 
REMARK    1  A    between atoms: C7_13  and  N1_6 
REMARK    2  A    between atoms: C2_8  and  C5_11 
ROOT
HETATM    1  O2  UNK     1      -0.930  -0.760  -1.869  1.00  0.00    -0.267 OA
HETATM    2  N1  UNK     1      -0.902  -0.336   0.447  1.00  0.00    -0.323 N 
HETATM    3  C5  UNK     1      -0.415  -0.298  -0.852  1.00  0.00     0.262 C 
HETATM    4  H4  UNK     1      -0.360   0.116   1.180  1.00  0.00     0.169 HD
ENDROOT
BRANCH   3   5
HETATM    5  C2  UNK     1       0.875   0.395  -0.940  1.00  0.00     0.108 A 
HETATM    6  C4  UNK     1       1.131   1.025  -2.092  1.00  0.00     0.037 A 
HETATM    7  C1  UNK     1       2.385   1.740  -2.275  1.00  0.00    -0.001 A 
HETATM    8  C3  UNK     1       3.308   1.757  -1.234  1.00  0.00     0.089 A 
HETATM    9  C6  UNK     1       2.694   2.411  -3.461  1.00  0.00     0.014 A 
HETATM   10  O1  UNK     1       3.032   1.093  -0.023  1.00  0.00    -0.274 OA
HETATM   11  C9  UNK     1       4.526   2.424  -1.344  1.00  0.00     0.038 A 
HETATM   12  C8  UNK     1       1.842   0.400   0.181  1.00  0.00     0.304 A 
HETATM   13  O3  UNK     1       1.612  -0.176   1.239  1.00  0.00    -0.259 OA
HETATM   14  C11 UNK     1       4.827   3.090  -2.530  1.00  0.00     0.003 A 
HETATM   15  C10 UNK     1       3.913   3.084  -3.586  1.00  0.00     0.001 A 
ENDBRANCH   3   5
BRANCH   2  16
HETATM   16  C7  UNK     1      -2.111  -0.919   0.900  1.00  0.00     0.036 A 
HETATM   17  C12 UNK     1      -2.430  -0.857   2.246  1.00  0.00     0.056 A 
HETATM   18  C14 UNK     1      -3.620  -1.433   2.692  1.00  0.00     0.074 A 
HETATM   19 Cl1  UNK     1      -4.030  -1.365   4.362  1.00  0.00    -0.081 Cl
HETATM   20  C16 UNK     1      -4.473  -2.061   1.785  1.00  0.00     0.138 A 
HETATM   21  C15 UNK     1      -4.137  -2.113   0.432  1.00  0.00     0.046 A 
HETATM   22  F1  UNK     1      -5.620  -2.619   2.197  1.00  0.00    -0.204 F 
HETATM   23  C13 UNK     1      -2.947  -1.538  -0.014  1.00  0.00     0.032 A 
ENDBRANCH   2  16
TORSDOF 2
