REMARK  6 active torsions:
REMARK  status: ('A' for Active; 'I' for Inactive)
REMARK    1  A    between atoms: C3_9  and  O1_1 
REMARK    2  A    between atoms: C5_11  and  O1_1 
REMARK    3  A    between atoms: C1_7  and  N1_6 
REMARK    4  A    between atoms: C2_8  and  N1_6 
REMARK       I    between atoms: C4_10  and  N1_6 
REMARK    5  A    between atoms: C4_10  and  C5_11 
REMARK    6  A    between atoms: C12_18  and  C7_13 
ROOT
HETATM    1  O2  UNK     1      -2.410  -1.331  -0.124  1.00  0.00    -0.304 OA
HETATM    2  O5  UNK     1      -0.337   1.000   2.498  1.00  0.00    -0.284 OA
HETATM    3  C3  UNK     1      -0.791   0.427   0.246  1.00  0.00     0.157 A 
HETATM    4  C6  UNK     1      -1.911  -0.726   2.173  1.00  0.00     0.051 A 
HETATM    5  C7  UNK     1      -1.503  -0.379  -0.563  1.00  0.00     0.147 A 
HETATM    6  C8  UNK     1      -2.590  -1.489   1.225  1.00  0.00     0.090 A 
HETATM    7  C9  UNK     1      -0.958   0.296   1.713  1.00  0.00     0.221 A 
HETATM    8  C13 UNK     1      -2.135  -0.932   3.537  1.00  0.00     0.018 A 
HETATM    9  C14 UNK     1      -3.501  -2.463   1.636  1.00  0.00     0.038 A 
HETATM   10  C15 UNK     1      -3.046  -1.907   3.945  1.00  0.00     0.001 A 
HETATM   11  C16 UNK     1      -3.728  -2.671   2.997  1.00  0.00     0.003 A 
ENDROOT
BRANCH   3  12
HETATM   12  O1  UNK     1       0.079   1.386  -0.225  1.00  0.00    -0.335 OA
BRANCH  12  13
HETATM   13  C5  UNK     1       1.384   0.857  -0.363  1.00  0.00     0.278 C 
BRANCH  13  14
HETATM   14  C4  UNK     1       2.331   1.948  -0.816  1.00  0.00     0.243 C 
HETATM   15  O4  UNK     1       1.877   3.077  -1.029  1.00  0.00    -0.271 OA
HETATM   16  N1  UNK     1       3.678   1.613  -0.958  1.00  0.00    -0.351 N 
BRANCH  16  17
HETATM   17  C1  UNK     1       4.629   2.632  -1.383  1.00  0.00     0.121 C 
HETATM   18  C10 UNK     1       4.762   2.673  -2.891  1.00  0.00     0.026 C 
ENDBRANCH  16  17
BRANCH  16  19
HETATM   19  C2  UNK     1       4.254   0.295  -0.701  1.00  0.00     0.121 C 
HETATM   20  C11 UNK     1       4.705   0.159   0.739  1.00  0.00     0.026 C 
ENDBRANCH  16  19
ENDBRANCH  13  14
ENDBRANCH  12  13
ENDBRANCH   3  12
BRANCH   5  21
HETATM   21  C12 UNK     1      -1.405  -0.313  -2.032  1.00  0.00     0.111 A 
HETATM   22  O3  UNK     1      -0.584   0.569  -2.673  1.00  0.00    -0.320 OA
HETATM   23  C19 UNK     1      -0.739   0.358  -4.006  1.00  0.00     0.142 A 
HETATM   24  C18 UNK     1      -1.649  -0.648  -4.234  1.00  0.00     0.027 A 
HETATM   25  C17 UNK     1      -2.081  -1.083  -2.958  1.00  0.00     0.042 A 
ENDBRANCH   5  21
TORSDOF 6
