REMARK  6 active torsions:
REMARK  status: ('A' for Active; 'I' for Inactive)
REMARK    1  A    between atoms: C5_11  and  N1_4 
REMARK    2  A    between atoms: C6_12  and  N2_5 
REMARK    3  A    between atoms: C18_24  and  N3_6 
REMARK       I    between atoms: C9_15  and  N3_6 
REMARK    4  A    between atoms: C5_11  and  C7_13 
REMARK    5  A    between atoms: C6_12  and  C9_15 
REMARK    6  A    between atoms: C13_19  and  C17_23 
ROOT
HETATM    1  N1  UNK     1       0.681  -0.030  -1.328  1.00  0.00     0.096 N 
HETATM    2  N2  UNK     1      -2.034  -0.585  -0.503  1.00  0.00     0.100 N 
HETATM    3  C1  UNK     1       0.386  -1.045  -0.308  1.00  0.00     0.303 C 
HETATM    4  C2  UNK     1      -0.441   0.096  -2.265  1.00  0.00     0.303 C 
HETATM    5  C3  UNK     1      -0.911  -0.709   0.435  1.00  0.00     0.303 C 
HETATM    6  C4  UNK     1      -1.739   0.430  -1.522  1.00  0.00     0.303 C 
ENDROOT
BRANCH   1   7
HETATM    7  C5  UNK     1       1.918  -0.353  -2.038  1.00  0.00     0.312 C 
BRANCH   7   8
HETATM    8  C7  UNK     1       2.540   0.850  -2.658  1.00  0.00    -0.011 A 
HETATM    9  C10 UNK     1       2.228   1.225  -3.907  1.00  0.00     0.092 A 
HETATM   10  C14 UNK     1       2.816   2.405  -4.562  1.00  0.00     0.288 A 
HETATM   11  O1  UNK     1       3.730   3.138  -3.821  1.00  0.00    -0.275 OA
HETATM   12  O3  UNK     1       2.505   2.718  -5.706  1.00  0.00    -0.260 OA
HETATM   13  C11 UNK     1       4.077   2.769  -2.506  1.00  0.00     0.090 A 
HETATM   14  C8  UNK     1       3.512   1.647  -1.898  1.00  0.00     0.007 A 
HETATM   15  C15 UNK     1       5.008   3.580  -1.855  1.00  0.00     0.039 A 
HETATM   16  C12 UNK     1       3.910   1.347  -0.588  1.00  0.00     0.022 A 
HETATM   17  C13 UNK     1       4.842   2.151   0.077  1.00  0.00    -0.058 A 
HETATM   18  C16 UNK     1       5.390   3.266  -0.555  1.00  0.00     0.010 A 
BRANCH  17  19
HETATM   19  C17 UNK     1       5.252   1.813   1.472  1.00  0.00     0.034 C 
HETATM   20  C19 UNK     1       4.363   2.482   2.516  1.00  0.00     0.010 C 
ENDBRANCH  17  19
ENDBRANCH   7   8
ENDBRANCH   1   7
BRANCH   2  21
HETATM   21  C6  UNK     1      -3.270  -0.264   0.207  1.00  0.00     0.375 C 
BRANCH  21  22
HETATM   22  C9  UNK     1      -3.810  -1.518   0.874  1.00  0.00     0.250 C 
HETATM   23  O2  UNK     1      -3.622  -2.642   0.419  1.00  0.00    -0.271 OA
HETATM   24  N3  UNK     1      -4.511  -1.184   2.031  1.00  0.00    -0.326 N 
HETATM   25  H16 UNK     1      -4.581  -0.199   2.275  1.00  0.00     0.169 HD
BRANCH  24  26
HETATM   26  C18 UNK     1      -5.162  -2.063   2.929  1.00  0.00     0.034 A 
HETATM   27  C20 UNK     1      -5.821  -1.553   4.048  1.00  0.00     0.029 A 
HETATM   28  C22 UNK     1      -6.464  -2.419   4.933  1.00  0.00     0.002 A 
HETATM   29  C24 UNK     1      -6.446  -3.794   4.700  1.00  0.00     0.000 A 
HETATM   30  C23 UNK     1      -5.787  -4.304   3.582  1.00  0.00     0.002 A 
HETATM   31  C21 UNK     1      -5.144  -3.438   2.696  1.00  0.00     0.029 A 
ENDBRANCH  24  26
ENDBRANCH  21  22
ENDBRANCH   2  21
TORSDOF 6
