REMARK  5 active torsions:
REMARK  status: ('A' for Active; 'I' for Inactive)
REMARK    1  A    between atoms: C13_19  and  O2_2 
REMARK    2  A    between atoms: C5_11  and  O2_2 
REMARK    3  A    between atoms: C11_17  and  N1_5 
REMARK       I    between atoms: C9_15  and  N1_5 
REMARK    4  A    between atoms: C3_9  and  C9_15 
REMARK    5  A    between atoms: C11_17  and  C12_18 
ROOT
HETATM    1  O1  UNK     1       0.941   0.621  -1.727  1.00  0.00    -0.271 OA
HETATM    2  O3  UNK     1      -1.089  -0.303  -1.235  1.00  0.00    -0.259 OA
HETATM    3  C1  UNK     1       2.417   1.308   0.079  1.00  0.00     0.002 A 
HETATM    4  C2  UNK     1       2.156   1.179  -1.281  1.00  0.00     0.123 A 
HETATM    5  C3  UNK     1       0.264   0.330   0.604  1.00  0.00     0.108 A 
HETATM    6  C4  UNK     1       1.415   0.859   1.033  1.00  0.00     0.037 A 
HETATM    7  C5  UNK     1       3.073   1.589  -2.247  1.00  0.00     0.103 A 
HETATM    8  C6  UNK     1       3.633   1.865   0.482  1.00  0.00     0.014 A 
HETATM    9  C7  UNK     1      -0.035   0.182  -0.838  1.00  0.00     0.304 A 
HETATM   10  C8  UNK     1       4.283   2.144  -1.837  1.00  0.00     0.040 A 
HETATM   11  C10 UNK     1       4.563   2.282  -0.475  1.00  0.00     0.004 A 
ENDROOT
BRANCH   5  12
HETATM   12  C9  UNK     1      -0.683  -0.093   1.643  1.00  0.00     0.258 C 
HETATM   13  O4  UNK     1      -1.129   0.713   2.457  1.00  0.00    -0.267 OA
HETATM   14  N1  UNK     1      -0.980  -1.443   1.582  1.00  0.00    -0.351 N 
HETATM   15  H7  UNK     1      -0.557  -2.017   0.859  1.00  0.00     0.163 HD
BRANCH  14  16
HETATM   16  C11 UNK     1      -1.886  -2.092   2.503  1.00  0.00     0.182 C 
BRANCH  16  17
HETATM   17  C12 UNK     1      -3.287  -2.084   1.957  1.00  0.00     0.051 A 
HETATM   18  N2  UNK     1      -4.058  -1.022   2.282  1.00  0.00    -0.264 NA
HETATM   19  C17 UNK     1      -5.317  -1.021   1.789  1.00  0.00     0.117 A 
HETATM   20  C18 UNK     1      -5.838  -2.026   0.991  1.00  0.00     0.019 A 
HETATM   21  C16 UNK     1      -5.015  -3.102   0.678  1.00  0.00     0.003 A 
HETATM   22  C14 UNK     1      -3.713  -3.140   1.167  1.00  0.00     0.029 A 
ENDBRANCH  16  17
ENDBRANCH  14  16
ENDBRANCH   5  12
BRANCH   7  23
HETATM   23  O2  UNK     1       2.804   1.457  -3.574  1.00  0.00    -0.349 OA
BRANCH  23  24
HETATM   24  C13 UNK     1       3.390   2.416  -4.454  1.00  0.00     0.171 C 
HETATM   25  C15 UNK     1       2.489   2.595  -5.658  1.00  0.00     0.034 C 
ENDBRANCH  23  24
ENDBRANCH   7  23
TORSDOF 5
