REMARK  3 active torsions:
REMARK  status: ('A' for Active; 'I' for Inactive)
REMARK    1  A    between atoms: C5_12  and  N1_5 
REMARK       I    between atoms: C9_16  and  N1_5 
REMARK    2  A    between atoms: C1_8  and  C9_16 
REMARK    3  A    between atoms: C16_23  and  C8_15 
ROOT
HETATM    1 Cl1  UNK     1       5.539   3.292   0.226  1.00  0.00    -0.082 Cl
HETATM    2  N2  UNK     1       3.416   1.988  -1.394  1.00  0.00    -0.246 NA
HETATM    3  C1  UNK     1       1.344   0.428  -0.423  1.00  0.00     0.047 A 
HETATM    4  C2  UNK     1       2.267   0.975   0.467  1.00  0.00     0.010 A 
HETATM    5  C4  UNK     1       3.306   1.763  -0.071  1.00  0.00     0.090 A 
HETATM    6  C7  UNK     1       1.444   0.650  -1.783  1.00  0.00     0.050 A 
HETATM    7  C8  UNK     1       2.494   1.434  -2.215  1.00  0.00     0.069 A 
HETATM    8  C14 UNK     1       2.184   0.761   1.853  1.00  0.00     0.015 A 
HETATM    9  C15 UNK     1       4.234   2.313   0.810  1.00  0.00     0.063 A 
HETATM   10  C18 UNK     1       3.125   1.323   2.711  1.00  0.00     0.003 A 
HETATM   11  C19 UNK     1       4.151   2.100   2.188  1.00  0.00     0.026 A 
ENDROOT
BRANCH   3  12
HETATM   12  C9  UNK     1       0.221  -0.412   0.029  1.00  0.00     0.257 C 
HETATM   13  O2  UNK     1       0.352  -1.627   0.159  1.00  0.00    -0.267 OA
HETATM   14  N1  UNK     1      -0.966   0.288   0.329  1.00  0.00    -0.323 N 
HETATM   15  H3  UNK     1      -0.945   1.295   0.185  1.00  0.00     0.169 HD
BRANCH  14  16
HETATM   16  C5  UNK     1      -2.174  -0.219   0.808  1.00  0.00     0.037 A 
HETATM   17  C11 UNK     1      -2.313  -1.581   1.051  1.00  0.00     0.067 A 
HETATM   18  C6  UNK     1      -3.531  -2.067   1.531  1.00  0.00     0.092 A 
HETATM   19  C3  UNK     1      -4.621  -1.231   1.779  1.00  0.00     0.004 A 
HETATM   20  O1  UNK     1      -3.611  -3.455   1.758  1.00  0.00    -0.275 OA
HETATM   21  C10 UNK     1      -5.865  -1.828   2.284  1.00  0.00    -0.043 A 
HETATM   22  C12 UNK     1      -4.461   0.138   1.528  1.00  0.00     0.017 A 
HETATM   23  C17 UNK     1      -5.912  -3.152   2.491  1.00  0.00     0.090 A 
HETATM   24  C20 UNK     1      -7.055  -0.957   2.560  1.00  0.00     0.049 C 
HETATM   25  C21 UNK     1      -4.771  -4.047   2.234  1.00  0.00     0.288 A 
HETATM   26  O3  UNK     1      -4.851  -5.253   2.435  1.00  0.00    -0.260 OA
HETATM   27  C13 UNK     1      -3.246   0.640   1.047  1.00  0.00     0.030 A 
ENDBRANCH  14  16
ENDBRANCH   3  12
BRANCH   7  28
HETATM   28  C16 UNK     1       2.681   1.724  -3.617  1.00  0.00    -0.005 A 
HETATM   29  C22 UNK     1       1.583   1.790  -4.471  1.00  0.00     0.033 A 
HETATM   30  C24 UNK     1       1.815   2.071  -5.807  1.00  0.00     0.117 A 
HETATM   31  N3  UNK     1       3.041   2.285  -6.334  1.00  0.00    -0.273 NA
HETATM   32  C25 UNK     1       4.084   2.214  -5.477  1.00  0.00     0.117 A 
HETATM   33  C23 UNK     1       3.959   1.939  -4.124  1.00  0.00     0.033 A 
ENDBRANCH   7  28
TORSDOF 3
