REMARK  2 active torsions:
REMARK  status: ('A' for Active; 'I' for Inactive)
REMARK    1  A    between atoms: C3_10  and  N1_5 
REMARK       I    between atoms: C7_14  and  N1_5 
REMARK    2  A    between atoms: C2_9  and  C7_14 
ROOT
HETATM    1  O3  UNK     1      -0.940  -0.575  -2.210  1.00  0.00    -0.267 OA
HETATM    2  N1  UNK     1      -0.963  -0.397   0.138  1.00  0.00    -0.321 N 
HETATM    3  C7  UNK     1      -0.439  -0.241  -1.138  1.00  0.00     0.262 C 
HETATM    4  H2  UNK     1      -0.431  -0.046   0.931  1.00  0.00     0.169 HD
ENDROOT
BRANCH   3   5
HETATM    5  C2  UNK     1       0.877   0.410  -1.120  1.00  0.00     0.108 A 
HETATM    6  C11 UNK     1       1.811   0.262   0.018  1.00  0.00     0.304 A 
HETATM    7  O1  UNK     1       3.030   0.928  -0.083  1.00  0.00    -0.274 OA
HETATM    8  O4  UNK     1       1.532  -0.413   1.003  1.00  0.00    -0.259 OA
HETATM    9  C4  UNK     1       3.361   1.704  -1.211  1.00  0.00     0.089 A 
HETATM   10  C1  UNK     1       2.468   1.830  -2.270  1.00  0.00    -0.001 A 
HETATM   11  C12 UNK     1       4.604   2.333  -1.221  1.00  0.00     0.038 A 
HETATM   12  C5  UNK     1       1.186   1.146  -2.194  1.00  0.00     0.037 A 
HETATM   13  C9  UNK     1       2.832   2.610  -3.370  1.00  0.00     0.014 A 
HETATM   14  C15 UNK     1       4.076   3.246  -3.395  1.00  0.00     0.001 A 
HETATM   15  C16 UNK     1       4.960   3.108  -2.322  1.00  0.00     0.003 A 
ENDBRANCH   3   5
BRANCH   2  16
HETATM   16  C3  UNK     1      -2.203  -0.978   0.498  1.00  0.00     0.068 A 
HETATM   17  C10 UNK     1      -3.070  -1.484  -0.470  1.00  0.00     0.032 A 
HETATM   18  C14 UNK     1      -4.319  -2.071  -0.139  1.00  0.00     0.005 A 
HETATM   19  C13 UNK     1      -4.789  -2.194   1.181  1.00  0.00     0.036 A 
HETATM   20  C8  UNK     1      -3.915  -1.684   2.159  1.00  0.00     0.119 A 
HETATM   21  C6  UNK     1      -2.632  -1.081   1.819  1.00  0.00     0.144 A 
HETATM   22  N3  UNK     1      -4.056  -1.644   3.490  1.00  0.00    -0.103 NA
HETATM   23  N2  UNK     1      -2.038  -0.695   2.955  1.00  0.00    -0.101 NA
HETATM   24  O2  UNK     1      -2.909  -1.040   3.974  1.00  0.00    -0.106 OA
ENDBRANCH   2  16
TORSDOF 2
