REMARK  5 active torsions:
REMARK  status: ('A' for Active; 'I' for Inactive)
REMARK    1  A    between atoms: C14_22  and  O3_4 
REMARK    2  A    between atoms: C15_23  and  O4_5 
REMARK       I    between atoms: C16_24  and  N1_7 
REMARK    3  A    between atoms: N1_7  and  N2_8 
REMARK    4  A    between atoms: C11_19  and  C4_12 
REMARK    5  A    between atoms: C10_18  and  C16_24 
ROOT
HETATM    1  O5  UNK     1       0.765   1.187  -2.868  1.00  0.00    -0.266 OA
HETATM    2  N1  UNK     1       1.437   0.891  -0.672  1.00  0.00    -0.243 N 
HETATM    3  C16 UNK     1       1.611   1.294  -1.983  1.00  0.00     0.271 C 
HETATM    4  H9  UNK     1       2.163   0.930   0.035  1.00  0.00     0.192 HD
ENDROOT
BRANCH   2   5
HETATM    5  N2  UNK     1       0.254   0.334  -0.318  1.00  0.00    -0.183 NA
HETATM    6  C11 UNK     1       0.198  -0.041   0.919  1.00  0.00     0.156 C 
BRANCH   6   7
HETATM    7  C4  UNK     1      -0.992  -0.665   1.497  1.00  0.00     0.056 A 
HETATM    8  C3  UNK     1      -2.232  -0.926   0.734  1.00  0.00     0.198 A 
HETATM    9  C1  UNK     1      -3.330  -1.565   1.485  1.00  0.00     0.050 A 
HETATM   10  O2  UNK     1      -2.344  -0.631  -0.448  1.00  0.00    -0.286 OA
HETATM   11  C2  UNK     1      -3.139  -1.876   2.832  1.00  0.00     0.089 A 
HETATM   12  C5  UNK     1      -4.545  -1.856   0.860  1.00  0.00     0.042 A 
HETATM   13  O1  UNK     1      -1.967  -1.613   3.498  1.00  0.00    -0.321 OA
HETATM   14  C6  UNK     1      -4.164  -2.480   3.561  1.00  0.00     0.040 A 
HETATM   15  C7  UNK     1      -0.951  -1.017   2.786  1.00  0.00     0.159 A 
HETATM   16  C9  UNK     1      -5.378  -2.771   2.939  1.00  0.00     0.026 A 
HETATM   17  C8  UNK     1      -5.568  -2.460   1.592  1.00  0.00     0.035 A 
HETATM   18 Cl1  UNK     1      -7.069  -2.824   0.832  1.00  0.00    -0.084 Cl
ENDBRANCH   6   7
ENDBRANCH   2   5
BRANCH   3  19
HETATM   19  C10 UNK     1       2.938   1.876  -2.310  1.00  0.00     0.039 A 
HETATM   20  C12 UNK     1       3.406   1.782  -3.604  1.00  0.00     0.053 A 
HETATM   21  C15 UNK     1       4.652   2.328  -3.911  1.00  0.00     0.069 A 
HETATM   22  C17 UNK     1       5.403   2.956  -2.917  1.00  0.00     0.073 A 
HETATM   23  C14 UNK     1       4.907   3.037  -1.616  1.00  0.00     0.069 A 
HETATM   24  C13 UNK     1       3.661   2.491  -1.309  1.00  0.00     0.053 A 
BRANCH  21  25
HETATM   25  O4  UNK     1       5.137   2.248  -5.181  1.00  0.00    -0.361 OA
HETATM   26  H11 UNK     1       6.010   2.676  -5.213  1.00  0.00     0.217 HD
ENDBRANCH  21  25
BRANCH  23  27
HETATM   27  O3  UNK     1       5.640   3.649  -0.645  1.00  0.00    -0.361 OA
HETATM   28  H10 UNK     1       5.148   3.613   0.193  1.00  0.00     0.217 HD
ENDBRANCH  23  27
ENDBRANCH   3  19
TORSDOF 5
