REMARK  1 active torsions:
REMARK  status: ('A' for Active; 'I' for Inactive)
REMARK    1  A    between atoms: C3_6  and  C9_12 
ROOT
HETATM    1  O1  UNK     1      -1.170  -0.355  -1.688  1.00  0.00    -0.275 OA
HETATM    2  O2  UNK     1      -3.224  -1.322  -1.410  1.00  0.00    -0.260 OA
HETATM    3  C1  UNK     1       0.086   0.366   0.279  1.00  0.00     0.005 A 
HETATM    4  C2  UNK     1      -0.027   0.228  -1.105  1.00  0.00     0.090 A 
HETATM    5  C3  UNK     1      -1.015  -0.110   1.126  1.00  0.00    -0.026 A 
HETATM    6  C4  UNK     1       2.125   1.237  -1.465  1.00  0.00    -0.059 A 
HETATM    7  C5  UNK     1       1.255   0.956   0.780  1.00  0.00     0.015 A 
HETATM    8  C6  UNK     1       0.972   0.654  -1.982  1.00  0.00     0.045 A 
HETATM    9  C7  UNK     1       2.266   1.388  -0.087  1.00  0.00     0.007 A 
HETATM   10  C8  UNK     1      -2.090  -0.661   0.545  1.00  0.00     0.091 A 
HETATM   11  C10 UNK     1      -2.225  -0.813  -0.914  1.00  0.00     0.288 A 
HETATM   12  C11 UNK     1       3.205   1.700  -2.382  1.00  0.00     0.048 C 
ENDROOT
BRANCH   5  13
HETATM   13  C9  UNK     1      -0.923   0.024   2.618  1.00  0.00     0.154 C 
HETATM   14 Cl1  UNK     1      -0.169  -1.419   3.305  1.00  0.00    -0.126 Cl
ENDBRANCH   5  13
TORSDOF 1
