REMARK  6 active torsions:
REMARK  status: ('A' for Active; 'I' for Inactive)
REMARK    1  A    between atoms: C1_6  and  O1_3 
REMARK    2  A    between atoms: C4_9  and  O1_3 
REMARK    3  A    between atoms: C3_8  and  O2_4 
REMARK    4  A    between atoms: C2_7  and  C9_14 
REMARK    5  A    between atoms: C4_9  and  C6_11 
REMARK    6  A    between atoms: C10_15  and  C11_16 
ROOT
HETATM    1  N1  UNK     1      -2.399   1.377   1.918  1.00  0.00    -0.191 NA
HETATM    2  C9  UNK     1      -2.062  -1.804   0.630  1.00  0.00     0.036 C 
HETATM    3  C10 UNK     1      -2.887  -1.139   1.482  1.00  0.00     0.055 C 
HETATM    4  C23 UNK     1      -2.609   0.253   1.718  1.00  0.00     0.100 C 
ENDROOT
BRANCH   3   5
HETATM    5  C11 UNK     1      -4.023  -1.753   2.153  1.00  0.00    -0.015 A 
HETATM    6  C16 UNK     1      -5.278  -1.748   1.544  1.00  0.00     0.013 A 
HETATM    7  C19 UNK     1      -6.367  -2.336   2.187  1.00  0.00     0.001 A 
HETATM    8  C21 UNK     1      -6.201  -2.930   3.439  1.00  0.00     0.000 A 
HETATM    9  C20 UNK     1      -4.946  -2.935   4.047  1.00  0.00     0.001 A 
HETATM   10  C17 UNK     1      -3.857  -2.347   3.404  1.00  0.00     0.013 A 
ENDBRANCH   3   5
BRANCH   2  11
HETATM   11  C2  UNK     1      -0.910  -1.223  -0.074  1.00  0.00    -0.015 A 
HETATM   12  C5  UNK     1       0.318  -1.270   0.575  1.00  0.00     0.052 A 
HETATM   13  C3  UNK     1       1.446  -0.733  -0.046  1.00  0.00     0.102 A 
HETATM   14  C1  UNK     1       1.337  -0.155  -1.310  1.00  0.00     0.103 A 
HETATM   15  C7  UNK     1       0.100  -0.113  -1.954  1.00  0.00     0.059 A 
HETATM   16  C8  UNK     1      -1.028  -0.649  -1.333  1.00  0.00     0.024 A 
HETATM   17 Br1  UNK     1      -2.681  -0.559  -2.265  1.00  0.00    -0.050 Br
BRANCH  13  18
HETATM   18  O2  UNK     1       2.649  -0.780   0.593  1.00  0.00    -0.353 OA
HETATM   19  C22 UNK     1       2.980   0.324   1.433  1.00  0.00     0.210 C 
ENDBRANCH  13  18
BRANCH  14  20
HETATM   20  O1  UNK     1       2.432   0.372  -1.927  1.00  0.00    -0.344 OA
BRANCH  20  21
HETATM   21  C4  UNK     1       2.212   1.464  -2.817  1.00  0.00     0.216 C 
BRANCH  21  22
HETATM   22  C6  UNK     1       3.437   2.330  -2.842  1.00  0.00    -0.012 A 
HETATM   23  C12 UNK     1       3.593   3.392  -1.957  1.00  0.00     0.042 A 
HETATM   24 Cl1  UNK     1       2.388   3.772  -0.781  1.00  0.00    -0.084 Cl
HETATM   25  C14 UNK     1       4.747   4.175  -2.010  1.00  0.00     0.024 A 
HETATM   26  C18 UNK     1       5.739   3.892  -2.950  1.00  0.00     0.002 A 
HETATM   27  C15 UNK     1       5.577   2.827  -3.835  1.00  0.00     0.001 A 
HETATM   28  C13 UNK     1       4.424   2.044  -3.781  1.00  0.00     0.011 A 
ENDBRANCH  21  22
ENDBRANCH  20  21
ENDBRANCH  14  20
ENDBRANCH   2  11
TORSDOF 6
