REMARK  4 active torsions:
REMARK  status: ('A' for Active; 'I' for Inactive)
REMARK    1  A    between atoms: C14_19  and  O3_3 
REMARK    2  A    between atoms: C1_6  and  N1_5 
REMARK       I    between atoms: C5_10  and  N1_5 
REMARK    3  A    between atoms: C1_6  and  C2_7 
REMARK    4  A    between atoms: C5_10  and  C6_11 
ROOT
HETATM    1  C1  UNK     1      -3.130  -1.159   2.110  1.00  0.00     0.092 C 
HETATM    2  C3  UNK     1      -2.972  -0.264   3.349  1.00  0.00     0.053 C 
HETATM    3  C7  UNK     1      -4.521  -1.054   1.618  1.00  0.00    -0.086 C 
HETATM    4  C16 UNK     1      -5.651  -0.966   1.221  1.00  0.00     0.015 C 
ENDROOT
BRANCH   1   5
HETATM    5  N1  UNK     1      -2.227  -0.686   1.086  1.00  0.00    -0.337 N 
HETATM    6  C5  UNK     1      -0.853  -0.658   1.246  1.00  0.00     0.259 C 
HETATM    7  O2  UNK     1      -0.231  -1.018   2.244  1.00  0.00    -0.267 OA
HETATM    8  H3  UNK     1      -2.635  -0.327   0.227  1.00  0.00     0.164 HD
BRANCH   6   9
HETATM    9  C6  UNK     1      -0.151  -0.139   0.066  1.00  0.00     0.108 A 
HETATM   10  C11 UNK     1      -0.688  -0.305  -1.303  1.00  0.00     0.304 A 
HETATM   11  O1  UNK     1       0.069   0.231  -2.341  1.00  0.00    -0.274 OA
HETATM   12  O4  UNK     1      -1.747  -0.884  -1.518  1.00  0.00    -0.259 OA
HETATM   13  C10 UNK     1       1.287   0.899  -2.104  1.00  0.00     0.089 A 
HETATM   14  C13 UNK     1       1.974   1.403  -3.207  1.00  0.00     0.041 A 
HETATM   15  C8  UNK     1       1.774   1.043  -0.809  1.00  0.00     0.002 A 
HETATM   16  C15 UNK     1       3.181   2.068  -3.005  1.00  0.00     0.039 A 
HETATM   17  C14 UNK     1       3.686   2.222  -1.712  1.00  0.00     0.069 A 
HETATM   18  C12 UNK     1       2.985   1.712  -0.615  1.00  0.00     0.051 A 
HETATM   19  C9  UNK     1       1.005   0.494   0.297  1.00  0.00     0.037 A 
BRANCH  17  20
HETATM   20  O3  UNK     1       4.867   2.873  -1.518  1.00  0.00    -0.356 OA
HETATM   21  C17 UNK     1       5.532   3.368  -2.679  1.00  0.00     0.210 C 
ENDBRANCH  17  20
ENDBRANCH   6   9
ENDBRANCH   1   5
BRANCH   1  22
HETATM   22  C2  UNK     1      -2.794  -2.619   2.495  1.00  0.00     0.040 C 
HETATM   23  C4  UNK     1      -2.865  -3.617   1.342  1.00  0.00     0.009 C 
ENDBRANCH   1  22
TORSDOF 4
