REMARK  4 active torsions:
REMARK  status: ('A' for Active; 'I' for Inactive)
REMARK    1  A    between atoms: C13_16  and  O2_2 
REMARK    2  A    between atoms: C5_8  and  O2_2 
REMARK    3  A    between atoms: C1_4  and  C6_9 
REMARK    4  A    between atoms: C13_16  and  C14_17 
ROOT
HETATM    1  O1  UNK     1      -2.460  -0.498  -0.831  1.00  0.00    -0.275 OA
HETATM    2  O3  UNK     1      -4.476  -1.546  -0.567  1.00  0.00    -0.260 OA
HETATM    3  C1  UNK     1       1.288   0.582   0.650  1.00  0.00    -0.024 A 
HETATM    4  C2  UNK     1      -0.840  -0.550   0.997  1.00  0.00     0.005 A 
HETATM    5  C3  UNK     1       0.427  -0.168   1.459  1.00  0.00     0.024 A 
HETATM    6  C4  UNK     1      -1.204  -0.155  -0.291  1.00  0.00     0.092 A 
HETATM    7  C5  UNK     1       0.896   0.963  -0.632  1.00  0.00     0.078 A 
HETATM    8  C7  UNK     1      -1.795  -1.336   1.788  1.00  0.00    -0.043 A 
HETATM    9  C8  UNK     1      -0.357   0.594  -1.110  1.00  0.00     0.075 A 
HETATM   10  C9  UNK     1      -2.982  -1.648   1.250  1.00  0.00     0.090 A 
HETATM   11  C11 UNK     1      -1.432  -1.778   3.176  1.00  0.00     0.049 C 
HETATM   12  C12 UNK     1      -3.381  -1.239  -0.107  1.00  0.00     0.288 A 
ENDROOT
BRANCH   7  13
HETATM   13  O2  UNK     1       1.726   1.693  -1.428  1.00  0.00    -0.347 OA
BRANCH  13  14
HETATM   14  C13 UNK     1       1.608   1.503  -2.837  1.00  0.00     0.202 C 
BRANCH  14  15
HETATM   15  C14 UNK     1       2.925   1.799  -3.473  1.00  0.00    -0.011 C 
HETATM   16  C15 UNK     1       3.626   0.912  -4.189  1.00  0.00     0.009 C 
ENDBRANCH  14  15
ENDBRANCH  13  14
ENDBRANCH   7  13
BRANCH   3  17
HETATM   17  C6  UNK     1       2.629   0.970   1.181  1.00  0.00     0.037 C 
HETATM   18  C10 UNK     1       2.599   2.311   1.906  1.00  0.00     0.010 C 
ENDBRANCH   3  17
TORSDOF 4
