REMARK  4 active torsions:
REMARK  status: ('A' for Active; 'I' for Inactive)
REMARK       I    between atoms: C12_17  and  N2_5 
REMARK    1  A    between atoms: C6_11  and  N2_5 
REMARK    2  A    between atoms: C1_6  and  C2_7 
REMARK    3  A    between atoms: C2_7  and  C6_11 
REMARK    4  A    between atoms: C12_17  and  C13_18 
ROOT
HETATM    1  O2  UNK     1      -0.247  -1.467  -2.920  1.00  0.00    -0.267 OA
HETATM    2  N2  UNK     1      -1.652  -0.270  -1.497  1.00  0.00    -0.356 N 
HETATM    3  C12 UNK     1      -0.477  -0.508  -2.186  1.00  0.00     0.257 C 
HETATM    4  H11 UNK     1      -1.732   0.539  -0.889  1.00  0.00     0.162 HD
ENDROOT
BRANCH   2   5
HETATM    5  C6  UNK     1      -2.794  -1.153  -1.557  1.00  0.00     0.127 C 
BRANCH   5   6
HETATM    6  C2  UNK     1      -2.757  -2.234  -0.480  1.00  0.00     0.061 C 
BRANCH   6   7
HETATM    7  C1  UNK     1      -2.769  -1.671   0.920  1.00  0.00    -0.022 A 
HETATM    8  C3  UNK     1      -1.628  -1.333   1.667  1.00  0.00    -0.001 A 
HETATM    9  C5  UNK     1      -2.096  -0.855   2.893  1.00  0.00     0.043 A 
HETATM   10  C7  UNK     1      -0.237  -1.378   1.443  1.00  0.00     0.014 A 
HETATM   11  N1  UNK     1      -3.471  -0.916   2.852  1.00  0.00    -0.359 N 
HETATM   12  C9  UNK     1      -1.241  -0.418   3.910  1.00  0.00     0.030 A 
HETATM   13  C4  UNK     1      -3.887  -1.415   1.647  1.00  0.00     0.013 A 
HETATM   14  H5  UNK     1      -4.081  -0.633   3.607  1.00  0.00     0.166 HD
HETATM   15  C8  UNK     1      -5.322  -1.583   1.347  1.00  0.00     0.068 C 
HETATM   16  C11 UNK     1       0.135  -0.472   3.665  1.00  0.00     0.002 A 
HETATM   17  C10 UNK     1       0.631  -0.945   2.452  1.00  0.00     0.001 A 
ENDBRANCH   6   7
ENDBRANCH   5   6
ENDBRANCH   2   5
BRANCH   3  18
HETATM   18  C13 UNK     1       0.535   0.532  -1.967  1.00  0.00     0.108 A 
HETATM   19  C15 UNK     1       1.812   0.139  -2.037  1.00  0.00     0.037 A 
HETATM   20  C14 UNK     1       2.887   1.098  -1.833  1.00  0.00    -0.001 A 
HETATM   21  C16 UNK     1       2.564   2.424  -1.565  1.00  0.00     0.089 A 
HETATM   22  C18 UNK     1       4.234   0.733  -1.898  1.00  0.00     0.014 A 
HETATM   23  O1  UNK     1       1.217   2.832  -1.492  1.00  0.00    -0.274 OA
HETATM   24  C19 UNK     1       3.545   3.392  -1.359  1.00  0.00     0.038 A 
HETATM   25  C17 UNK     1       0.168   1.938  -1.683  1.00  0.00     0.304 A 
HETATM   26  O3  UNK     1      -1.002   2.302  -1.616  1.00  0.00    -0.259 OA
HETATM   27  C21 UNK     1       4.886   3.019  -1.425  1.00  0.00     0.003 A 
HETATM   28  C20 UNK     1       5.230   1.692  -1.694  1.00  0.00     0.001 A 
ENDBRANCH   3  18
TORSDOF 4
