REMARK  6 active torsions:
REMARK  status: ('A' for Active; 'I' for Inactive)
REMARK    1  A    between atoms: C12_19  and  O3_3 
REMARK    2  A    between atoms: C20_27  and  O3_3 
REMARK    3  A    between atoms: C14_21  and  O5_5 
REMARK    4  A    between atoms: C21_28  and  O5_5 
REMARK    5  A    between atoms: C9_16  and  N1_6 
REMARK    6  A    between atoms: C1_8  and  C3_10 
ROOT
HETATM    1  O1  UNK     1      -0.015   1.989  -2.774  1.00  0.00    -0.269 OA
HETATM    2  O2  UNK     1       1.961   2.495  -1.620  1.00  0.00    -0.286 OA
HETATM    3  O4  UNK     1       2.239  -1.302  -0.185  1.00  0.00    -0.287 OA
HETATM    4  N2  UNK     1      -2.683  -1.838  -3.976  1.00  0.00    -0.191 NA
HETATM    5  C1  UNK     1      -0.080  -0.707  -1.804  1.00  0.00     0.109 C 
HETATM    6  C2  UNK     1       1.006   0.287  -1.458  1.00  0.00     0.065 A 
HETATM    7  C4  UNK     1      -1.003  -0.186  -2.898  1.00  0.00     0.086 C 
HETATM    8  C5  UNK     1       0.996   1.548  -1.928  1.00  0.00     0.204 A 
HETATM    9  C6  UNK     1       2.137  -0.154  -0.597  1.00  0.00     0.197 A 
HETATM   10  C7  UNK     1       3.139   0.868  -0.264  1.00  0.00     0.049 A 
HETATM   11  C9  UNK     1      -0.938   1.098  -3.317  1.00  0.00     0.162 C 
HETATM   12  C11 UNK     1       2.996   2.146  -0.794  1.00  0.00     0.092 A 
HETATM   13  C15 UNK     1       4.219   0.567   0.570  1.00  0.00     0.018 A 
HETATM   14  C16 UNK     1       3.933   3.135  -0.494  1.00  0.00     0.038 A 
HETATM   15  C17 UNK     1      -1.931  -1.098  -3.493  1.00  0.00     0.100 C 
HETATM   16  C18 UNK     1       5.156   1.557   0.869  1.00  0.00     0.001 A 
HETATM   17  C19 UNK     1       5.013   2.840   0.338  1.00  0.00     0.003 A 
ENDROOT
BRANCH   5  18
HETATM   18  C3  UNK     1      -0.876  -1.064  -0.582  1.00  0.00    -0.041 A 
HETATM   19  C10 UNK     1      -0.891  -2.380  -0.133  1.00  0.00     0.011 A 
HETATM   20  C13 UNK     1      -1.630  -2.712   1.002  1.00  0.00     0.040 A 
HETATM   21  C14 UNK     1      -2.349  -1.727   1.680  1.00  0.00     0.102 A 
HETATM   22  C12 UNK     1      -2.328  -0.409   1.223  1.00  0.00     0.102 A 
HETATM   23  C8  UNK     1      -1.589  -0.077   0.087  1.00  0.00     0.047 A 
BRANCH  21  24
HETATM   24  O5  UNK     1      -3.068  -2.064   2.787  1.00  0.00    -0.349 OA
BRANCH  24  25
HETATM   25  C21 UNK     1      -2.346  -2.624   3.883  1.00  0.00     0.171 C 
HETATM   26  C23 UNK     1      -3.039  -2.245   5.174  1.00  0.00     0.034 C 
ENDBRANCH  24  25
ENDBRANCH  21  24
BRANCH  22  27
HETATM   27  O3  UNK     1      -3.027   0.561   1.875  1.00  0.00    -0.349 OA
BRANCH  27  28
HETATM   28  C20 UNK     1      -2.281   1.659   2.395  1.00  0.00     0.171 C 
HETATM   29  C22 UNK     1      -2.988   2.201   3.618  1.00  0.00     0.034 C 
ENDBRANCH  27  28
ENDBRANCH  22  27
ENDBRANCH   5  18
BRANCH  11  30
HETATM   30  N1  UNK     1      -1.736   1.652  -4.280  1.00  0.00    -0.379 N 
HETATM   31  H7  UNK     1      -2.447   1.104  -4.747  1.00  0.00     0.158 HD
HETATM   32  H8  UNK     1      -1.606   2.627  -4.520  1.00  0.00     0.158 HD
ENDBRANCH  11  30
TORSDOF 6
