REMARK  7 active torsions:
REMARK  status: ('A' for Active; 'I' for Inactive)
REMARK    1  A    between atoms: C5_14  and  O2_2 
REMARK    2  A    between atoms: C8_17  and  O2_2 
REMARK    3  A    between atoms: C2_11  and  O3_3 
REMARK    4  A    between atoms: C3_12  and  O4_4 
REMARK    5  A    between atoms: C6_15  and  O5_5 
REMARK    6  A    between atoms: C1_10  and  N1_9 
REMARK       I    between atoms: C7_16  and  N1_9 
REMARK    7  A    between atoms: C4_13  and  C6_15 
ROOT
HETATM    1  O1  UNK     1      -1.758   0.143  -0.157  1.00  0.00    -0.349 OA
HETATM    2  C1  UNK     1      -1.806  -1.755   1.380  1.00  0.00     0.171 C 
HETATM    3  C2  UNK     1      -3.029  -2.320   0.649  1.00  0.00     0.177 C 
HETATM    4  C3  UNK     1      -3.771  -1.218  -0.122  1.00  0.00     0.180 C 
HETATM    5  C4  UNK     1      -2.810  -0.380  -0.977  1.00  0.00     0.179 C 
HETATM    6  C5  UNK     1      -0.961  -0.882   0.436  1.00  0.00     0.292 C 
ENDROOT
BRANCH   6   7
HETATM    7  O2  UNK     1       0.127  -0.322   1.168  1.00  0.00    -0.318 OA
BRANCH   7   8
HETATM    8  C8  UNK     1       0.990   0.478   0.469  1.00  0.00     0.074 A 
HETATM    9  C10 UNK     1       1.163   1.804   0.848  1.00  0.00     0.038 A 
HETATM   10  C14 UNK     1       2.044   2.627   0.138  1.00  0.00     0.017 A 
HETATM   11  C13 UNK     1       2.760   2.131  -0.960  1.00  0.00     0.004 A 
HETATM   12  C12 UNK     1       2.561   0.795  -1.312  1.00  0.00     0.092 A 
HETATM   13  C15 UNK     1       3.701   2.935  -1.752  1.00  0.00    -0.043 A 
HETATM   14  O7  UNK     1       3.243   0.221  -2.404  1.00  0.00    -0.275 OA
HETATM   15  C9  UNK     1       1.686  -0.038  -0.613  1.00  0.00     0.075 A 
HETATM   16  C18 UNK     1       4.135   0.955  -3.169  1.00  0.00     0.288 A 
HETATM   17  C16 UNK     1       4.335   2.362  -2.784  1.00  0.00     0.090 A 
HETATM   18  O8  UNK     1       4.734   0.464  -4.120  1.00  0.00    -0.260 OA
HETATM   19  C17 UNK     1       3.937   4.374  -1.398  1.00  0.00     0.049 C 
ENDBRANCH   7   8
ENDBRANCH   6   7
BRANCH   2  20
HETATM   20  N1  UNK     1      -2.220  -1.006   2.549  1.00  0.00    -0.349 N 
HETATM   21  C7  UNK     1      -2.388  -1.582   3.795  1.00  0.00     0.214 C 
HETATM   22  C11 UNK     1      -2.798  -0.575   4.836  1.00  0.00     0.117 C 
HETATM   23  O6  UNK     1      -2.215  -2.766   4.071  1.00  0.00    -0.274 OA
HETATM   24  H8  UNK     1      -2.438  -0.020   2.428  1.00  0.00     0.163 HD
ENDBRANCH   2  20
BRANCH   3  25
HETATM   25  O3  UNK     1      -2.610  -3.362  -0.236  1.00  0.00    -0.391 OA
HETATM   26  H9  UNK     1      -3.398  -3.669  -0.716  1.00  0.00     0.210 HD
ENDBRANCH   3  25
BRANCH   5  27
HETATM   27  C6  UNK     1      -3.508   0.813  -1.624  1.00  0.00     0.198 C 
BRANCH  27  28
HETATM   28  O5  UNK     1      -2.556   1.536  -2.382  1.00  0.00    -0.398 OA
HETATM   29  H11 UNK     1      -2.219   0.944  -3.077  1.00  0.00     0.209 HD
ENDBRANCH  27  28
ENDBRANCH   5  27
BRANCH   4  30
HETATM   30  O4  UNK     1      -4.788  -1.816  -0.917  1.00  0.00    -0.390 OA
HETATM   31  H10 UNK     1      -5.377  -2.308  -0.320  1.00  0.00     0.210 HD
ENDBRANCH   4  30
TORSDOF 7
