REMARK  5 active torsions:
REMARK  status: ('A' for Active; 'I' for Inactive)
REMARK    1  A    between atoms: C8_13  and  O2_2 
REMARK    2  A    between atoms: C17_22  and  O5_5 
REMARK    3  A    between atoms: C1_6  and  C2_7 
REMARK    4  A    between atoms: C2_7  and  C6_11 
REMARK    5  A    between atoms: C10_15  and  C6_11 
ROOT
HETATM    1  O1  UNK     1      -3.071  -1.102   0.047  1.00  0.00    -0.271 OA
HETATM    2  O4  UNK     1      -2.460  -0.265  -1.988  1.00  0.00    -0.259 OA
HETATM    3  C1  UNK     1      -1.174   0.447  -0.123  1.00  0.00     0.026 A 
HETATM    4  C3  UNK     1      -1.840  -0.453   2.037  1.00  0.00     0.001 A 
HETATM    5  C4  UNK     1      -2.866  -1.174   1.437  1.00  0.00     0.123 A 
HETATM    6  C5  UNK     1      -0.985   0.374   1.202  1.00  0.00     0.028 A 
HETATM    7  C7  UNK     1      -2.268  -0.317  -0.777  1.00  0.00     0.295 A 
HETATM    8  C8  UNK     1      -3.722  -1.986   2.178  1.00  0.00     0.102 A 
HETATM    9  C9  UNK     1      -1.666  -0.548   3.419  1.00  0.00     0.014 A 
HETATM   10  C11 UNK     1      -3.542  -2.076   3.557  1.00  0.00     0.040 A 
HETATM   11  C12 UNK     1      -2.517  -1.359   4.176  1.00  0.00     0.004 A 
ENDROOT
BRANCH   3  12
HETATM   12  C2  UNK     1      -0.310   1.289  -1.011  1.00  0.00     0.129 C 
BRANCH  12  13
HETATM   13  C6  UNK     1       0.882   0.496  -1.518  1.00  0.00     0.164 C 
HETATM   14  O3  UNK     1       0.854  -0.723  -1.675  1.00  0.00    -0.292 OA
BRANCH  13  15
HETATM   15  C10 UNK     1       2.142   1.235  -1.822  1.00  0.00     0.010 A 
HETATM   16  C13 UNK     1       2.055   2.543  -2.241  1.00  0.00     0.018 A 
HETATM   17  C15 UNK     1       3.233   3.234  -2.525  1.00  0.00     0.037 A 
HETATM   18  C17 UNK     1       4.466   2.598  -2.381  1.00  0.00     0.068 A 
HETATM   19  C16 UNK     1       4.521   1.272  -1.954  1.00  0.00     0.037 A 
HETATM   20  C14 UNK     1       3.343   0.581  -1.670  1.00  0.00     0.018 A 
BRANCH  18  21
HETATM   21  O5  UNK     1       5.615   3.272  -2.660  1.00  0.00    -0.356 OA
HETATM   22  C19 UNK     1       6.841   2.563  -2.491  1.00  0.00     0.210 C 
ENDBRANCH  18  21
ENDBRANCH  13  15
ENDBRANCH  12  13
ENDBRANCH   3  12
BRANCH   8  23
HETATM   23  O2  UNK     1      -4.722  -2.686   1.579  1.00  0.00    -0.353 OA
HETATM   24  C18 UNK     1      -4.413  -4.003   1.125  1.00  0.00     0.210 C 
ENDBRANCH   8  23
TORSDOF 5
