REMARK  5 active torsions:
REMARK  status: ('A' for Active; 'I' for Inactive)
REMARK    1  A    between atoms: C5_12  and  N1_5 
REMARK    2  A    between atoms: C6_13  and  N2_6 
REMARK    3  A    between atoms: C17_24  and  N3_7 
REMARK       I    between atoms: C9_16  and  N3_7 
REMARK    4  A    between atoms: C5_12  and  C7_14 
REMARK    5  A    between atoms: C6_13  and  C9_16 
ROOT
HETATM    1  N1  UNK     1       2.095   0.054  -0.392  1.00  0.00     0.096 N 
HETATM    2  N2  UNK     1       0.085  -0.775   1.513  1.00  0.00     0.100 N 
HETATM    3  C1  UNK     1       0.784  -0.437  -0.833  1.00  0.00     0.303 C 
HETATM    4  C2  UNK     1       2.466  -0.555   0.891  1.00  0.00     0.303 C 
HETATM    5  C3  UNK     1      -0.286  -0.165   0.230  1.00  0.00     0.303 C 
HETATM    6  C4  UNK     1       1.395  -0.282   1.954  1.00  0.00     0.303 C 
ENDROOT
BRANCH   1   7
HETATM    7  C5  UNK     1       3.116  -0.209  -1.405  1.00  0.00     0.312 C 
BRANCH   7   8
HETATM    8  C7  UNK     1       3.085   0.792  -2.507  1.00  0.00    -0.011 A 
HETATM    9  C10 UNK     1       2.328   0.600  -3.597  1.00  0.00     0.092 A 
HETATM   10  C13 UNK     1       2.265   1.561  -4.711  1.00  0.00     0.288 A 
HETATM   11  O1  UNK     1       3.038   2.705  -4.591  1.00  0.00    -0.275 OA
HETATM   12  O3  UNK     1       1.560   1.352  -5.692  1.00  0.00    -0.260 OA
HETATM   13  C11 UNK     1       3.844   2.935  -3.457  1.00  0.00     0.090 A 
HETATM   14  C8  UNK     1       3.893   2.015  -2.409  1.00  0.00     0.006 A 
HETATM   15  C14 UNK     1       4.580   4.121  -3.444  1.00  0.00     0.045 A 
HETATM   16  C12 UNK     1       4.719   2.317  -1.318  1.00  0.00     0.015 A 
HETATM   17  C16 UNK     1       5.463   3.502  -1.290  1.00  0.00     0.007 A 
HETATM   18  C15 UNK     1       5.394   4.402  -2.352  1.00  0.00    -0.059 A 
HETATM   19  C18 UNK     1       6.189   5.663  -2.316  1.00  0.00     0.048 C 
ENDBRANCH   7   8
ENDBRANCH   1   7
BRANCH   2  20
HETATM   20  C6  UNK     1      -0.936  -0.514   2.526  1.00  0.00     0.375 C 
BRANCH  20  21
HETATM   21  C9  UNK     1      -2.092  -1.482   2.340  1.00  0.00     0.250 C 
HETATM   22  O2  UNK     1      -1.942  -2.611   1.885  1.00  0.00    -0.271 OA
HETATM   23  N3  UNK     1      -3.284  -0.895   2.759  1.00  0.00    -0.326 N 
HETATM   24  H15 UNK     1      -3.241   0.054   3.124  1.00  0.00     0.169 HD
BRANCH  23  25
HETATM   25  C17 UNK     1      -4.578  -1.466   2.748  1.00  0.00     0.037 A 
HETATM   26  C19 UNK     1      -4.763  -2.766   2.277  1.00  0.00     0.072 A 
HETATM   27  C21 UNK     1      -6.039  -3.329   2.266  1.00  0.00     0.124 A 
HETATM   28  F1  UNK     1      -6.207  -4.578   1.811  1.00  0.00    -0.205 F 
HETATM   29  C23 UNK     1      -7.130  -2.592   2.727  1.00  0.00    -0.023 A 
HETATM   30  C22 UNK     1      -6.946  -1.293   3.198  1.00  0.00     0.012 A 
HETATM   31  C24 UNK     1      -8.497  -3.191   2.716  1.00  0.00     0.051 C 
HETATM   32  C20 UNK     1      -5.670  -0.730   3.209  1.00  0.00     0.030 A 
ENDBRANCH  23  25
ENDBRANCH  20  21
ENDBRANCH   2  20
TORSDOF 5
