REMARK  3 active torsions:
REMARK  status: ('A' for Active; 'I' for Inactive)
REMARK    1  A    between atoms: C1_8  and  S1_2 
REMARK    2  A    between atoms: N1_7  and  S1_2 
REMARK    3  A    between atoms: C5_12  and  N1_7 
ROOT
HETATM    1  S1  UNK     1       1.899   1.359   1.697  1.00  0.00     0.263 S 
HETATM    2  O2  UNK     1       2.550   1.068   2.969  1.00  0.00    -0.200 OA
HETATM    3  O3  UNK     1       1.514   2.734   1.403  1.00  0.00    -0.200 OA
ENDROOT
BRANCH   1   4
HETATM    4  C1  UNK     1       0.481   0.346   1.582  1.00  0.00     0.080 A 
HETATM    5  C3  UNK     1      -0.586   0.731   0.765  1.00  0.00     0.039 A 
HETATM    6  C2  UNK     1      -1.721  -0.077   0.670  1.00  0.00    -0.001 A 
HETATM    7  C10 UNK     1      -2.857   0.274  -0.165  1.00  0.00     0.020 A 
HETATM    8  C4  UNK     1      -1.766  -1.262   1.401  1.00  0.00     0.089 A 
HETATM    9  C14 UNK     1      -3.921  -0.530  -0.224  1.00  0.00     0.083 A 
HETATM   10  C15 UNK     1      -3.992  -1.789   0.539  1.00  0.00     0.288 A 
HETATM   11  O1  UNK     1      -2.893  -2.106   1.331  1.00  0.00    -0.275 OA
HETATM   12  O4  UNK     1      -4.976  -2.517   0.473  1.00  0.00    -0.260 OA
HETATM   13  C7  UNK     1      -0.711  -1.658   2.221  1.00  0.00     0.040 A 
HETATM   14  C6  UNK     1       0.418  -0.846   2.309  1.00  0.00     0.028 A 
ENDBRANCH   1   4
BRANCH   1  15
HETATM   15  N1  UNK     1       2.901   0.757   0.432  1.00  0.00    -0.281 N 
HETATM   16  H2  UNK     1       3.544  -0.003   0.690  1.00  0.00     0.179 HD
BRANCH  15  17
HETATM   17  C5  UNK     1       2.335   0.646  -0.885  1.00  0.00     0.044 A 
HETATM   18  C8  UNK     1       1.852   1.781  -1.525  1.00  0.00     0.054 A 
HETATM   19  C12 UNK     1       1.305   1.672  -2.803  1.00  0.00     0.042 A 
HETATM   20  C11 UNK     1       1.244   0.429  -3.432  1.00  0.00    -0.040 A 
HETATM   21 Cl1  UNK     1       0.713   3.098  -3.576  1.00  0.00    -0.084 Cl
HETATM   22  C13 UNK     1       1.731  -0.706  -2.783  1.00  0.00     0.011 A 
HETATM   23  C16 UNK     1       0.666   0.270  -4.802  1.00  0.00     0.050 C 
HETATM   24  C9  UNK     1       2.278  -0.597  -1.505  1.00  0.00     0.031 A 
ENDBRANCH  15  17
ENDBRANCH   1  15
TORSDOF 3
