REMARK  2 active torsions:
REMARK  status: ('A' for Active; 'I' for Inactive)
REMARK    1  A    between atoms: C10_14  and  O3_4 
REMARK    2  A    between atoms: C3_7  and  C5_9 
ROOT
HETATM    1  O1  UNK     1      -2.036  -0.650  -1.351  1.00  0.00    -0.274 OA
HETATM    2  O2  UNK     1      -0.610   0.194  -2.909  1.00  0.00    -0.259 OA
HETATM    3  C1  UNK     1      -0.133   0.006   0.647  1.00  0.00    -0.032 A 
HETATM    4  C2  UNK     1      -1.417  -0.633   1.005  1.00  0.00     0.007 A 
HETATM    5  C3  UNK     1       0.126   0.277  -0.651  1.00  0.00     0.057 A 
HETATM    6  C4  UNK     1      -2.323  -0.938  -0.007  1.00  0.00     0.090 A 
HETATM    7  C6  UNK     1      -0.847  -0.052  -1.730  1.00  0.00     0.300 A 
HETATM    8  C7  UNK     1      -1.791  -0.958   2.318  1.00  0.00     0.051 A 
HETATM    9  C8  UNK     1       0.821   0.320   1.777  1.00  0.00     0.050 C 
HETATM   10  C9  UNK     1      -3.558  -1.542   0.246  1.00  0.00     0.041 A 
HETATM   11  C10 UNK     1      -3.024  -1.563   2.591  1.00  0.00     0.066 A 
HETATM   12  C13 UNK     1      -3.907  -1.855   1.555  1.00  0.00     0.039 A 
ENDROOT
BRANCH   5  13
HETATM   13  C5  UNK     1       1.383   0.910  -1.044  1.00  0.00    -0.019 A 
HETATM   14  C11 UNK     1       2.486   0.121  -1.356  1.00  0.00     0.014 A 
HETATM   15  C14 UNK     1       3.686   0.726  -1.731  1.00  0.00     0.024 A 
HETATM   16  C16 UNK     1       3.777   2.117  -1.793  1.00  0.00     0.034 A 
HETATM   17  C15 UNK     1       2.667   2.903  -1.480  1.00  0.00     0.024 A 
HETATM   18 Cl1  UNK     1       5.257   2.863  -2.256  1.00  0.00    -0.084 Cl
HETATM   19  C12 UNK     1       1.468   2.298  -1.105  1.00  0.00     0.014 A 
ENDBRANCH   5  13
BRANCH  11  20
HETATM   20  O3  UNK     1      -3.360  -1.866   3.875  1.00  0.00    -0.361 OA
HETATM   21  H11 UNK     1      -2.635  -1.596   4.465  1.00  0.00     0.217 HD
ENDBRANCH  11  20
TORSDOF 2
