REMARK  5 active torsions:
REMARK  status: ('A' for Active; 'I' for Inactive)
REMARK    1  A    between atoms: C5_12  and  N1_5 
REMARK    2  A    between atoms: C6_13  and  N2_6 
REMARK    3  A    between atoms: C5_12  and  C7_14 
REMARK    4  A    between atoms: C6_13  and  C8_15 
REMARK    5  A    between atoms: C14_21  and  C20_27 
ROOT
HETATM    1  N1  UNK     1      -1.715  -1.339  -0.439  1.00  0.00     0.096 N 
HETATM    2  N2  UNK     1      -0.242   0.294  -2.316  1.00  0.00     0.097 N 
HETATM    3  C1  UNK     1      -0.369  -0.844  -0.126  1.00  0.00     0.303 C 
HETATM    4  C2  UNK     1      -1.872  -1.513  -1.888  1.00  0.00     0.303 C 
HETATM    5  C3  UNK     1      -0.083   0.467  -0.867  1.00  0.00     0.303 C 
HETATM    6  C4  UNK     1      -1.588  -0.202  -2.629  1.00  0.00     0.303 C 
ENDROOT
BRANCH   2   7
HETATM    7  C6  UNK     1       0.027   1.546  -3.020  1.00  0.00     0.334 C 
BRANCH   7   8
HETATM    8  C8  UNK     1       1.505   1.731  -3.150  1.00  0.00     0.095 A 
HETATM    9  C10 UNK     1       2.342   1.318  -4.155  1.00  0.00     0.078 A 
HETATM   10  O1  UNK     1       3.606   1.714  -3.838  1.00  0.00    -0.294 OA
HETATM   11  C16 UNK     1       2.168   0.587  -5.415  1.00  0.00     0.079 C 
HETATM   12  C14 UNK     1       3.450   2.350  -2.645  1.00  0.00     0.182 A 
HETATM   13  N3  UNK     1       2.220   2.392  -2.184  1.00  0.00    -0.224 NA
BRANCH  12  14
HETATM   14  C20 UNK     1       4.656   2.879  -2.071  1.00  0.00     0.039 A 
HETATM   15  C22 UNK     1       4.828   2.990  -0.691  1.00  0.00     0.048 A 
HETATM   16 Cl1  UNK     1       3.602   2.500   0.427  1.00  0.00    -0.083 Cl
HETATM   17  C24 UNK     1       6.015   3.509  -0.175  1.00  0.00     0.025 A 
HETATM   18  C26 UNK     1       7.032   3.916  -1.040  1.00  0.00     0.002 A 
HETATM   19  C25 UNK     1       6.860   3.805  -2.419  1.00  0.00     0.001 A 
HETATM   20  C23 UNK     1       5.673   3.287  -2.935  1.00  0.00     0.017 A 
ENDBRANCH  12  14
ENDBRANCH   7   8
ENDBRANCH   2   7
BRANCH   1  21
HETATM   21  C5  UNK     1      -1.986  -2.590   0.266  1.00  0.00     0.312 C 
BRANCH  21  22
HETATM   22  C7  UNK     1      -2.373  -2.362   1.686  1.00  0.00    -0.011 A 
HETATM   23  C11 UNK     1      -1.451  -2.319   2.658  1.00  0.00     0.092 A 
HETATM   24  C15 UNK     1      -1.786  -2.097   4.075  1.00  0.00     0.288 A 
HETATM   25  O2  UNK     1      -3.128  -1.928   4.378  1.00  0.00    -0.275 OA
HETATM   26  O3  UNK     1      -0.915  -2.063   4.937  1.00  0.00    -0.260 OA
HETATM   27  C12 UNK     1      -4.121  -1.968   3.378  1.00  0.00     0.090 A 
HETATM   28  C9  UNK     1      -3.788  -2.180   2.039  1.00  0.00     0.006 A 
HETATM   29  C17 UNK     1      -5.439  -1.787   3.798  1.00  0.00     0.045 A 
HETATM   30  C13 UNK     1      -4.832  -2.207   1.106  1.00  0.00     0.015 A 
HETATM   31  C18 UNK     1      -6.159  -2.027   1.512  1.00  0.00     0.007 A 
HETATM   32  C19 UNK     1      -6.462  -1.816   2.856  1.00  0.00    -0.059 A 
HETATM   33  C21 UNK     1      -7.878  -1.624   3.282  1.00  0.00     0.048 C 
ENDBRANCH  21  22
ENDBRANCH   1  21
TORSDOF 5
