REMARK  4 active torsions:
REMARK  status: ('A' for Active; 'I' for Inactive)
REMARK    1  A    between atoms: C14_20  and  O2_2 
REMARK    2  A    between atoms: C6_12  and  O2_2 
REMARK    3  A    between atoms: C10_16  and  C3_9 
REMARK    4  A    between atoms: C14_20  and  C15_21 
ROOT
HETATM    1  O1  UNK     1       2.533   1.569  -0.638  1.00  0.00    -0.307 OA
HETATM    2  O4  UNK     1      -0.312   0.522  -3.360  1.00  0.00    -0.287 OA
HETATM    3  C1  UNK     1       0.302   0.720  -1.087  1.00  0.00     0.051 A 
HETATM    4  C2  UNK     1       1.318   1.097  -0.211  1.00  0.00     0.090 A 
HETATM    5  C3  UNK     1       2.759   1.669  -2.003  1.00  0.00     0.113 A 
HETATM    6  C4  UNK     1      -0.916   0.246  -0.595  1.00  0.00     0.055 A 
HETATM    7  C5  UNK     1       0.536   0.832  -2.535  1.00  0.00     0.187 A 
HETATM    8  C6  UNK     1      -1.110   0.152   0.784  1.00  0.00     0.080 A 
HETATM    9  C7  UNK     1       1.121   1.002   1.167  1.00  0.00     0.041 A 
HETATM   10  C8  UNK     1       1.859   1.344  -2.944  1.00  0.00     0.095 A 
HETATM   11  C9  UNK     1      -0.094   0.529   1.663  1.00  0.00     0.040 A 
ENDROOT
BRANCH   8  12
HETATM   12  O2  UNK     1      -2.294  -0.309   1.274  1.00  0.00    -0.275 OA
BRANCH  12  13
HETATM   13  C14 UNK     1      -2.339  -1.692   1.464  1.00  0.00     0.300 C 
HETATM   14  O5  UNK     1      -1.426  -2.471   1.237  1.00  0.00    -0.259 OA
BRANCH  13  15
HETATM   15  C15 UNK     1      -3.658  -2.118   1.998  1.00  0.00     0.057 A 
HETATM   16  C16 UNK     1      -3.892  -3.446   2.261  1.00  0.00     0.020 A 
HETATM   17  C18 UNK     1      -5.137  -3.815   2.760  1.00  0.00     0.020 A 
HETATM   18  C19 UNK     1      -6.075  -2.817   2.966  1.00  0.00     0.116 A 
HETATM   19  N1  UNK     1      -5.855  -1.507   2.711  1.00  0.00    -0.272 NA
HETATM   20  C17 UNK     1      -4.634  -1.187   2.227  1.00  0.00     0.133 A 
ENDBRANCH  13  15
ENDBRANCH  12  13
ENDBRANCH   8  12
BRANCH   5  21
HETATM   21  C10 UNK     1       4.094   2.195  -2.352  1.00  0.00     0.108 A 
HETATM   22  C11 UNK     1       5.110   2.567  -1.490  1.00  0.00     0.042 A 
HETATM   23  C12 UNK     1       6.185   3.006  -2.299  1.00  0.00     0.027 A 
HETATM   24  C13 UNK     1       5.762   2.876  -3.601  1.00  0.00     0.142 A 
HETATM   25  O3  UNK     1       4.495   2.385  -3.644  1.00  0.00    -0.320 OA
ENDBRANCH   5  21
TORSDOF 4
