REMARK  5 active torsions:
REMARK  status: ('A' for Active; 'I' for Inactive)
REMARK    1  A    between atoms: C16_20  and  O2_2 
REMARK    2  A    between atoms: C8_12  and  O2_2 
REMARK    3  A    between atoms: C15_19  and  O4_4 
REMARK    4  A    between atoms: C2_6  and  C5_9 
REMARK    5  A    between atoms: C16_20  and  C17_21 
ROOT
HETATM    1  O1  UNK     1       1.072   0.396   1.301  1.00  0.00    -0.321 OA
HETATM    2  O3  UNK     1      -1.814  -0.529  -1.431  1.00  0.00    -0.286 OA
HETATM    3  C1  UNK     1       0.372   0.242  -1.018  1.00  0.00     0.049 A 
HETATM    4  C2  UNK     1      -1.163  -0.446   0.858  1.00  0.00     0.048 A 
HETATM    5  C3  UNK     1       1.316   0.552  -0.039  1.00  0.00     0.091 A 
HETATM    6  C4  UNK     1      -0.947  -0.273  -0.605  1.00  0.00     0.197 A 
HETATM    7  C6  UNK     1       0.675   0.422  -2.370  1.00  0.00     0.021 A 
HETATM    8  C7  UNK     1       2.568   1.044  -0.407  1.00  0.00     0.075 A 
HETATM    9  C8  UNK     1       2.873   1.225  -1.756  1.00  0.00     0.071 A 
HETATM   10  C9  UNK     1      -0.153  -0.104   1.672  1.00  0.00     0.159 A 
HETATM   11  C10 UNK     1       1.929   0.914  -2.735  1.00  0.00     0.038 A 
ENDROOT
BRANCH   4  12
HETATM   12  C5  UNK     1      -2.419  -0.987   1.402  1.00  0.00    -0.020 A 
HETATM   13  C11 UNK     1      -3.463  -0.125   1.744  1.00  0.00     0.015 A 
HETATM   14  C13 UNK     1      -4.654  -0.639   2.260  1.00  0.00     0.037 A 
HETATM   15  C15 UNK     1      -4.802  -2.015   2.435  1.00  0.00     0.068 A 
HETATM   16  C14 UNK     1      -3.761  -2.877   2.093  1.00  0.00     0.037 A 
HETATM   17  C12 UNK     1      -2.570  -2.364   1.578  1.00  0.00     0.015 A 
BRANCH  15  18
HETATM   18  O4  UNK     1      -5.964  -2.515   2.937  1.00  0.00    -0.356 OA
HETATM   19  C20 UNK     1      -6.049  -3.931   3.089  1.00  0.00     0.210 C 
ENDBRANCH  15  18
ENDBRANCH   4  12
BRANCH   9  20
HETATM   20  O2  UNK     1       4.095   1.703  -2.118  1.00  0.00    -0.347 OA
BRANCH  20  21
HETATM   21  C16 UNK     1       4.163   2.466  -3.323  1.00  0.00     0.208 C 
BRANCH  21  22
HETATM   22  C17 UNK     1       5.305   3.438  -3.239  1.00  0.00    -0.069 C 
HETATM   23  C18 UNK     1       6.679   2.856  -3.076  1.00  0.00     0.044 C 
HETATM   24  C19 UNK     1       5.109   4.762  -3.329  1.00  0.00     0.016 C 
ENDBRANCH  21  22
ENDBRANCH  20  21
ENDBRANCH   9  20
TORSDOF 5
