REMARK  4 active torsions:
REMARK  status: ('A' for Active; 'I' for Inactive)
REMARK       I    between atoms: C13_18  and  N1_5 
REMARK    1  A    between atoms: C5_10  and  N1_5 
REMARK    2  A    between atoms: C1_6  and  C3_8 
REMARK    3  A    between atoms: C2_7  and  C4_9 
REMARK    4  A    between atoms: C13_18  and  C14_19 
ROOT
HETATM    1  O2  UNK     1       0.511  -1.738   0.076  1.00  0.00    -0.267 OA
HETATM    2  N1  UNK     1      -1.220  -0.159   0.355  1.00  0.00    -0.322 N 
HETATM    3  C13 UNK     1       0.004  -0.632  -0.098  1.00  0.00     0.262 C 
HETATM    4  H17 UNK     1      -1.443   0.827   0.240  1.00  0.00     0.169 HD
ENDROOT
BRANCH   2   5
HETATM    5  C5  UNK     1      -2.145  -0.871   1.124  1.00  0.00     0.048 A 
HETATM    6  C1  UNK     1      -2.078  -0.825   2.517  1.00  0.00    -0.027 A 
HETATM    7  C6  UNK     1      -3.000  -1.536   3.285  1.00  0.00     0.010 A 
HETATM    8  C12 UNK     1      -3.990  -2.293   2.660  1.00  0.00     0.001 A 
HETATM    9  C7  UNK     1      -4.058  -2.340   1.267  1.00  0.00     0.010 A 
HETATM   10  C2  UNK     1      -3.136  -1.629   0.500  1.00  0.00    -0.027 A 
BRANCH   6  11
HETATM   11  C3  UNK     1      -1.029  -0.022   3.216  1.00  0.00     0.013 C 
HETATM   12  C8  UNK     1      -0.094  -0.897   4.071  1.00  0.00     0.015 C 
HETATM   13  C9  UNK     1      -1.629   1.103   4.078  1.00  0.00     0.015 C 
ENDBRANCH   6  11
BRANCH  10  14
HETATM   14  C4  UNK     1      -3.234  -1.699  -0.990  1.00  0.00     0.013 C 
HETATM   15  C10 UNK     1      -4.563  -1.128  -1.516  1.00  0.00     0.015 C 
HETATM   16  C11 UNK     1      -3.028  -3.128  -1.524  1.00  0.00     0.015 C 
ENDBRANCH  10  14
ENDBRANCH   2   5
BRANCH   3  17
HETATM   17  C14 UNK     1       0.726   0.380  -0.880  1.00  0.00     0.108 A 
HETATM   18  C15 UNK     1       2.062   0.318  -0.837  1.00  0.00     0.037 A 
HETATM   19  C16 UNK     1       2.865   1.277  -1.579  1.00  0.00     0.000 A 
HETATM   20  C17 UNK     1       2.221   2.256  -2.330  1.00  0.00     0.089 A 
HETATM   21  C19 UNK     1       4.262   1.250  -1.563  1.00  0.00     0.033 A 
HETATM   22  O1  UNK     1       0.814   2.316  -2.371  1.00  0.00    -0.274 OA
HETATM   23  C20 UNK     1       2.931   3.205  -3.062  1.00  0.00     0.039 A 
HETATM   24  C18 UNK     1       0.019   1.412  -1.672  1.00  0.00     0.304 A 
HETATM   25  O3  UNK     1      -1.205   1.472  -1.713  1.00  0.00    -0.259 OA
HETATM   26  C22 UNK     1       4.324   3.171  -3.041  1.00  0.00     0.022 A 
HETATM   27  C21 UNK     1       4.988   2.196  -2.293  1.00  0.00     0.011 A 
HETATM   28 Br1  UNK     1       6.878   2.154  -2.269  1.00  0.00    -0.051 Br
ENDBRANCH   3  17
TORSDOF 4
