REMARK  3 active torsions:
REMARK  status: ('A' for Active; 'I' for Inactive)
REMARK    1  A    between atoms: C5_13  and  O2_5 
REMARK    2  A    between atoms: C10_18  and  N1_8 
REMARK       I    between atoms: C8_16  and  N1_8 
REMARK    3  A    between atoms: C3_11  and  C8_16 
ROOT
HETATM    1  O1  UNK     1       2.729   0.858  -0.458  1.00  0.00    -0.271 OA
HETATM    2  O4  UNK     1       1.499  -0.343   1.048  1.00  0.00    -0.259 OA
HETATM    3  C1  UNK     1       1.738   1.488  -2.586  1.00  0.00     0.002 A 
HETATM    4  C2  UNK     1       2.820   1.493  -1.711  1.00  0.00     0.123 A 
HETATM    5  C3  UNK     1       0.432   0.214  -0.993  1.00  0.00     0.108 A 
HETATM    6  C4  UNK     1       0.512   0.816  -2.185  1.00  0.00     0.037 A 
HETATM    7  C5  UNK     1       4.022   2.119  -2.035  1.00  0.00     0.102 A 
HETATM    8  C6  UNK     1       1.866   2.130  -3.821  1.00  0.00     0.014 A 
HETATM    9  C7  UNK     1       1.569   0.207  -0.046  1.00  0.00     0.304 A 
HETATM   10  C9  UNK     1       4.142   2.756  -3.268  1.00  0.00     0.040 A 
HETATM   11  C11 UNK     1       3.066   2.762  -4.159  1.00  0.00     0.004 A 
ENDROOT
BRANCH   5  12
HETATM   12  C8  UNK     1      -0.846  -0.437  -0.680  1.00  0.00     0.262 C 
HETATM   13  O3  UNK     1      -1.534  -0.899  -1.588  1.00  0.00    -0.267 OA
HETATM   14  N1  UNK     1      -1.114  -0.437   0.682  1.00  0.00    -0.321 N 
HETATM   15  H5  UNK     1      -0.449   0.009   1.309  1.00  0.00     0.169 HD
BRANCH  14  16
HETATM   16  C10 UNK     1      -2.248  -0.973   1.340  1.00  0.00     0.058 A 
HETATM   17  C12 UNK     1      -2.373  -0.892   2.717  1.00  0.00     0.062 A 
HETATM   18 Cl1  UNK     1      -1.171  -0.144   3.707  1.00  0.00    -0.082 Cl
HETATM   19  C15 UNK     1      -3.505  -1.427   3.334  1.00  0.00     0.051 A 
HETATM   20  C16 UNK     1      -4.496  -2.036   2.564  1.00  0.00     0.057 A 
HETATM   21  C14 UNK     1      -4.355  -2.111   1.179  1.00  0.00     0.058 A 
HETATM   22 Cl3  UNK     1      -5.874  -2.679   3.386  1.00  0.00    -0.082 Cl
HETATM   23  C13 UNK     1      -3.224  -1.576   0.562  1.00  0.00     0.057 A 
HETATM   24 Cl2  UNK     1      -5.548  -2.854   0.172  1.00  0.00    -0.082 Cl
ENDBRANCH  14  16
ENDBRANCH   5  12
BRANCH   7  25
HETATM   25  O2  UNK     1       5.072   2.116  -1.170  1.00  0.00    -0.353 OA
HETATM   26  C17 UNK     1       5.151   3.195  -0.239  1.00  0.00     0.210 C 
ENDBRANCH   7  25
TORSDOF 3
