REMARK  0 active torsions:
REMARK  status: ('A' for Active; 'I' for Inactive)
ROOT
HETATM    1  O1  UNK     1      -0.404  -0.193   1.302  1.00  0.00    -0.275 OA
HETATM    2  O2  UNK     1      -2.355  -1.181   1.983  1.00  0.00    -0.260 OA
HETATM    3  C1  UNK     1      -0.061   0.240  -1.068  1.00  0.00    -0.002 A 
HETATM    4  C2  UNK     1       0.391   0.299   0.247  1.00  0.00     0.089 A 
HETATM    5  C3  UNK     1       0.755   0.738  -2.086  1.00  0.00     0.014 A 
HETATM    6  C4  UNK     1      -1.367  -0.339  -1.335  1.00  0.00     0.020 A 
HETATM    7  C5  UNK     1       1.633   0.842   0.572  1.00  0.00     0.038 A 
HETATM    8  C6  UNK     1       2.003   1.285  -1.775  1.00  0.00     0.001 A 
HETATM    9  C7  UNK     1       2.441   1.337  -0.450  1.00  0.00     0.003 A 
HETATM   10  C8  UNK     1      -2.114  -0.804  -0.330  1.00  0.00     0.083 A 
HETATM   11  C9  UNK     1      -1.657  -0.751   1.071  1.00  0.00     0.288 A 
ENDROOT
TORSDOF 0
