REMARK  3 active torsions:
REMARK  status: ('A' for Active; 'I' for Inactive)
REMARK    1  A    between atoms: C11_16  and  O2_3 
REMARK    2  A    between atoms: C5_10  and  O2_3 
REMARK    3  A    between atoms: C11_16  and  C12_17 
ROOT
HETATM    1  I1  UNK     1      -0.362  -0.119  -2.972  1.00  0.00    -0.039 I 
HETATM    2  O1  UNK     1      -2.336  -0.822  -0.601  1.00  0.00    -0.273 OA
HETATM    3  O3  UNK     1      -4.515  -1.460  -0.331  1.00  0.00    -0.260 OA
HETATM    4  C1  UNK     1      -0.924  -0.527   1.370  1.00  0.00     0.005 A 
HETATM    5  C2  UNK     1      -1.096  -0.499  -0.014  1.00  0.00     0.109 A 
HETATM    6  C3  UNK     1      -2.067  -0.902   2.214  1.00  0.00    -0.043 A 
HETATM    7  C4  UNK     1       0.340  -0.194   1.875  1.00  0.00     0.017 A 
HETATM    8  C5  UNK     1       1.185   0.173  -0.367  1.00  0.00     0.088 A 
HETATM    9  C6  UNK     1      -0.062  -0.154  -0.887  1.00  0.00     0.074 A 
HETATM   10  C7  UNK     1       1.386   0.154   1.013  1.00  0.00     0.039 A 
HETATM   11  C8  UNK     1      -3.234  -1.204   1.629  1.00  0.00     0.090 A 
HETATM   12  C9  UNK     1      -1.914  -0.942   3.706  1.00  0.00     0.049 C 
HETATM   13  C10 UNK     1      -3.432  -1.178   0.169  1.00  0.00     0.288 A 
ENDROOT
BRANCH   8  14
HETATM   14  O2  UNK     1       2.237   0.520  -1.161  1.00  0.00    -0.343 OA
BRANCH  14  15
HETATM   15  C11 UNK     1       2.797   1.817  -0.964  1.00  0.00     0.253 C 
BRANCH  15  16
HETATM   16  C12 UNK     1       3.395   2.342  -2.252  1.00  0.00     0.146 C 
HETATM   17  O4  UNK     1       3.365   1.702  -3.302  1.00  0.00    -0.296 OA
HETATM   18  C13 UNK     1       4.035   3.703  -2.183  1.00  0.00     0.093 C 
ENDBRANCH  15  16
ENDBRANCH  14  15
ENDBRANCH   8  14
TORSDOF 3
