REMARK  2 active torsions:
REMARK  status: ('A' for Active; 'I' for Inactive)
REMARK    1  A    between atoms: C3_12  and  N1_9 
REMARK       I    between atoms: C6_15  and  N1_9 
REMARK    2  A    between atoms: C2_11  and  C6_15 
ROOT
HETATM    1  O2  UNK     1       0.888   0.078   1.512  1.00  0.00    -0.267 OA
HETATM    2  N1  UNK     1      -0.822  -0.101  -0.104  1.00  0.00    -0.317 N 
HETATM    3  C6  UNK     1       0.425   0.258   0.387  1.00  0.00     0.262 C 
HETATM    4  H2  UNK     1      -0.960  -0.076  -1.112  1.00  0.00     0.169 HD
ENDROOT
BRANCH   2   5
HETATM    5  C3  UNK     1      -1.830  -0.757   0.608  1.00  0.00     0.119 A 
HETATM    6  C7  UNK     1      -2.722  -1.593  -0.061  1.00  0.00     0.188 A 
HETATM    7  C13 UNK     1      -3.728  -2.248   0.650  1.00  0.00     0.199 A 
HETATM    8  F1  UNK     1      -2.624  -1.776  -1.385  1.00  0.00    -0.200 F 
HETATM    9  C14 UNK     1      -3.840  -2.066   2.028  1.00  0.00     0.199 A 
HETATM   10  F4  UNK     1      -4.588  -3.050   0.008  1.00  0.00    -0.199 F 
HETATM   11  C12 UNK     1      -2.946  -1.229   2.696  1.00  0.00     0.199 A 
HETATM   12  F5  UNK     1      -4.806  -2.694   2.711  1.00  0.00    -0.199 F 
HETATM   13  C8  UNK     1      -1.940  -0.574   1.985  1.00  0.00     0.188 A 
HETATM   14  F3  UNK     1      -3.054  -1.053   4.020  1.00  0.00    -0.199 F 
HETATM   15  F2  UNK     1      -1.087   0.229   2.637  1.00  0.00    -0.200 F 
ENDBRANCH   2   5
BRANCH   3  16
HETATM   16  C2  UNK     1       1.239   0.935  -0.630  1.00  0.00     0.108 A 
HETATM   17  C4  UNK     1       2.564   0.774  -0.530  1.00  0.00     0.037 A 
HETATM   18  C1  UNK     1       3.454   1.407  -1.492  1.00  0.00    -0.001 A 
HETATM   19  C5  UNK     1       2.905   2.178  -2.511  1.00  0.00     0.089 A 
HETATM   20  C10 UNK     1       4.842   1.267  -1.426  1.00  0.00     0.014 A 
HETATM   21  C11 UNK     1       3.701   2.810  -3.464  1.00  0.00     0.038 A 
HETATM   22  O1  UNK     1       1.509   2.342  -2.612  1.00  0.00    -0.274 OA
HETATM   23  C16 UNK     1       5.085   2.666  -3.391  1.00  0.00     0.003 A 
HETATM   24  C15 UNK     1       5.654   1.895  -2.374  1.00  0.00     0.001 A 
HETATM   25  C9  UNK     1       0.633   1.750  -1.707  1.00  0.00     0.304 A 
HETATM   26  O3  UNK     1      -0.581   1.899  -1.801  1.00  0.00    -0.259 OA
ENDBRANCH   3  16
TORSDOF 2
