REMARK  4 active torsions:
REMARK  status: ('A' for Active; 'I' for Inactive)
REMARK    1  A    between atoms: C9_16  and  O3_3 
REMARK    2  A    between atoms: C12_19  and  O5_5 
REMARK    3  A    between atoms: C7_14  and  N1_6 
REMARK    4  A    between atoms: C1_8  and  C3_10 
ROOT
HETATM    1  O1  UNK     1       2.121   1.469   0.712  1.00  0.00    -0.291 OA
HETATM    2  O2  UNK     1       1.048   0.023  -3.065  1.00  0.00    -0.274 OA
HETATM    3  O4  UNK     1      -0.391  -1.455  -2.094  1.00  0.00    -0.259 OA
HETATM    4  N2  UNK     1       0.018  -1.223   4.108  1.00  0.00    -0.191 NA
HETATM    5  C1  UNK     1       0.085  -0.551   0.598  1.00  0.00     0.111 C 
HETATM    6  C2  UNK     1       0.779   0.008  -0.629  1.00  0.00     0.066 A 
HETATM    7  C4  UNK     1       1.717   0.960  -0.510  1.00  0.00     0.104 A 
HETATM    8  C5  UNK     1       0.742  -0.086   1.894  1.00  0.00     0.086 C 
HETATM    9  C6  UNK     1       2.371   1.528  -1.685  1.00  0.00     0.033 A 
HETATM   10  C7  UNK     1       1.692   0.876   1.898  1.00  0.00     0.159 C 
HETATM   11  C8  UNK     1       0.420  -0.544  -1.961  1.00  0.00     0.298 A 
HETATM   12  C10 UNK     1       2.011   1.042  -2.938  1.00  0.00     0.092 A 
HETATM   13  C13 UNK     1       3.339   2.538  -1.622  1.00  0.00     0.017 A 
HETATM   14  C15 UNK     1       2.580   1.530  -4.115  1.00  0.00     0.038 A 
HETATM   15  C17 UNK     1       0.342  -0.714   3.117  1.00  0.00     0.100 C 
HETATM   16  C18 UNK     1       3.920   3.038  -2.792  1.00  0.00     0.001 A 
HETATM   17  C19 UNK     1       3.540   2.534  -4.037  1.00  0.00     0.003 A 
ENDROOT
BRANCH   5  18
HETATM   18  C3  UNK     1      -1.370  -0.178   0.595  1.00  0.00    -0.008 A 
HETATM   19  C11 UNK     1      -1.720   1.167   0.639  1.00  0.00     0.011 A 
HETATM   20  C14 UNK     1      -3.066   1.532   0.637  1.00  0.00     0.003 A 
HETATM   21  C16 UNK     1      -4.055   0.549   0.591  1.00  0.00     0.039 A 
HETATM   22  C12 UNK     1      -3.697  -0.799   0.547  1.00  0.00     0.102 A 
HETATM   23  C9  UNK     1      -2.350  -1.163   0.549  1.00  0.00     0.108 A 
BRANCH  22  24
HETATM   24  O5  UNK     1      -4.672  -1.749   0.502  1.00  0.00    -0.353 OA
HETATM   25  C21 UNK     1      -5.122  -2.155  -0.789  1.00  0.00     0.210 C 
ENDBRANCH  22  24
BRANCH  23  26
HETATM   26  O3  UNK     1      -2.005  -2.482   0.505  1.00  0.00    -0.353 OA
HETATM   27  C20 UNK     1      -2.467  -3.307   1.572  1.00  0.00     0.210 C 
ENDBRANCH  23  26
ENDBRANCH   5  18
BRANCH  10  28
HETATM   28  N1  UNK     1       2.319   1.360   3.013  1.00  0.00    -0.379 N 
HETATM   29  H8  UNK     1       3.019   2.083   2.904  1.00  0.00     0.158 HD
HETATM   30  H9  UNK     1       2.091   1.008   3.933  1.00  0.00     0.158 HD
ENDBRANCH  10  28
TORSDOF 4
