REMARK  5 active torsions:
REMARK  status: ('A' for Active; 'I' for Inactive)
REMARK    1  A    between atoms: C1_3  and  N1_2 
REMARK       I    between atoms: C5_7  and  N1_2 
REMARK    2  A    between atoms: C1_3  and  C3_5 
REMARK    3  A    between atoms: C2_4  and  C4_6 
REMARK    4  A    between atoms: C2_4  and  C5_7 
REMARK    5  A    between atoms: C6_8  and  C7_9 
ROOT
HETATM    1  C2  UNK     1       0.724   0.630  -0.303  1.00  0.00     0.043 C 
HETATM    2  C6  UNK     1       0.793   0.245   0.989  1.00  0.00     0.029 C 
ENDROOT
BRANCH   1   3
HETATM    3  C4  UNK     1       1.898   1.151  -1.029  1.00  0.00    -0.021 A 
HETATM    4  C10 UNK     1       1.711   2.070  -2.047  1.00  0.00     0.012 A 
HETATM    5  C14 UNK     1       2.821   2.563  -2.733  1.00  0.00     0.001 A 
HETATM    6  C15 UNK     1       4.101   2.127  -2.392  1.00  0.00     0.000 A 
HETATM    7  C13 UNK     1       4.272   1.200  -1.364  1.00  0.00     0.001 A 
HETATM    8  C9  UNK     1       3.162   0.708  -0.678  1.00  0.00     0.012 A 
ENDBRANCH   1   3
BRANCH   1   9
HETATM    9  C5  UNK     1      -0.631   0.517  -0.956  1.00  0.00     0.252 C 
HETATM   10  O1  UNK     1      -1.447   1.436  -0.913  1.00  0.00    -0.268 OA
HETATM   11  N1  UNK     1      -0.860  -0.695  -1.586  1.00  0.00    -0.357 N 
HETATM   12  H5  UNK     1      -0.140  -1.412  -1.570  1.00  0.00     0.162 HD
BRANCH  11  13
HETATM   13  C1  UNK     1      -2.103  -0.992  -2.260  1.00  0.00     0.122 C 
BRANCH  13  14
HETATM   14  C3  UNK     1      -3.128  -1.634  -1.332  1.00  0.00     0.015 C 
HETATM   15  C8  UNK     1      -4.433  -1.969  -2.039  1.00  0.00     0.006 C 
ENDBRANCH  13  14
ENDBRANCH  11  13
ENDBRANCH   1   9
BRANCH   2  16
HETATM   16  C7  UNK     1      -0.322  -0.283   1.789  1.00  0.00    -0.035 A 
HETATM   17  C11 UNK     1      -1.131   0.595   2.494  1.00  0.00     0.011 A 
HETATM   18  C16 UNK     1      -2.188   0.094   3.253  1.00  0.00     0.001 A 
HETATM   19  C18 UNK     1      -2.425  -1.280   3.298  1.00  0.00     0.000 A 
HETATM   20  C17 UNK     1      -1.603  -2.153   2.584  1.00  0.00     0.001 A 
HETATM   21  C12 UNK     1      -0.546  -1.652   1.825  1.00  0.00     0.011 A 
ENDBRANCH   2  16
TORSDOF 5
