REMARK  1 active torsions:
REMARK  status: ('A' for Active; 'I' for Inactive)
REMARK    1  A    between atoms: C1_7  and  C4_10 
ROOT
HETATM    1 Cl1  UNK     1       5.516   2.790  -0.142  1.00  0.00    -0.084 Cl
HETATM    2  O1  UNK     1       0.847   0.188  -2.611  1.00  0.00    -0.303 OA
HETATM    3  O2  UNK     1      -1.704  -0.974  -3.484  1.00  0.00    -0.265 OA
HETATM    4  O3  UNK     1       0.392   1.807   1.138  1.00  0.00    -0.287 OA
HETATM    5  N1  UNK     1      -2.502  -0.279  -1.368  1.00  0.00    -0.338 N 
HETATM    6  C1  UNK     1      -1.946   0.400  -0.199  1.00  0.00     0.160 A 
HETATM    7  C2  UNK     1      -0.550   0.625  -0.675  1.00  0.00     0.060 A 
HETATM    8  C3  UNK     1      -0.314   0.140  -1.897  1.00  0.00     0.156 A 
HETATM    9  C5  UNK     1      -1.567  -0.456  -2.389  1.00  0.00     0.278 A 
HETATM   10  C6  UNK     1       0.537   1.315   0.029  1.00  0.00     0.196 A 
HETATM   11  C7  UNK     1       1.821   1.373  -0.709  1.00  0.00     0.050 A 
HETATM   12  C8  UNK     1      -3.903  -0.642  -1.459  1.00  0.00     0.154 C 
HETATM   13  C9  UNK     1       1.911   0.806  -1.989  1.00  0.00     0.090 A 
HETATM   14  C12 UNK     1       2.935   1.988  -0.134  1.00  0.00     0.042 A 
HETATM   15  C13 UNK     1       3.114   0.856  -2.692  1.00  0.00     0.040 A 
HETATM   16  C16 UNK     1       4.137   2.034  -0.842  1.00  0.00     0.035 A 
HETATM   17  C18 UNK     1       4.226   1.470  -2.117  1.00  0.00     0.026 A 
ENDROOT
BRANCH   6  18
HETATM   18  C4  UNK     1      -2.006  -0.446   1.027  1.00  0.00    -0.030 A 
HETATM   19  C10 UNK     1      -2.134   0.150   2.282  1.00  0.00     0.012 A 
HETATM   20  C14 UNK     1      -2.190  -0.643   3.428  1.00  0.00     0.043 A 
HETATM   21  C17 UNK     1      -2.120  -2.032   3.320  1.00  0.00     0.116 A 
HETATM   22  C15 UNK     1      -1.992  -2.628   2.066  1.00  0.00     0.043 A 
HETATM   23  F1  UNK     1      -2.175  -2.793   4.421  1.00  0.00    -0.206 F 
HETATM   24  C11 UNK     1      -1.935  -1.836   0.919  1.00  0.00     0.012 A 
ENDBRANCH   6  18
TORSDOF 1
