REMARK  4 active torsions:
REMARK  status: ('A' for Active; 'I' for Inactive)
REMARK    1  A    between atoms: C11_18  and  N1_6 
REMARK    2  A    between atoms: C4_11  and  N1_6 
REMARK    3  A    between atoms: C11_18  and  N2_7 
REMARK    4  A    between atoms: C12_19  and  N2_7 
ROOT
HETATM    1  N1  UNK     1      -1.227   0.098  -2.438  1.00  0.00    -0.333 N 
HETATM    2  H8  UNK     1      -1.582   0.034  -3.390  1.00  0.00     0.168 HD
ENDROOT
BRANCH   1   3
HETATM    3  C11 UNK     1      -2.079  -0.488  -1.492  1.00  0.00     0.176 C 
HETATM    4  S1  UNK     1      -3.574  -1.045  -2.037  1.00  0.00    -0.041 SA
BRANCH   3   5
HETATM    5  N2  UNK     1      -1.549  -0.653  -0.226  1.00  0.00    -0.333 N 
HETATM    6  H9  UNK     1      -0.538  -0.741  -0.216  1.00  0.00     0.168 HD
BRANCH   5   7
HETATM    7  C12 UNK     1      -2.111  -1.199   0.955  1.00  0.00     0.036 A 
HETATM    8  C13 UNK     1      -3.447  -0.970   1.236  1.00  0.00     0.056 A 
HETATM    9  C15 UNK     1      -4.000  -1.507   2.399  1.00  0.00     0.074 A 
HETATM   10 Cl1  UNK     1      -5.660  -1.232   2.764  1.00  0.00    -0.081 Cl
HETATM   11  C17 UNK     1      -3.208  -2.263   3.263  1.00  0.00     0.138 A 
HETATM   12  C16 UNK     1      -1.863  -2.483   2.964  1.00  0.00     0.046 A 
HETATM   13  F1  UNK     1      -3.724  -2.785   4.385  1.00  0.00    -0.204 F 
HETATM   14  C14 UNK     1      -1.311  -1.947   1.801  1.00  0.00     0.032 A 
ENDBRANCH   5   7
ENDBRANCH   3   5
ENDBRANCH   1   3
BRANCH   1  15
HETATM   15  C4  UNK     1       0.086   0.561  -2.350  1.00  0.00     0.036 A 
HETATM   16  C5  UNK     1       0.586   1.018  -1.136  1.00  0.00     0.067 A 
HETATM   17  C2  UNK     1       1.903   1.476  -1.070  1.00  0.00     0.092 A 
HETATM   18  C1  UNK     1       2.743   1.492  -2.185  1.00  0.00     0.004 A 
HETATM   19  O1  UNK     1       2.353   1.925   0.187  1.00  0.00    -0.275 OA
HETATM   20  C3  UNK     1       4.115   1.991  -2.024  1.00  0.00    -0.043 A 
HETATM   21  C6  UNK     1       2.220   1.028  -3.399  1.00  0.00     0.017 A 
HETATM   22  C8  UNK     1       4.516   2.412  -0.817  1.00  0.00     0.090 A 
HETATM   23  C9  UNK     1       5.043   2.022  -3.204  1.00  0.00     0.049 C 
HETATM   24  C10 UNK     1       3.642   2.401   0.369  1.00  0.00     0.288 A 
HETATM   25  O2  UNK     1       4.043   2.794   1.458  1.00  0.00    -0.260 OA
HETATM   26  C7  UNK     1       0.901   0.566  -3.481  1.00  0.00     0.030 A 
ENDBRANCH   1  15
TORSDOF 4
