REMARK  5 active torsions:
REMARK  status: ('A' for Active; 'I' for Inactive)
REMARK    1  A    between atoms: C12_17  and  O1_1 
REMARK    2  A    between atoms: C9_14  and  N1_5 
REMARK    3  A    between atoms: C1_6  and  C3_8 
REMARK    4  A    between atoms: C1_6  and  C12_17 
REMARK    5  A    between atoms: C2_7  and  C4_9 
ROOT
HETATM    1  C1  UNK     1      -1.825  -0.700  -0.093  1.00  0.00     0.050 C 
HETATM    2  C4  UNK     1      -1.322  -0.344  -1.303  1.00  0.00     0.030 C 
ENDROOT
BRANCH   1   3
HETATM    3  C3  UNK     1      -1.072  -0.482   1.157  1.00  0.00    -0.020 A 
HETATM    4  C7  UNK     1      -1.229   0.710   1.843  1.00  0.00     0.012 A 
HETATM    5  C13 UNK     1      -0.518   0.916   3.025  1.00  0.00     0.001 A 
HETATM    6  C15 UNK     1       0.340  -0.074   3.504  1.00  0.00     0.000 A 
HETATM    7  C14 UNK     1       0.487  -1.270   2.801  1.00  0.00     0.001 A 
HETATM    8  C8  UNK     1      -0.224  -1.475   1.619  1.00  0.00     0.012 A 
ENDBRANCH   1   3
BRANCH   1   9
HETATM    9  C12 UNK     1      -3.181  -1.331  -0.087  1.00  0.00     0.293 C 
HETATM   10  O2  UNK     1      -3.856  -1.539  -1.086  1.00  0.00    -0.259 OA
BRANCH   9  11
HETATM   11  O1  UNK     1      -3.535  -1.640   1.191  1.00  0.00    -0.322 OA
HETATM   12  C16 UNK     1      -4.815  -2.262   1.348  1.00  0.00     0.213 C 
ENDBRANCH   9  11
ENDBRANCH   1   9
BRANCH   2  13
HETATM   13  C2  UNK     1      -0.035   0.291  -1.542  1.00  0.00    -0.035 A 
HETATM   14  C5  UNK     1       0.062   1.682  -1.568  1.00  0.00     0.014 A 
HETATM   15  C10 UNK     1       1.297   2.290  -1.795  1.00  0.00     0.037 A 
HETATM   16  C9  UNK     1       2.434   1.507  -1.995  1.00  0.00     0.102 A 
HETATM   17  C11 UNK     1       2.336   0.116  -1.969  1.00  0.00     0.037 A 
HETATM   18  C6  UNK     1       1.102  -0.492  -1.742  1.00  0.00     0.014 A 
BRANCH  16  19
HETATM   19  N1  UNK     1       3.691   2.126  -2.227  1.00  0.00    -0.116 N 
HETATM   20  O3  UNK     1       3.758   3.379  -2.247  1.00  0.00    -0.532 OA
HETATM   21  O4  UNK     1       4.701   1.403  -2.404  1.00  0.00    -0.532 OA
ENDBRANCH  16  19
ENDBRANCH   2  13
TORSDOF 5
