REMARK  3 active torsions:
REMARK  status: ('A' for Active; 'I' for Inactive)
REMARK    1  A    between atoms: C1_6  and  N1_4 
REMARK       I    between atoms: C5_10  and  N1_4 
REMARK    2  A    between atoms: C1_6  and  C2_7 
REMARK    3  A    between atoms: C4_9  and  C5_10 
ROOT
HETATM    1  O2  UNK     1       1.311  -0.435   1.963  1.00  0.00    -0.267 OA
HETATM    2  N1  UNK     1      -0.813  -0.146   1.049  1.00  0.00    -0.348 N 
HETATM    3  C5  UNK     1       0.569  -0.093   1.045  1.00  0.00     0.258 C 
HETATM    4  H2  UNK     1      -1.329   0.222   0.255  1.00  0.00     0.163 HD
ENDROOT
BRANCH   3   5
HETATM    5  C4  UNK     1       1.117   0.431  -0.212  1.00  0.00     0.108 A 
HETATM    6  C11 UNK     1       0.424   0.248  -1.507  1.00  0.00     0.304 A 
HETATM    7  O1  UNK     1       1.043   0.792  -2.629  1.00  0.00    -0.274 OA
HETATM    8  O3  UNK     1      -0.643  -0.350  -1.593  1.00  0.00    -0.259 OA
HETATM    9  C8  UNK     1       2.268   1.482  -2.541  1.00  0.00     0.089 A 
HETATM   10  C13 UNK     1       2.810   1.990  -3.720  1.00  0.00     0.038 A 
HETATM   11  C6  UNK     1       2.902   1.642  -1.314  1.00  0.00    -0.001 A 
HETATM   12  C17 UNK     1       4.021   2.677  -3.665  1.00  0.00     0.003 A 
HETATM   13  C16 UNK     1       4.673   2.847  -2.442  1.00  0.00     0.001 A 
HETATM   14  C12 UNK     1       4.116   2.331  -1.268  1.00  0.00     0.014 A 
HETATM   15  C7  UNK     1       2.280   1.086  -0.122  1.00  0.00     0.037 A 
ENDBRANCH   3   5
BRANCH   2  16
HETATM   16  C1  UNK     1      -1.580  -0.628   2.175  1.00  0.00     0.114 C 
HETATM   17  C3  UNK     1      -1.832   0.498   3.176  1.00  0.00     0.037 C 
BRANCH  16  18
HETATM   18  C2  UNK     1      -2.860  -1.297   1.722  1.00  0.00    -0.033 A 
HETATM   19  C10 UNK     1      -3.822  -0.548   1.077  1.00  0.00     0.028 A 
HETATM   20  C15 UNK     1      -4.976  -1.207   0.683  1.00  0.00     0.116 A 
HETATM   21  N2  UNK     1      -5.206  -2.522   0.894  1.00  0.00    -0.273 NA
HETATM   22  C14 UNK     1      -4.230  -3.208   1.530  1.00  0.00     0.116 A 
HETATM   23  C9  UNK     1      -3.041  -2.643   1.963  1.00  0.00     0.028 A 
ENDBRANCH  16  18
ENDBRANCH   2  16
TORSDOF 3
