REMARK  7 active torsions:
REMARK  status: ('A' for Active; 'I' for Inactive)
REMARK    1  A    between atoms: C18_27  and  O5_5 
REMARK    2  A    between atoms: C21_30  and  O6_6 
REMARK    3  A    between atoms: C28_37  and  O7_7 
REMARK       I    between atoms: C12_21  and  N2_9 
REMARK    4  A    between atoms: C24_33  and  N2_9 
REMARK    5  A    between atoms: C1_10  and  C9_18 
REMARK    6  A    between atoms: C11_20  and  C4_13 
REMARK    7  A    between atoms: C12_21  and  C8_17 
ROOT
HETATM    1  O1  UNK     1      -1.624   2.493   2.589  1.00  0.00    -0.293 OA
HETATM    2  N1  UNK     1       1.650  -0.919   2.610  1.00  0.00    -0.362 N 
HETATM    3  C1  UNK     1      -1.877  -0.927   3.913  1.00  0.00     0.031 C 
HETATM    4  C2  UNK     1      -0.362  -1.187   3.994  1.00  0.00     0.067 C 
HETATM    5  C3  UNK     1      -0.010   0.763   2.451  1.00  0.00     0.024 C 
HETATM    6  C4  UNK     1       0.805   1.503   1.397  1.00  0.00     0.104 C 
HETATM    7  C5  UNK     1       0.425  -0.399   2.980  1.00  0.00     0.021 C 
HETATM    8  C6  UNK     1      -2.137   0.584   3.928  1.00  0.00     0.093 C 
HETATM    9  C7  UNK     1      -1.287   1.363   2.942  1.00  0.00     0.159 C 
HETATM   10  C8  UNK     1       2.190   0.888   1.178  1.00  0.00     0.045 C 
HETATM   11  C10 UNK     1       2.545  -0.278   1.767  1.00  0.00     0.018 C 
HETATM   12  C15 UNK     1       3.877  -0.966   1.627  1.00  0.00     0.069 C 
HETATM   13  H7  UNK     1       1.947  -1.786   3.041  1.00  0.00     0.165 HD
ENDROOT
BRANCH  10  14
HETATM   14  C12 UNK     1       3.104   1.636   0.299  1.00  0.00     0.255 C 
HETATM   15  O3  UNK     1       3.850   2.483   0.782  1.00  0.00    -0.268 OA
HETATM   16  N2  UNK     1       2.981   1.250  -1.027  1.00  0.00    -0.321 N 
HETATM   17  H15 UNK     1       2.313   0.516  -1.249  1.00  0.00     0.169 HD
BRANCH  16  18
HETATM   18  C24 UNK     1       3.698   1.753  -2.139  1.00  0.00     0.068 A 
HETATM   19  C28 UNK     1       3.448   1.254  -3.407  1.00  0.00     0.095 A 
HETATM   20  C32 UNK     1       4.162   1.759  -4.493  1.00  0.00     0.039 A 
HETATM   21  C34 UNK     1       5.116   2.758  -4.296  1.00  0.00     0.003 A 
HETATM   22  C33 UNK     1       5.356   3.251  -3.014  1.00  0.00     0.002 A 
HETATM   23  C29 UNK     1       4.642   2.745  -1.927  1.00  0.00     0.032 A 
BRANCH  19  24
HETATM   24  O7  UNK     1       2.521   0.278  -3.620  1.00  0.00    -0.354 OA
HETATM   25  C35 UNK     1       2.973  -1.073  -3.547  1.00  0.00     0.210 C 
ENDBRANCH  19  24
ENDBRANCH  16  18
ENDBRANCH  10  14
BRANCH   6  26
HETATM   26  C11 UNK     1       0.046   1.554   0.098  1.00  0.00     0.029 A 
HETATM   27  C16 UNK     1      -0.281   0.275  -0.582  1.00  0.00     0.194 A 
HETATM   28  O4  UNK     1       0.046  -0.810  -0.120  1.00  0.00    -0.287 OA
HETATM   29  C19 UNK     1      -1.024   0.381  -1.851  1.00  0.00     0.048 A 
HETATM   30  C22 UNK     1      -1.371   1.645  -2.330  1.00  0.00     0.089 A 
HETATM   31  C23 UNK     1      -1.379  -0.765  -2.567  1.00  0.00     0.018 A 
HETATM   32  O2  UNK     1      -1.049   2.803  -1.669  1.00  0.00    -0.321 OA
HETATM   33  C25 UNK     1      -2.075   1.769  -3.529  1.00  0.00     0.038 A 
HETATM   34  C17 UNK     1      -0.356   2.688  -0.488  1.00  0.00     0.154 A 
HETATM   35  C27 UNK     1      -2.430   0.626  -4.246  1.00  0.00     0.003 A 
HETATM   36  C26 UNK     1      -2.083  -0.638  -3.766  1.00  0.00     0.001 A 
ENDBRANCH   6  26
BRANCH   3  37
HETATM   37  C9  UNK     1      -2.525  -1.718   2.780  1.00  0.00    -0.050 A 
HETATM   38  C13 UNK     1      -3.263  -1.053   1.803  1.00  0.00     0.047 A 
HETATM   39  C18 UNK     1      -3.856  -1.775   0.767  1.00  0.00     0.102 A 
HETATM   40  C21 UNK     1      -3.709  -3.161   0.711  1.00  0.00     0.101 A 
HETATM   41  C20 UNK     1      -2.969  -3.824   1.690  1.00  0.00     0.040 A 
HETATM   42  C14 UNK     1      -2.377  -3.102   2.726  1.00  0.00     0.010 A 
BRANCH  39  43
HETATM   43  O5  UNK     1      -4.575  -1.116  -0.183  1.00  0.00    -0.353 OA
HETATM   44  C30 UNK     1      -5.969  -0.943   0.063  1.00  0.00     0.210 C 
ENDBRANCH  39  43
BRANCH  40  45
HETATM   45  O6  UNK     1      -4.282  -3.878  -0.296  1.00  0.00    -0.353 OA
HETATM   46  C31 UNK     1      -3.503  -4.079  -1.473  1.00  0.00     0.210 C 
ENDBRANCH  40  45
ENDBRANCH   3  37
TORSDOF 7
