REMARK  2 active torsions:
REMARK  status: ('A' for Active; 'I' for Inactive)
REMARK    1  A    between atoms: C14_19  and  O4_4 
REMARK       I    between atoms: C6_11  and  N1_5 
REMARK    2  A    between atoms: C6_11  and  C7_12 
ROOT
HETATM    1  O2  UNK     1       2.004   0.116   1.121  1.00  0.00    -0.274 OA
HETATM    2  O3  UNK     1       0.676  -0.595   2.839  1.00  0.00    -0.259 OA
HETATM    3  C7  UNK     1      -0.427   0.324   0.955  1.00  0.00     0.108 A 
HETATM    4  C8  UNK     1      -0.324   0.874  -0.261  1.00  0.00     0.037 A 
HETATM    5  C9  UNK     1       0.984   1.080  -0.864  1.00  0.00     0.002 A 
HETATM    6  C10 UNK     1       0.767  -0.092   1.725  1.00  0.00     0.304 A 
HETATM    7  C11 UNK     1       2.119   0.695  -0.158  1.00  0.00     0.089 A 
HETATM    8  C12 UNK     1       1.139   1.652  -2.129  1.00  0.00     0.051 A 
HETATM    9  C13 UNK     1       3.400   0.864  -0.679  1.00  0.00     0.041 A 
HETATM   10  C14 UNK     1       2.418   1.828  -2.665  1.00  0.00     0.069 A 
HETATM   11  C15 UNK     1       3.546   1.435  -1.942  1.00  0.00     0.039 A 
ENDROOT
BRANCH   3  12
HETATM   12  C6  UNK     1      -1.797   0.157   1.481  1.00  0.00     0.259 C 
HETATM   13  O1  UNK     1      -2.269   1.084   2.141  1.00  0.00    -0.267 OA
HETATM   14  N1  UNK     1      -2.459  -1.035   1.201  1.00  0.00    -0.348 N 
HETATM   15  C4  UNK     1      -3.818  -1.232   1.715  1.00  0.00     0.126 C 
HETATM   16  C5  UNK     1      -1.912  -2.180   0.457  1.00  0.00     0.126 C 
HETATM   17  C2  UNK     1      -4.783  -1.628   0.602  1.00  0.00     0.020 C 
HETATM   18  C1  UNK     1      -4.271  -2.850  -0.155  1.00  0.00     0.003 C 
HETATM   19  C3  UNK     1      -2.854  -2.611  -0.667  1.00  0.00     0.020 C 
ENDBRANCH   3  12
BRANCH  10  20
HETATM   20  O4  UNK     1       2.565   2.386  -3.899  1.00  0.00    -0.356 OA
HETATM   21  C16 UNK     1       3.896   2.539  -4.387  1.00  0.00     0.210 C 
ENDBRANCH  10  20
TORSDOF 2
