REMARK  5 active torsions:
REMARK  status: ('A' for Active; 'I' for Inactive)
REMARK    1  A    between atoms: C13_22  and  O3_6 
REMARK    2  A    between atoms: C7_16  and  N1_9 
REMARK    3  A    between atoms: C1_10  and  C3_12 
REMARK    4  A    between atoms: C13_22  and  C4_13 
REMARK    5  A    between atoms: C12_21  and  C19_28 
ROOT
HETATM    1  O1  UNK     1       1.084  -0.760  -2.042  1.00  0.00    -0.292 OA
HETATM    2  O2  UNK     1       1.567   3.136  -0.591  1.00  0.00    -0.274 OA
HETATM    3  O4  UNK     1      -0.654   3.226  -0.084  1.00  0.00    -0.259 OA
HETATM    4  C1  UNK     1      -1.218   0.523  -0.900  1.00  0.00     0.104 C 
HETATM    5  C2  UNK     1       0.144   1.183  -1.001  1.00  0.00     0.066 A 
HETATM    6  C4  UNK     1      -1.271  -0.780  -1.681  1.00  0.00     0.081 C 
HETATM    7  C5  UNK     1       1.184   0.525  -1.536  1.00  0.00     0.104 A 
HETATM    8  C6  UNK     1       2.508   1.136  -1.609  1.00  0.00     0.033 A 
HETATM    9  C7  UNK     1      -0.167  -1.362  -2.197  1.00  0.00     0.155 C 
HETATM   10  C8  UNK     1       0.293   2.582  -0.522  1.00  0.00     0.298 A 
HETATM   11  C10 UNK     1       2.663   2.432  -1.125  1.00  0.00     0.092 A 
HETATM   12  C14 UNK     1       3.633   0.490  -2.135  1.00  0.00     0.017 A 
HETATM   13  C17 UNK     1       3.892   3.091  -1.149  1.00  0.00     0.038 A 
HETATM   14  C18 UNK     1       4.873   1.137  -2.167  1.00  0.00     0.001 A 
HETATM   15  C20 UNK     1       5.002   2.436  -1.674  1.00  0.00     0.003 A 
ENDROOT
BRANCH   4  16
HETATM   16  C3  UNK     1      -1.577   0.281   0.537  1.00  0.00    -0.044 A 
HETATM   17  C11 UNK     1      -2.699   0.898   1.079  1.00  0.00     0.008 A 
HETATM   18  C15 UNK     1      -3.033   0.673   2.414  1.00  0.00     0.001 A 
HETATM   19  C16 UNK     1      -2.242  -0.166   3.199  1.00  0.00     0.016 A 
HETATM   20  C12 UNK     1      -1.118  -0.781   2.648  1.00  0.00     0.048 A 
HETATM   21  C9  UNK     1      -0.785  -0.557   1.313  1.00  0.00     0.024 A 
BRANCH  20  22
HETATM   22  C19 UNK     1      -0.273  -1.680   3.487  1.00  0.00     0.417 C 
HETATM   23  F1  UNK     1      -0.719  -1.807   4.772  1.00  0.00    -0.166 F 
HETATM   24  F2  UNK     1      -0.192  -2.957   3.010  1.00  0.00    -0.166 F 
HETATM   25  F3  UNK     1       1.016  -1.244   3.589  1.00  0.00    -0.166 F 
ENDBRANCH  20  22
ENDBRANCH   4  16
BRANCH   6  26
HETATM   26  C13 UNK     1      -2.606  -1.373  -1.877  1.00  0.00     0.294 C 
HETATM   27  O5  UNK     1      -2.793  -2.568  -2.002  1.00  0.00    -0.259 OA
BRANCH  26  28
HETATM   28  O3  UNK     1      -3.519  -0.372  -1.887  1.00  0.00    -0.323 OA
HETATM   29  C21 UNK     1      -4.875  -0.792  -2.070  1.00  0.00     0.213 C 
ENDBRANCH  26  28
ENDBRANCH   6  26
BRANCH   9  30
HETATM   30  N1  UNK     1      -0.119  -2.534  -2.895  1.00  0.00    -0.379 N 
HETATM   31  H8  UNK     1       0.774  -2.867  -3.234  1.00  0.00     0.158 HD
HETATM   32  H9  UNK     1      -0.963  -3.063  -3.075  1.00  0.00     0.158 HD
ENDBRANCH   9  30
TORSDOF 5
