REMARK  3 active torsions:
REMARK  status: ('A' for Active; 'I' for Inactive)
REMARK    1  A    between atoms: C2_10  and  N1_6 
REMARK    2  A    between atoms: C1_9  and  C4_12 
REMARK    3  A    between atoms: C2_10  and  C4_12 
ROOT
HETATM    1  O1  UNK     1       1.261   1.416  -2.833  1.00  0.00    -0.274 OA
HETATM    2  O3  UNK     1      -0.770   0.389  -3.028  1.00  0.00    -0.259 OA
HETATM    3  C1  UNK     1       0.407   0.038  -1.002  1.00  0.00     0.088 A 
HETATM    4  C3  UNK     1       2.561   1.129  -0.798  1.00  0.00    -0.001 A 
HETATM    5  C5  UNK     1       1.501   0.282  -0.271  1.00  0.00     0.035 A 
HETATM    6  C6  UNK     1       2.415   1.677  -2.068  1.00  0.00     0.089 A 
HETATM    7  C7  UNK     1       0.231   0.610  -2.356  1.00  0.00     0.302 A 
HETATM    8  C8  UNK     1       3.720   1.411  -0.071  1.00  0.00     0.014 A 
HETATM    9  C9  UNK     1       3.392   2.496  -2.630  1.00  0.00     0.038 A 
HETATM   10  C10 UNK     1       4.709   2.231  -0.622  1.00  0.00     0.001 A 
HETATM   11  C11 UNK     1       4.545   2.772  -1.899  1.00  0.00     0.003 A 
ENDROOT
BRANCH   3  12
HETATM   12  C4  UNK     1      -0.605  -0.827  -0.384  1.00  0.00     0.185 C 
HETATM   13  O2  UNK     1      -1.323  -1.539  -1.088  1.00  0.00    -0.290 OA
BRANCH  12  14
HETATM   14  C2  UNK     1      -0.701  -0.783   1.127  1.00  0.00     0.238 C 
BRANCH  14  15
HETATM   15  N1  UNK     1      -2.049  -1.058   1.620  1.00  0.00    -0.232 N 
HETATM   16  C12 UNK     1      -3.048  -0.183   1.856  1.00  0.00     0.223 A 
HETATM   17 Cl1  UNK     1      -2.890   1.483   1.602  1.00  0.00    -0.041 Cl
HETATM   18  N3  UNK     1      -4.097  -0.839   2.296  1.00  0.00    -0.186 NA
HETATM   19  C13 UNK     1      -3.654  -2.131   2.301  1.00  0.00     0.244 A 
HETATM   20 Cl2  UNK     1      -4.610  -3.447   2.788  1.00  0.00    -0.040 Cl
HETATM   21  N2  UNK     1      -2.397  -2.315   1.892  1.00  0.00    -0.136 NA
ENDBRANCH  14  15
ENDBRANCH  12  14
ENDBRANCH   3  12
TORSDOF 3
