REMARK  1 active torsions:
REMARK  status: ('A' for Active; 'I' for Inactive)
REMARK    1  A    between atoms: C7_11  and  N1_4 
ROOT
HETATM    1  O1  UNK     1       0.895   0.627   2.366  1.00  0.00    -0.331 OA
HETATM    2  O2  UNK     1       0.791   0.800  -2.449  1.00  0.00    -0.274 OA
HETATM    3  O3  UNK     1       0.748   0.898  -4.733  1.00  0.00    -0.260 OA
HETATM    4  N1  UNK     1      -1.044  -0.329   1.243  1.00  0.00    -0.354 N 
HETATM    5  C1  UNK     1      -0.599   0.163  -0.062  1.00  0.00     0.169 C 
HETATM    6  C2  UNK     1       0.815   0.679  -0.046  1.00  0.00     0.028 A 
HETATM    7  C3  UNK     1       1.475   0.900   1.160  1.00  0.00     0.081 A 
HETATM    8  C4  UNK     1       1.483   1.018  -1.235  1.00  0.00     0.101 A 
HETATM    9  C5  UNK     1      -0.053  -0.451   2.309  1.00  0.00     0.301 C 
HETATM   10  C6  UNK     1       2.772   1.559  -1.249  1.00  0.00     0.005 A 
HETATM   11  C8  UNK     1       2.752   1.460   1.181  1.00  0.00     0.038 A 
HETATM   12  C9  UNK     1       3.399   1.779  -0.016  1.00  0.00     0.017 A 
HETATM   13  C10 UNK     1       3.397   1.875  -2.541  1.00  0.00    -0.043 A 
HETATM   14  C13 UNK     1       2.712   1.645  -3.670  1.00  0.00     0.090 A 
HETATM   15  C14 UNK     1       1.350   1.090  -3.682  1.00  0.00     0.288 A 
HETATM   16  C15 UNK     1       4.785   2.445  -2.582  1.00  0.00     0.049 C 
ENDROOT
BRANCH   4  17
HETATM   17  C7  UNK     1      -2.274  -0.995   1.329  1.00  0.00     0.032 A 
HETATM   18  C11 UNK     1      -3.338  -0.689   0.450  1.00  0.00     0.030 A 
HETATM   19  C16 UNK     1      -4.562  -1.352   0.536  1.00  0.00     0.009 A 
HETATM   20  C18 UNK     1      -4.755  -2.338   1.503  1.00  0.00    -0.062 A 
HETATM   21  C17 UNK     1      -3.723  -2.661   2.385  1.00  0.00     0.009 A 
HETATM   22  C19 UNK     1      -6.064  -3.047   1.596  1.00  0.00     0.048 C 
HETATM   23  C12 UNK     1      -2.499  -1.999   2.299  1.00  0.00     0.030 A 
ENDBRANCH   4  17
TORSDOF 1
