REMARK  1 active torsions:
REMARK  status: ('A' for Active; 'I' for Inactive)
REMARK    1  A    between atoms: C11_16  and  C6_11 
ROOT
HETATM    1  O1  UNK     1       0.332  -1.980   3.259  1.00  0.00    -0.293 OA
HETATM    2  N1  UNK     1      -2.546   0.098   0.000  1.00  0.00    -0.357 N 
HETATM    3  N2  UNK     1      -0.239  -1.687  -0.728  1.00  0.00    -0.375 N 
HETATM    4  C1  UNK     1      -3.243  -1.322   3.396  1.00  0.00    -0.036 C 
HETATM    5  C2  UNK     1      -3.280  -0.284   2.264  1.00  0.00     0.067 C 
HETATM    6  C3  UNK     1      -1.834  -1.338   3.985  1.00  0.00     0.092 C 
HETATM    7  C4  UNK     1      -2.185  -0.444   1.219  1.00  0.00     0.022 C 
HETATM    8  C5  UNK     1      -1.006  -1.025   1.526  1.00  0.00     0.037 C 
HETATM    9  C6  UNK     1       0.152  -1.177   0.575  1.00  0.00     0.160 C 
HETATM   10  C7  UNK     1      -0.759  -1.505   2.935  1.00  0.00     0.160 C 
HETATM   11  C8  UNK     1      -3.638  -2.721   2.881  1.00  0.00     0.015 C 
HETATM   12  C9  UNK     1      -4.247  -0.916   4.490  1.00  0.00     0.015 C 
HETATM   13  C10 UNK     1      -2.084  -0.148  -1.307  1.00  0.00     0.059 A 
HETATM   14  C12 UNK     1      -1.048  -1.035  -1.644  1.00  0.00     0.056 A 
HETATM   15  C13 UNK     1      -2.771   0.517  -2.351  1.00  0.00     0.039 A 
HETATM   16  C14 UNK     1      -0.771  -1.255  -3.013  1.00  0.00     0.038 A 
HETATM   17  C17 UNK     1      -2.468   0.298  -3.693  1.00  0.00    -0.054 A 
HETATM   18  C18 UNK     1      -1.469  -0.600  -4.026  1.00  0.00    -0.054 A 
HETATM   19  C21 UNK     1      -3.236   1.029  -4.744  1.00  0.00     0.049 C 
HETATM   20  C22 UNK     1      -1.115  -0.872  -5.450  1.00  0.00     0.049 C 
HETATM   21  H12 UNK     1      -3.357   0.709   0.043  1.00  0.00     0.166 HD
HETATM   22  H13 UNK     1       0.346  -2.429  -1.102  1.00  0.00     0.160 HD
ENDROOT
BRANCH   9  23
HETATM   23  C11 UNK     1       0.962   0.076   0.442  1.00  0.00     0.042 A 
HETATM   24  C15 UNK     1       2.150   0.061  -0.449  1.00  0.00     0.195 A 
HETATM   25  O3  UNK     1       2.484  -0.938  -1.071  1.00  0.00    -0.287 OA
HETATM   26  C19 UNK     1       2.911   1.321  -0.544  1.00  0.00     0.049 A 
HETATM   27  C20 UNK     1       2.484   2.429   0.189  1.00  0.00     0.089 A 
HETATM   28  C23 UNK     1       4.045   1.408  -1.355  1.00  0.00     0.025 A 
HETATM   29  O2  UNK     1       1.379   2.399   1.001  1.00  0.00    -0.321 OA
HETATM   30  C24 UNK     1       3.189   3.630   0.114  1.00  0.00     0.039 A 
HETATM   31  C16 UNK     1       0.680   1.219   1.080  1.00  0.00     0.156 A 
HETATM   32  C26 UNK     1       4.322   3.720  -0.696  1.00  0.00     0.009 A 
HETATM   33  C25 UNK     1       4.749   2.612  -1.429  1.00  0.00    -0.061 A 
HETATM   34  C27 UNK     1       5.960   2.714  -2.293  1.00  0.00     0.048 C 
ENDBRANCH   9  23
TORSDOF 1
