REMARK  4 active torsions:
REMARK  status: ('A' for Active; 'I' for Inactive)
REMARK    1  A    between atoms: C15_20  and  O2_2 
REMARK    2  A    between atoms: C8_13  and  O2_2 
REMARK       I    between atoms: C17_22  and  N1_5 
REMARK    3  A    between atoms: C3_8  and  C6_11 
REMARK    4  A    between atoms: C15_20  and  C17_22 
ROOT
HETATM    1  O1  UNK     1       0.976   1.562  -0.197  1.00  0.00    -0.309 OA
HETATM    2  O3  UNK     1      -1.146  -1.204  -2.306  1.00  0.00    -0.287 OA
HETATM    3  C1  UNK     1      -0.909   0.034  -0.307  1.00  0.00     0.051 A 
HETATM    4  C2  UNK     1      -0.139   0.987   0.358  1.00  0.00     0.090 A 
HETATM    5  C3  UNK     1       1.356   1.171  -1.473  1.00  0.00     0.090 A 
HETATM    6  C4  UNK     1      -0.515  -0.376  -1.663  1.00  0.00     0.187 A 
HETATM    7  C5  UNK     1      -2.036  -0.517   0.307  1.00  0.00     0.055 A 
HETATM    8  C7  UNK     1       0.693   0.270  -2.215  1.00  0.00     0.093 A 
HETATM    9  C8  UNK     1      -2.387  -0.107   1.594  1.00  0.00     0.070 A 
HETATM   10  C9  UNK     1      -0.492   1.395   1.644  1.00  0.00     0.041 A 
HETATM   11  C10 UNK     1      -1.617   0.847   2.261  1.00  0.00     0.039 A 
ENDROOT
BRANCH   9  12
HETATM   12  O2  UNK     1      -3.484  -0.638   2.200  1.00  0.00    -0.342 OA
BRANCH  12  13
HETATM   13  C15 UNK     1      -3.838  -1.974   1.847  1.00  0.00     0.278 C 
BRANCH  13  14
HETATM   14  C17 UNK     1      -4.514  -2.644   3.020  1.00  0.00     0.239 C 
HETATM   15  O4  UNK     1      -4.709  -2.092   4.099  1.00  0.00    -0.271 OA
HETATM   16  N1  UNK     1      -4.887  -3.940   2.740  1.00  0.00    -0.368 N 
HETATM   17  H12 UNK     1      -5.353  -4.511   3.438  1.00  0.00     0.159 HD
HETATM   18  H13 UNK     1      -4.715  -4.372   1.838  1.00  0.00     0.159 HD
ENDBRANCH  13  14
ENDBRANCH  12  13
ENDBRANCH   9  12
BRANCH   5  19
HETATM   19  C6  UNK     1       2.563   1.856  -1.976  1.00  0.00    -0.002 A 
HETATM   20  C11 UNK     1       2.715   2.096  -3.344  1.00  0.00     0.014 A 
HETATM   21  C13 UNK     1       3.856   2.744  -3.819  1.00  0.00     0.001 A 
HETATM   22  C16 UNK     1       4.848   3.153  -2.928  1.00  0.00     0.000 A 
HETATM   23  C14 UNK     1       4.700   2.914  -1.562  1.00  0.00     0.001 A 
HETATM   24  C12 UNK     1       3.559   2.267  -1.086  1.00  0.00     0.014 A 
ENDBRANCH   5  19
TORSDOF 4
