REMARK  3 active torsions:
REMARK  status: ('A' for Active; 'I' for Inactive)
REMARK    1  A    between atoms: C9_13  and  O3_3 
REMARK    2  A    between atoms: C11_15  and  O4_4 
REMARK    3  A    between atoms: C3_7  and  C4_8 
ROOT
HETATM    1  O1  UNK     1       0.364  -1.058   1.566  1.00  0.00    -0.309 OA
HETATM    2  O2  UNK     1       0.096  -2.618  -2.188  1.00  0.00    -0.287 OA
HETATM    3  C1  UNK     1       0.580  -2.979   0.096  1.00  0.00     0.048 A 
HETATM    4  C2  UNK     1       0.653  -2.382   1.353  1.00  0.00     0.093 A 
HETATM    5  C3  UNK     1      -0.026  -0.285   0.483  1.00  0.00     0.093 A 
HETATM    6  C5  UNK     1       0.177  -2.160  -1.057  1.00  0.00     0.187 A 
HETATM    7  C6  UNK     1      -0.128  -0.743  -0.775  1.00  0.00     0.094 A 
HETATM    8  C7  UNK     1       0.888  -4.333  -0.062  1.00  0.00     0.021 A 
HETATM    9  C8  UNK     1       1.035  -3.136   2.463  1.00  0.00     0.074 A 
HETATM   10  C11 UNK     1       1.343  -4.488   2.310  1.00  0.00     0.068 A 
HETATM   11  C12 UNK     1       1.269  -5.085   1.050  1.00  0.00     0.037 A 
ENDROOT
BRANCH   5  12
HETATM   12  C4  UNK     1      -0.308   1.124   0.822  1.00  0.00     0.031 A 
HETATM   13  C10 UNK     1      -1.610   1.493   1.176  1.00  0.00     0.017 A 
HETATM   14  C14 UNK     1      -1.901   2.818   1.501  1.00  0.00     0.001 A 
HETATM   15  C15 UNK     1      -0.892   3.781   1.473  1.00  0.00     0.003 A 
HETATM   16  C13 UNK     1       0.408   3.419   1.121  1.00  0.00     0.037 A 
HETATM   17  C9  UNK     1       0.699   2.094   0.797  1.00  0.00     0.078 A 
BRANCH  17  18
HETATM   18  O3  UNK     1       1.979   1.767   0.456  1.00  0.00    -0.360 OA
HETATM   19  H9  UNK     1       2.533   2.565   0.494  1.00  0.00     0.217 HD
ENDBRANCH  17  18
ENDBRANCH   5  12
BRANCH  10  20
HETATM   20  O4  UNK     1       1.716  -5.227   3.391  1.00  0.00    -0.361 OA
HETATM   21  H10 UNK     1       1.713  -4.657   4.179  1.00  0.00     0.217 HD
ENDBRANCH  10  20
TORSDOF 3
