REMARK  9 active torsions:
REMARK  status: ('A' for Active; 'I' for Inactive)
REMARK    1  A    between atoms: C2_11  and  O1_1 
REMARK    2  A    between atoms: C3_12  and  O1_1 
REMARK    3  A    between atoms: C12_21  and  O2_2 
REMARK    4  A    between atoms: C4_13  and  O2_2 
REMARK    5  A    between atoms: C15_24  and  N1_7 
REMARK    6  A    between atoms: C20_29  and  N2_8 
REMARK    7  A    between atoms: C1_10  and  C8_17 
REMARK    8  A    between atoms: C3_12  and  C4_13 
REMARK    9  A    between atoms: C11_20  and  C5_14 
ROOT
HETATM    1  N3  UNK     1      -3.801  -3.301  -0.947  1.00  0.00    -0.191 NA
HETATM    2  C8  UNK     1      -2.832  -1.013   1.466  1.00  0.00     0.034 C 
HETATM    3  C11 UNK     1      -3.749  -1.998   1.291  1.00  0.00     0.055 C 
HETATM    4  C23 UNK     1      -3.777  -2.716   0.055  1.00  0.00     0.100 C 
ENDROOT
BRANCH   3   5
HETATM    5  C5  UNK     1      -4.726  -2.367   2.334  1.00  0.00    -0.015 A 
HETATM    6  C13 UNK     1      -4.282  -2.813   3.578  1.00  0.00     0.015 A 
HETATM    7  C16 UNK     1      -5.205  -3.164   4.564  1.00  0.00     0.037 A 
HETATM    8  C15 UNK     1      -6.572  -3.069   4.304  1.00  0.00     0.102 A 
HETATM    9  C17 UNK     1      -7.016  -2.623   3.059  1.00  0.00     0.037 A 
HETATM   10  C14 UNK     1      -6.093  -2.273   2.074  1.00  0.00     0.015 A 
BRANCH   8  11
HETATM   11  N1  UNK     1      -7.512  -3.426   5.307  1.00  0.00    -0.116 N 
HETATM   12  O3  UNK     1      -8.737  -3.334   5.053  1.00  0.00    -0.532 OA
HETATM   13  O4  UNK     1      -7.090  -3.825   6.420  1.00  0.00    -0.532 OA
ENDBRANCH   8  11
ENDBRANCH   3   5
BRANCH   2  14
HETATM   14  C1  UNK     1      -1.825  -0.576   0.511  1.00  0.00    -0.035 A 
HETATM   15  C6  UNK     1      -2.125   0.433  -0.405  1.00  0.00     0.014 A 
HETATM   16  C9  UNK     1      -1.159   0.852  -1.320  1.00  0.00     0.037 A 
HETATM   17  C2  UNK     1       0.105   0.263  -1.320  1.00  0.00     0.068 A 
HETATM   18  C10 UNK     1       0.404  -0.746  -0.404  1.00  0.00     0.037 A 
HETATM   19  C7  UNK     1      -0.561  -1.165   0.512  1.00  0.00     0.014 A 
BRANCH  17  20
HETATM   20  O1  UNK     1       1.047   0.672  -2.213  1.00  0.00    -0.349 OA
BRANCH  20  21
HETATM   21  C3  UNK     1       2.411   0.576  -1.808  1.00  0.00     0.202 C 
BRANCH  21  22
HETATM   22  C4  UNK     1       3.213   1.653  -2.513  1.00  0.00     0.202 C 
BRANCH  22  23
HETATM   23  O2  UNK     1       4.570   1.570  -2.093  1.00  0.00    -0.349 OA
BRANCH  23  24
HETATM   24  C12 UNK     1       5.444   2.464  -2.652  1.00  0.00     0.069 A 
HETATM   25  C18 UNK     1       6.791   2.443  -2.290  1.00  0.00     0.039 A 
HETATM   26  C21 UNK     1       7.681   3.353  -2.859  1.00  0.00     0.039 A 
HETATM   27  C20 UNK     1       7.225   4.285  -3.791  1.00  0.00     0.103 A 
HETATM   28  C22 UNK     1       5.878   4.307  -4.154  1.00  0.00     0.039 A 
HETATM   29  C19 UNK     1       4.988   3.396  -3.584  1.00  0.00     0.039 A 
BRANCH  27  30
HETATM   30  N2  UNK     1       8.131   5.212  -4.372  1.00  0.00    -0.116 N 
HETATM   31  O5  UNK     1       7.699   6.042  -5.208  1.00  0.00    -0.532 OA
HETATM   32  O6  UNK     1       9.338   5.176  -4.032  1.00  0.00    -0.532 OA
ENDBRANCH  27  30
ENDBRANCH  23  24
ENDBRANCH  22  23
ENDBRANCH  21  22
ENDBRANCH  20  21
ENDBRANCH  17  20
ENDBRANCH   2  14
TORSDOF 9
