REMARK  5 active torsions:
REMARK  status: ('A' for Active; 'I' for Inactive)
REMARK    1  A    between atoms: C1_6  and  N1_4 
REMARK    2  A    between atoms: C2_7  and  N1_4 
REMARK    3  A    between atoms: C3_8  and  N1_4 
REMARK       I    between atoms: C13_18  and  N2_5 
REMARK    4  A    between atoms: C6_11  and  N2_5 
REMARK    5  A    between atoms: C11_16  and  C13_18 
ROOT
HETATM    1  O2  UNK     1       0.756   1.337   1.196  1.00  0.00    -0.267 OA
HETATM    2  N2  UNK     1      -0.311  -0.014  -0.411  1.00  0.00    -0.323 N 
HETATM    3  C13 UNK     1       0.640   0.881   0.060  1.00  0.00     0.262 C 
HETATM    4  H15 UNK     1      -0.255  -0.313  -1.382  1.00  0.00     0.169 HD
ENDROOT
BRANCH   2   5
HETATM    5  C6  UNK     1      -1.371  -0.610   0.315  1.00  0.00     0.035 A 
HETATM    6  C10 UNK     1      -2.226  -1.486  -0.332  1.00  0.00     0.032 A 
HETATM    7  C5  UNK     1      -3.270  -2.072   0.384  1.00  0.00     0.031 A 
HETATM    8  C1  UNK     1      -3.444  -1.773   1.735  1.00  0.00     0.030 A 
HETATM    9  C4  UNK     1      -2.573  -0.888   2.371  1.00  0.00     0.031 A 
HETATM   10  C9  UNK     1      -1.529  -0.302   1.656  1.00  0.00     0.032 A 
BRANCH   8  11
HETATM   11  N1  UNK     1      -4.499  -2.367   2.458  1.00  0.00    -0.382 N 
BRANCH  11  12
HETATM   12  C2  UNK     1      -4.688  -2.063   3.863  1.00  0.00     0.118 C 
HETATM   13  C7  UNK     1      -3.764  -2.886   4.737  1.00  0.00     0.026 C 
ENDBRANCH  11  12
BRANCH  11  14
HETATM   14  C3  UNK     1      -5.417  -3.277   1.803  1.00  0.00     0.118 C 
HETATM   15  C8  UNK     1      -6.495  -2.528   1.046  1.00  0.00     0.026 C 
ENDBRANCH  11  14
ENDBRANCH   8  11
ENDBRANCH   2   5
BRANCH   3  16
HETATM   16  C11 UNK     1       1.588   1.283  -0.987  1.00  0.00     0.108 A 
HETATM   17  C14 UNK     1       2.823   1.594  -0.578  1.00  0.00     0.037 A 
HETATM   18  C12 UNK     1       3.833   2.005  -1.541  1.00  0.00    -0.001 A 
HETATM   19  C15 UNK     1       3.491   2.068  -2.888  1.00  0.00     0.089 A 
HETATM   20  C17 UNK     1       5.135   2.339  -1.159  1.00  0.00     0.014 A 
HETATM   21  O1  UNK     1       2.189   1.739  -3.313  1.00  0.00    -0.274 OA
HETATM   22  C18 UNK     1       4.411   2.454  -3.861  1.00  0.00     0.038 A 
HETATM   23  C16 UNK     1       1.202   1.342  -2.415  1.00  0.00     0.304 A 
HETATM   24  O3  UNK     1       0.071   1.059  -2.793  1.00  0.00    -0.259 OA
HETATM   25  C20 UNK     1       5.707   2.786  -3.472  1.00  0.00     0.003 A 
HETATM   26  C19 UNK     1       6.068   2.728  -2.124  1.00  0.00     0.001 A 
ENDBRANCH   3  16
TORSDOF 5
