REMARK  3 active torsions:
REMARK  status: ('A' for Active; 'I' for Inactive)
REMARK    1  A    between atoms: C14_20  and  O2_3 
REMARK       I    between atoms: C6_12  and  N1_6 
REMARK    2  A    between atoms: C7_13  and  N1_6 
REMARK    3  A    between atoms: C2_8  and  C6_12 
ROOT
HETATM    1 Cl1  UNK     1       5.203   2.148  -4.725  1.00  0.00    -0.084 Cl
HETATM    2  O1  UNK     1       2.406   1.716   0.449  1.00  0.00    -0.274 OA
HETATM    3  O4  UNK     1       0.558   1.141   1.664  1.00  0.00    -0.259 OA
HETATM    4  C1  UNK     1       2.404   1.399  -1.961  1.00  0.00     0.001 A 
HETATM    5  C2  UNK     1       0.443   0.789  -0.676  1.00  0.00     0.108 A 
HETATM    6  C3  UNK     1       3.051   1.809  -0.800  1.00  0.00     0.089 A 
HETATM    7  C4  UNK     1       1.051   0.875  -1.866  1.00  0.00     0.037 A 
HETATM    8  C5  UNK     1       3.077   1.506  -3.181  1.00  0.00     0.038 A 
HETATM    9  C8  UNK     1       1.111   1.218   0.572  1.00  0.00     0.304 A 
HETATM   10  C9  UNK     1       4.347   2.320  -0.822  1.00  0.00     0.040 A 
HETATM   11  C10 UNK     1       4.377   2.017  -3.220  1.00  0.00     0.035 A 
HETATM   12  C11 UNK     1       5.011   2.423  -2.043  1.00  0.00     0.026 A 
ENDROOT
BRANCH   5  13
HETATM   13  C6  UNK     1      -0.921   0.247  -0.682  1.00  0.00     0.262 C 
HETATM   14  O3  UNK     1      -1.639   0.413  -1.667  1.00  0.00    -0.267 OA
HETATM   15  N1  UNK     1      -1.226  -0.417   0.498  1.00  0.00    -0.323 N 
HETATM   16  H4  UNK     1      -0.507  -0.485   1.214  1.00  0.00     0.169 HD
BRANCH  15  17
HETATM   17  C7  UNK     1      -2.442  -1.058   0.839  1.00  0.00     0.037 A 
HETATM   18  C12 UNK     1      -2.560  -1.671   2.075  1.00  0.00     0.066 A 
HETATM   19  C14 UNK     1      -3.758  -2.301   2.411  1.00  0.00     0.070 A 
HETATM   20  C16 UNK     1      -4.820  -2.309   1.507  1.00  0.00     0.037 A 
HETATM   21  C15 UNK     1      -4.684  -1.686   0.266  1.00  0.00     0.005 A 
HETATM   22  C13 UNK     1      -3.486  -1.056  -0.070  1.00  0.00     0.029 A 
BRANCH  19  23
HETATM   23  O2  UNK     1      -3.891  -2.909   3.622  1.00  0.00    -0.356 OA
HETATM   24  C17 UNK     1      -5.143  -3.534   3.901  1.00  0.00     0.210 C 
ENDBRANCH  19  23
ENDBRANCH  15  17
ENDBRANCH   5  13
TORSDOF 3
