REMARK  2 active torsions:
REMARK  status: ('A' for Active; 'I' for Inactive)
REMARK    1  A    between atoms: C1_7  and  C8_14 
REMARK    2  A    between atoms: C6_12  and  C9_15 
ROOT
HETATM    1  O1  UNK     1       0.496   3.111   1.064  1.00  0.00    -0.293 OA
HETATM    2  N1  UNK     1       0.266  -0.655  -1.936  1.00  0.00    -0.357 N 
HETATM    3  N2  UNK     1      -2.121   0.970  -1.104  1.00  0.00    -0.375 N 
HETATM    4  C1  UNK     1       2.809   2.030  -1.469  1.00  0.00     0.033 C 
HETATM    5  C2  UNK     1       2.308   0.595  -1.652  1.00  0.00     0.067 C 
HETATM    6  C3  UNK     1       0.226   1.263  -0.427  1.00  0.00     0.037 C 
HETATM    7  C4  UNK     1       0.837   0.429  -1.297  1.00  0.00     0.022 C 
HETATM    8  C5  UNK     1       2.496   2.492  -0.053  1.00  0.00     0.093 C 
HETATM    9  C6  UNK     1      -1.209   1.131   0.017  1.00  0.00     0.160 C 
HETATM   10  C7  UNK     1       1.020   2.361   0.240  1.00  0.00     0.160 C 
HETATM   11  C10 UNK     1      -1.073  -0.945  -2.264  1.00  0.00     0.059 A 
HETATM   12  C11 UNK     1      -2.178  -0.143  -1.929  1.00  0.00     0.055 A 
HETATM   13  C16 UNK     1      -1.292  -2.108  -3.041  1.00  0.00     0.032 A 
HETATM   14  C17 UNK     1      -3.450  -0.510  -2.423  1.00  0.00     0.031 A 
HETATM   15  C22 UNK     1      -2.559  -2.459  -3.501  1.00  0.00     0.002 A 
HETATM   16  C23 UNK     1      -3.642  -1.652  -3.199  1.00  0.00     0.002 A 
HETATM   17  H7  UNK     1       0.940  -1.303  -2.336  1.00  0.00     0.166 HD
HETATM   18  H8  UNK     1      -2.949   1.557  -1.087  1.00  0.00     0.160 HD
ENDROOT
BRANCH   9  19
HETATM   19  C9  UNK     1      -1.412   0.046   1.033  1.00  0.00     0.042 A 
HETATM   20  C14 UNK     1      -2.781  -0.185   1.560  1.00  0.00     0.195 A 
HETATM   21  O3  UNK     1      -3.740   0.480   1.193  1.00  0.00    -0.287 OA
HETATM   22  C18 UNK     1      -2.924  -1.263   2.556  1.00  0.00     0.049 A 
HETATM   23  C25 UNK     1      -4.172  -1.557   3.113  1.00  0.00     0.025 A 
HETATM   24  C21 UNK     1      -1.795  -1.988   2.939  1.00  0.00     0.089 A 
HETATM   25  C27 UNK     1      -4.282  -2.582   4.053  1.00  0.00    -0.061 A 
HETATM   26  C29 UNK     1      -5.610  -2.904   4.651  1.00  0.00     0.048 C 
HETATM   27  C28 UNK     1      -3.153  -3.308   4.436  1.00  0.00     0.009 A 
HETATM   28  C26 UNK     1      -1.908  -3.012   3.879  1.00  0.00     0.039 A 
HETATM   29  O2  UNK     1      -0.547  -1.742   2.425  1.00  0.00    -0.321 OA
HETATM   30  C15 UNK     1      -0.428  -0.735   1.499  1.00  0.00     0.156 A 
ENDBRANCH   9  19
BRANCH   4  31
HETATM   31  C8  UNK     1       4.282   2.168  -1.806  1.00  0.00    -0.032 A 
HETATM   32  C12 UNK     1       4.722   2.995  -2.840  1.00  0.00     0.040 A 
HETATM   33 Cl1  UNK     1       3.610   3.905  -3.795  1.00  0.00    -0.084 Cl
HETATM   34  C19 UNK     1       6.085   3.096  -3.120  1.00  0.00     0.024 A 
HETATM   35  C24 UNK     1       7.008   2.372  -2.365  1.00  0.00     0.002 A 
HETATM   36  C20 UNK     1       6.568   1.546  -1.331  1.00  0.00     0.001 A 
HETATM   37  C13 UNK     1       5.205   1.444  -1.051  1.00  0.00     0.009 A 
ENDBRANCH   4  31
TORSDOF 2
