REMARK  7 active torsions:
REMARK  status: ('A' for Active; 'I' for Inactive)
REMARK    1  A    between atoms: C5_12  and  N1_5 
REMARK    2  A    between atoms: C6_13  and  N2_6 
REMARK    3  A    between atoms: C17_24  and  N3_7 
REMARK       I    between atoms: C9_16  and  N3_7 
REMARK    4  A    between atoms: C5_12  and  C7_14 
REMARK    5  A    between atoms: C6_13  and  C9_16 
REMARK    6  A    between atoms: C13_20  and  C18_25 
REMARK    7  A    between atoms: C17_24  and  C19_26 
ROOT
HETATM    1  N1  UNK     1       1.664  -0.131   0.026  1.00  0.00     0.096 N 
HETATM    2  N2  UNK     1       0.012  -0.694   2.331  1.00  0.00     0.100 N 
HETATM    3  C1  UNK     1       0.308  -0.674  -0.122  1.00  0.00     0.303 C 
HETATM    4  C2  UNK     1       2.253  -0.564   1.299  1.00  0.00     0.303 C 
HETATM    5  C3  UNK     1      -0.578  -0.261   1.059  1.00  0.00     0.303 C 
HETATM    6  C4  UNK     1       1.367  -0.150   2.479  1.00  0.00     0.303 C 
ENDROOT
BRANCH   1   7
HETATM    7  C5  UNK     1       2.508  -0.530  -1.099  1.00  0.00     0.312 C 
BRANCH   7   8
HETATM    8  C7  UNK     1       2.275   0.315  -2.303  1.00  0.00    -0.011 A 
HETATM    9  C10 UNK     1       1.352  -0.020  -3.216  1.00  0.00     0.092 A 
HETATM   10  C14 UNK     1       1.087   0.783  -4.421  1.00  0.00     0.288 A 
HETATM   11  O1  UNK     1       1.845   1.932  -4.584  1.00  0.00    -0.275 OA
HETATM   12  O3  UNK     1       0.232   0.446  -5.233  1.00  0.00    -0.260 OA
HETATM   13  C11 UNK     1       2.822   2.310  -3.642  1.00  0.00     0.090 A 
HETATM   14  C8  UNK     1       3.064   1.538  -2.504  1.00  0.00     0.007 A 
HETATM   15  C15 UNK     1       3.526   3.485  -3.909  1.00  0.00     0.039 A 
HETATM   16  C12 UNK     1       4.053   1.982  -1.616  1.00  0.00     0.022 A 
HETATM   17  C13 UNK     1       4.767   3.158  -1.870  1.00  0.00    -0.058 A 
HETATM   18  C16 UNK     1       4.504   3.909  -3.015  1.00  0.00     0.010 A 
BRANCH  17  19
HETATM   19  C18 UNK     1       5.815   3.612  -0.910  1.00  0.00     0.034 C 
HETATM   20  C20 UNK     1       5.253   4.530   0.172  1.00  0.00     0.010 C 
ENDBRANCH  17  19
ENDBRANCH   7   8
ENDBRANCH   1   7
BRANCH   2  21
HETATM   21  C6  UNK     1      -0.832  -0.298   3.457  1.00  0.00     0.374 C 
BRANCH  21  22
HETATM   22  C9  UNK     1      -1.974  -1.286   3.580  1.00  0.00     0.246 C 
HETATM   23  O2  UNK     1      -1.803  -2.483   3.798  1.00  0.00    -0.272 OA
HETATM   24  N3  UNK     1      -3.209  -0.668   3.447  1.00  0.00    -0.355 N 
HETATM   25  H15 UNK     1      -3.252   0.327   3.247  1.00  0.00     0.162 HD
BRANCH  24  26
HETATM   26  C17 UNK     1      -4.465  -1.376   3.551  1.00  0.00     0.162 C 
BRANCH  26  27
HETATM   27  C19 UNK     1      -4.904  -1.939   2.230  1.00  0.00    -0.019 A 
HETATM   28  C21 UNK     1      -5.704  -1.207   1.352  1.00  0.00     0.042 A 
HETATM   29 Cl1  UNK     1      -6.234   0.389   1.740  1.00  0.00    -0.084 Cl
HETATM   30  C23 UNK     1      -6.092  -1.763   0.133  1.00  0.00     0.024 A 
HETATM   31  C25 UNK     1      -5.679  -3.051  -0.208  1.00  0.00     0.002 A 
HETATM   32  C24 UNK     1      -4.879  -3.783   0.669  1.00  0.00     0.001 A 
HETATM   33  C22 UNK     1      -4.492  -3.227   1.888  1.00  0.00     0.010 A 
ENDBRANCH  26  27
ENDBRANCH  24  26
ENDBRANCH  21  22
ENDBRANCH   2  21
TORSDOF 7
