REMARK  2 active torsions:
REMARK  status: ('A' for Active; 'I' for Inactive)
REMARK    1  A    between atoms: C1_6  and  N1_5 
REMARK       I    between atoms: C8_13  and  N1_5 
REMARK    2  A    between atoms: C8_13  and  C9_14 
ROOT
HETATM    1 Br1  UNK     1       6.157   2.266  -1.816  1.00  0.00    -0.051 Br
HETATM    2  O2  UNK     1       0.285   0.891  -2.473  1.00  0.00    -0.274 OA
HETATM    3  O3  UNK     1      -1.761   0.437  -1.561  1.00  0.00    -0.259 OA
HETATM    4  C9  UNK     1       0.005   0.876  -0.044  1.00  0.00     0.108 A 
HETATM    5  C10 UNK     1       1.296   1.179   0.134  1.00  0.00     0.037 A 
HETATM    6  C11 UNK     1       2.172   1.358  -1.013  1.00  0.00     0.000 A 
HETATM    7  C12 UNK     1      -0.578   0.713  -1.394  1.00  0.00     0.304 A 
HETATM    8  C13 UNK     1       1.645   1.210  -2.292  1.00  0.00     0.089 A 
HETATM    9  C14 UNK     1       3.526   1.674  -0.875  1.00  0.00     0.033 A 
HETATM   10  C15 UNK     1       2.429   1.369  -3.432  1.00  0.00     0.039 A 
HETATM   11  C16 UNK     1       4.326   1.837  -2.010  1.00  0.00     0.011 A 
HETATM   12  C17 UNK     1       3.778   1.685  -3.285  1.00  0.00     0.022 A 
ENDROOT
BRANCH   4  13
HETATM   13  C8  UNK     1      -0.801   0.715   1.181  1.00  0.00     0.258 C 
HETATM   14  O1  UNK     1      -0.524   1.340   2.198  1.00  0.00    -0.267 OA
HETATM   15  N1  UNK     1      -1.835  -0.182   1.017  1.00  0.00    -0.352 N 
HETATM   16  H14 UNK     1      -1.926  -0.695   0.146  1.00  0.00     0.163 HD
BRANCH  15  17
HETATM   17  C1  UNK     1      -2.758  -0.506   2.075  1.00  0.00     0.084 C 
HETATM   18  C2  UNK     1      -4.182  -0.753   1.568  1.00  0.00     0.025 C 
HETATM   19  C4  UNK     1      -4.391  -1.938   0.630  1.00  0.00     0.002 C 
HETATM   20  C6  UNK     1      -3.935  -3.289   1.177  1.00  0.00     0.000 C 
HETATM   21  C7  UNK     1      -2.421  -3.455   1.147  1.00  0.00     0.000 C 
HETATM   22  C5  UNK     1      -1.668  -2.867   2.335  1.00  0.00     0.002 C 
HETATM   23  C3  UNK     1      -2.236  -1.612   2.995  1.00  0.00     0.025 C 
ENDBRANCH  15  17
ENDBRANCH   4  13
TORSDOF 2
