REMARK  2 active torsions:
REMARK  status: ('A' for Active; 'I' for Inactive)
REMARK    1  A    between atoms: C11_16  and  O3_3 
REMARK    2  A    between atoms: C2_7  and  C5_10 
ROOT
HETATM    1  O2  UNK     1       2.148   1.021   1.019  1.00  0.00    -0.274 OA
HETATM    2  O4  UNK     1       0.735   0.206   2.615  1.00  0.00    -0.259 OA
HETATM    3  C1  UNK     1       1.484   0.994  -1.317  1.00  0.00     0.002 A 
HETATM    4  C2  UNK     1      -0.028   0.098   0.362  1.00  0.00     0.093 A 
HETATM    5  C3  UNK     1       2.416   1.305  -0.334  1.00  0.00     0.089 A 
HETATM    6  C4  UNK     1       0.231   0.368  -0.926  1.00  0.00     0.036 A 
HETATM    7  C8  UNK     1       1.784   1.292  -2.649  1.00  0.00     0.051 A 
HETATM    8  C9  UNK     1       0.955   0.431   1.429  1.00  0.00     0.303 A 
HETATM    9  C10 UNK     1       3.636   1.903  -0.641  1.00  0.00     0.041 A 
HETATM   10  C11 UNK     1       3.004   1.892  -2.973  1.00  0.00     0.069 A 
HETATM   11  C12 UNK     1       3.928   2.197  -1.971  1.00  0.00     0.039 A 
ENDROOT
BRANCH   4  12
HETATM   12  C5  UNK     1      -1.267  -0.525   0.712  1.00  0.00     0.187 A 
HETATM   13  O1  UNK     1      -2.186  -0.844  -0.251  1.00  0.00    -0.289 OA
HETATM   14  C6  UNK     1      -3.214  -1.408   0.449  1.00  0.00     0.106 A 
HETATM   15  C13 UNK     1      -4.407  -1.908  -0.058  1.00  0.00     0.040 A 
HETATM   16  C7  UNK     1      -2.867  -1.400   1.792  1.00  0.00     0.093 A 
HETATM   17  C15 UNK     1      -5.294  -2.434   0.889  1.00  0.00     0.003 A 
HETATM   18  C16 UNK     1      -4.983  -2.446   2.254  1.00  0.00     0.002 A 
HETATM   19  C14 UNK     1      -3.767  -1.931   2.727  1.00  0.00     0.034 A 
HETATM   20  N1  UNK     1      -1.624  -0.835   1.945  1.00  0.00    -0.221 NA
ENDBRANCH   4  12
BRANCH  10  21
HETATM   21  O3  UNK     1       3.293   2.179  -4.273  1.00  0.00    -0.356 OA
HETATM   22  C17 UNK     1       4.555   2.790  -4.537  1.00  0.00     0.210 C 
ENDBRANCH  10  21
TORSDOF 2
