REMARK  4 active torsions:
REMARK  status: ('A' for Active; 'I' for Inactive)
REMARK       I    between atoms: C14_18  and  N1_4 
REMARK    1  A    between atoms: C4_8  and  N1_4 
REMARK    2  A    between atoms: C1_5  and  C3_7 
REMARK    3  A    between atoms: C13_17  and  C14_18 
REMARK    4  A    between atoms: C13_17  and  C16_20 
ROOT
HETATM    1  C1  UNK     1       1.170   0.455  -0.718  1.00  0.00    -0.014 A 
HETATM    2  C2  UNK     1       1.354  -0.911  -0.499  1.00  0.00    -0.049 A 
HETATM    3  C4  UNK     1      -0.578  -0.942   0.951  1.00  0.00     0.035 A 
HETATM    4  C5  UNK     1       0.481  -1.609   0.335  1.00  0.00     0.037 A 
HETATM    5  C6  UNK     1       0.110   1.121  -0.101  1.00  0.00     0.015 A 
HETATM    6  C9  UNK     1      -0.764   0.423   0.733  1.00  0.00     0.030 A 
HETATM    7  C11 UNK     1       2.477  -1.658  -1.144  1.00  0.00     0.049 C 
ENDROOT
BRANCH   1   8
HETATM    8  C3  UNK     1       2.077   1.222  -1.593  1.00  0.00     0.051 A 
HETATM    9  C12 UNK     1       1.777   1.367  -3.044  1.00  0.00     0.299 A 
HETATM   10  O1  UNK     1       2.665   2.131  -3.798  1.00  0.00    -0.274 OA
HETATM   11  O2  UNK     1       0.800   0.838  -3.564  1.00  0.00    -0.259 OA
HETATM   12  C10 UNK     1       3.806   2.727  -3.230  1.00  0.00     0.089 A 
HETATM   13  C8  UNK     1       4.079   2.578  -1.876  1.00  0.00    -0.001 A 
HETATM   14  C17 UNK     1       4.639   3.463  -4.070  1.00  0.00     0.038 A 
HETATM   15  C15 UNK     1       5.221   3.184  -1.347  1.00  0.00     0.014 A 
HETATM   16  C7  UNK     1       3.163   1.799  -1.058  1.00  0.00     0.032 A 
HETATM   17  C18 UNK     1       6.067   3.925  -2.177  1.00  0.00     0.001 A 
HETATM   18  C19 UNK     1       5.777   4.064  -3.536  1.00  0.00     0.003 A 
ENDBRANCH   1   8
BRANCH   3  19
HETATM   19  N1  UNK     1      -1.451  -1.640   1.786  1.00  0.00    -0.327 N 
HETATM   20  C14 UNK     1      -2.545  -1.105   2.463  1.00  0.00     0.226 C 
HETATM   21  O3  UNK     1      -2.940   0.056   2.451  1.00  0.00    -0.273 OA
HETATM   22  H8  UNK     1      -1.253  -2.632   1.894  1.00  0.00     0.169 HD
BRANCH  20  23
HETATM   23  C13 UNK     1      -3.246  -2.188   3.269  1.00  0.00     0.141 C 
BRANCH  23  24
HETATM   24  C16 UNK     1      -4.683  -2.398   2.870  1.00  0.00    -0.050 A 
HETATM   25  C20 UNK     1      -5.681  -1.667   3.498  1.00  0.00     0.007 A 
HETATM   26  C22 UNK     1      -7.011  -1.862   3.127  1.00  0.00     0.001 A 
HETATM   27  C24 UNK     1      -7.330  -2.786   2.132  1.00  0.00     0.000 A 
HETATM   28  C23 UNK     1      -6.318  -3.516   1.508  1.00  0.00     0.001 A 
HETATM   29  C21 UNK     1      -4.987  -3.321   1.879  1.00  0.00     0.007 A 
ENDBRANCH  23  24
ENDBRANCH  20  23
ENDBRANCH   3  19
TORSDOF 4
