REMARK  2 active torsions:
REMARK  status: ('A' for Active; 'I' for Inactive)
REMARK    1  A    between atoms: C5_9  and  O2_2 
REMARK    2  A    between atoms: C10_14  and  C4_8 
ROOT
HETATM    1  O1  UNK     1      -0.403  -0.049  -1.436  1.00  0.00    -0.271 OA
HETATM    2  O3  UNK     1      -2.487  -0.984  -1.430  1.00  0.00    -0.259 OA
HETATM    3  C1  UNK     1       0.737   0.356   0.673  1.00  0.00     0.002 A 
HETATM    4  C2  UNK     1       0.716   0.416  -0.717  1.00  0.00     0.123 A 
HETATM    5  C3  UNK     1      -0.414  -0.194   1.372  1.00  0.00     0.035 A 
HETATM    6  C4  UNK     1      -1.474  -0.634   0.683  1.00  0.00     0.086 A 
HETATM    7  C5  UNK     1       1.786   0.931  -1.446  1.00  0.00     0.102 A 
HETATM    8  C6  UNK     1       1.865   0.826   1.350  1.00  0.00     0.014 A 
HETATM    9  C7  UNK     1       2.906   1.398  -0.762  1.00  0.00     0.040 A 
HETATM   10  C8  UNK     1      -1.518  -0.581  -0.795  1.00  0.00     0.302 A 
HETATM   11  C9  UNK     1       2.946   1.346   0.633  1.00  0.00     0.004 A 
ENDROOT
BRANCH   6  12
HETATM   12  C10 UNK     1      -2.585  -1.171   1.477  1.00  0.00     0.161 C 
HETATM   13  O4  UNK     1      -3.306  -2.061   1.023  1.00  0.00    -0.293 OA
HETATM   14  C11 UNK     1      -2.805  -0.608   2.857  1.00  0.00     0.097 C 
ENDBRANCH   6  12
BRANCH   7  15
HETATM   15  O2  UNK     1       1.751   0.984  -2.804  1.00  0.00    -0.353 OA
HETATM   16  C12 UNK     1       1.216   2.168  -3.396  1.00  0.00     0.210 C 
ENDBRANCH   7  15
TORSDOF 2
