REMARK  7 active torsions:
REMARK  status: ('A' for Active; 'I' for Inactive)
REMARK    1  A    between atoms: C16_24  and  O3_4 
REMARK    2  A    between atoms: C23_31  and  O3_4 
REMARK    3  A    between atoms: C5_13  and  N1_6 
REMARK    4  A    between atoms: C6_14  and  N2_7 
REMARK    5  A    between atoms: C14_22  and  N3_8 
REMARK       I    between atoms: C8_16  and  N3_8 
REMARK    6  A    between atoms: C5_13  and  C7_15 
REMARK    7  A    between atoms: C6_14  and  C8_16 
ROOT
HETATM    1  N1  UNK     1       0.527   1.647  -0.652  1.00  0.00     0.096 N 
HETATM    2  N2  UNK     1      -1.169   0.333   1.286  1.00  0.00     0.100 N 
HETATM    3  C1  UNK     1      -0.552   0.744  -1.071  1.00  0.00     0.303 C 
HETATM    4  C2  UNK     1       0.194   2.286   0.627  1.00  0.00     0.303 C 
HETATM    5  C3  UNK     1      -0.834  -0.307   0.008  1.00  0.00     0.303 C 
HETATM    6  C4  UNK     1      -0.089   1.235   1.706  1.00  0.00     0.303 C 
ENDROOT
BRANCH   1   7
HETATM    7  C5  UNK     1       0.793   2.651  -1.680  1.00  0.00     0.312 C 
BRANCH   7   8
HETATM    8  C7  UNK     1       1.577   2.096  -2.818  1.00  0.00    -0.011 A 
HETATM    9  C10 UNK     1       0.966   1.549  -3.879  1.00  0.00     0.092 A 
HETATM   10  C13 UNK     1       1.699   0.988  -5.027  1.00  0.00     0.288 A 
HETATM   11  O1  UNK     1       3.083   1.045  -4.971  1.00  0.00    -0.275 OA
HETATM   12  O4  UNK     1       1.106   0.496  -5.980  1.00  0.00    -0.260 OA
HETATM   13  C11 UNK     1       3.753   1.613  -3.869  1.00  0.00     0.090 A 
HETATM   14  C9  UNK     1       3.046   2.141  -2.788  1.00  0.00     0.009 A 
HETATM   15  C15 UNK     1       5.148   1.615  -3.920  1.00  0.00     0.041 A 
HETATM   16  C12 UNK     1       3.786   2.686  -1.731  1.00  0.00     0.051 A 
HETATM   17  C16 UNK     1       5.185   2.696  -1.768  1.00  0.00     0.069 A 
HETATM   18  C18 UNK     1       5.865   2.161  -2.861  1.00  0.00     0.039 A 
BRANCH  17  19
HETATM   19  O3  UNK     1       5.886   3.230  -0.730  1.00  0.00    -0.351 OA
BRANCH  19  20
HETATM   20  C23 UNK     1       7.175   2.678  -0.465  1.00  0.00     0.171 C 
HETATM   21  C25 UNK     1       7.476   2.816   1.013  1.00  0.00     0.034 C 
ENDBRANCH  19  20
ENDBRANCH  17  19
ENDBRANCH   7   8
ENDBRANCH   1   7
BRANCH   2  22
HETATM   22  C6  UNK     1      -1.437  -0.670   2.315  1.00  0.00     0.375 C 
BRANCH  22  23
HETATM   23  C8  UNK     1      -2.828  -1.254   2.104  1.00  0.00     0.252 C 
HETATM   24  O2  UNK     1      -3.548  -0.818   1.202  1.00  0.00    -0.271 OA
HETATM   25  N3  UNK     1      -3.210  -2.263   3.020  1.00  0.00    -0.321 N 
HETATM   26  C17 UNK     1      -2.306  -2.743   4.077  1.00  0.00     0.159 C 
BRANCH  25  27
HETATM   27  C14 UNK     1      -4.556  -2.800   3.027  1.00  0.00     0.036 A 
HETATM   28  C19 UNK     1      -5.629  -1.997   2.639  1.00  0.00     0.033 A 
HETATM   29  C21 UNK     1      -6.924  -2.514   2.645  1.00  0.00     0.044 A 
HETATM   30  C24 UNK     1      -7.147  -3.834   3.040  1.00  0.00     0.116 A 
HETATM   31  C22 UNK     1      -6.074  -4.636   3.428  1.00  0.00     0.044 A 
HETATM   32  F1  UNK     1      -8.390  -4.330   3.047  1.00  0.00    -0.206 F 
HETATM   33  C20 UNK     1      -4.778  -4.119   3.421  1.00  0.00     0.033 A 
ENDBRANCH  25  27
ENDBRANCH  22  23
ENDBRANCH   2  22
TORSDOF 7
