REMARK  2 active torsions:
REMARK  status: ('A' for Active; 'I' for Inactive)
REMARK    1  A    between atoms: C11_16  and  N1_4 
REMARK       I    between atoms: C7_12  and  N1_4 
REMARK    2  A    between atoms: C3_8  and  C7_12 
ROOT
HETATM    1  O1  UNK     1       2.539   0.980   0.259  1.00  0.00    -0.274 OA
HETATM    2  O2  UNK     1       1.140  -0.189   1.637  1.00  0.00    -0.259 OA
HETATM    3  C1  UNK     1       1.886   1.392  -2.046  1.00  0.00    -0.001 A 
HETATM    4  C2  UNK     1       2.805   1.529  -1.010  1.00  0.00     0.089 A 
HETATM    5  C3  UNK     1       0.400   0.153  -0.588  1.00  0.00     0.108 A 
HETATM    6  C4  UNK     1       0.647   0.672  -1.797  1.00  0.00     0.037 A 
HETATM    7  C5  UNK     1       2.185   1.951  -3.291  1.00  0.00     0.014 A 
HETATM    8  C6  UNK     1       1.362   0.287   0.528  1.00  0.00     0.304 A 
HETATM    9  C8  UNK     1       4.010   2.206  -1.184  1.00  0.00     0.038 A 
HETATM   10  C9  UNK     1       3.390   2.633  -3.480  1.00  0.00     0.001 A 
HETATM   11  C10 UNK     1       4.301   2.760  -2.428  1.00  0.00     0.003 A 
ENDROOT
BRANCH   5  12
HETATM   12  C7  UNK     1      -0.877  -0.556  -0.435  1.00  0.00     0.262 C 
HETATM   13  O3  UNK     1      -1.379  -1.125  -1.403  1.00  0.00    -0.267 OA
HETATM   14  N1  UNK     1      -1.368  -0.476   0.861  1.00  0.00    -0.321 N 
HETATM   15  H5  UNK     1      -0.838   0.055   1.548  1.00  0.00     0.169 HD
BRANCH  14  16
HETATM   16  C11 UNK     1      -2.566  -1.037   1.367  1.00  0.00     0.052 A 
HETATM   17  C13 UNK     1      -3.394  -1.758   0.541  1.00  0.00     0.145 A 
HETATM   18  N2  UNK     1      -4.550  -2.319   0.960  1.00  0.00    -0.271 NA
HETATM   19  C15 UNK     1      -4.869  -2.137   2.261  1.00  0.00     0.116 A 
HETATM   20  C14 UNK     1      -4.090  -1.425   3.159  1.00  0.00     0.021 A 
HETATM   21  C12 UNK     1      -2.908  -0.863   2.691  1.00  0.00     0.032 A 
ENDBRANCH  14  16
ENDBRANCH   5  12
TORSDOF 2
