REMARK  2 active torsions:
REMARK  status: ('A' for Active; 'I' for Inactive)
REMARK    1  A    between atoms: C5_8  and  O2_2 
REMARK    2  A    between atoms: C2_5  and  C4_7 
ROOT
HETATM    1  O1  UNK     1      -0.658  -0.295  -0.822  1.00  0.00    -0.306 OA
HETATM    2  O3  UNK     1      -1.065   0.997   3.021  1.00  0.00    -0.284 OA
HETATM    3  C1  UNK     1      -1.833  -0.419   1.298  1.00  0.00     0.051 A 
HETATM    4  C2  UNK     1       0.193   0.658  -0.285  1.00  0.00     0.123 A 
HETATM    5  C3  UNK     1      -1.643  -0.816  -0.023  1.00  0.00     0.090 A 
HETATM    6  C5  UNK     1       0.112   1.133   0.971  1.00  0.00     0.152 A 
HETATM    7  C6  UNK     1      -0.943   0.604   1.869  1.00  0.00     0.220 A 
HETATM    8  C7  UNK     1      -2.855  -0.984   2.065  1.00  0.00     0.018 A 
HETATM    9  C8  UNK     1      -2.476  -1.782  -0.588  1.00  0.00     0.038 A 
HETATM   10  C11 UNK     1      -3.686  -1.951   1.498  1.00  0.00     0.001 A 
HETATM   11  C12 UNK     1      -3.498  -2.349   0.174  1.00  0.00     0.003 A 
ENDROOT
BRANCH   4  12
HETATM   12  C4  UNK     1       1.204   1.132  -1.246  1.00  0.00     0.001 A 
HETATM   13  C10 UNK     1       0.924   2.217  -2.077  1.00  0.00     0.014 A 
HETATM   14  C14 UNK     1       1.882   2.666  -2.986  1.00  0.00     0.001 A 
HETATM   15  C15 UNK     1       3.120   2.029  -3.066  1.00  0.00     0.000 A 
HETATM   16  C13 UNK     1       3.401   0.944  -2.236  1.00  0.00     0.001 A 
HETATM   17  C9  UNK     1       2.443   0.495  -1.326  1.00  0.00     0.014 A 
ENDBRANCH   4  12
BRANCH   6  18
HETATM   18  O2  UNK     1       0.955   2.106   1.463  1.00  0.00    -0.355 OA
HETATM   19  H10 UNK     1       1.592   2.367   0.779  1.00  0.00     0.218 HD
ENDBRANCH   6  18
TORSDOF 2
