REMARK  10 active torsions:
REMARK  status: ('A' for Active; 'I' for Inactive)
REMARK    1  A    between atoms: C7_17  and  S1_1 
REMARK    2  A    between atoms: C2_12  and  O1_2 
REMARK    3  A    between atoms: C9_19  and  O1_2 
REMARK    4  A    between atoms: C16_26  and  O2_3 
REMARK    5  A    between atoms: C8_18  and  O2_3 
REMARK    6  A    between atoms: C1_11  and  N1_10 
REMARK       I    between atoms: C9_19  and  N1_10 
REMARK    7  A    between atoms: C1_11  and  C8_18 
REMARK    8  A    between atoms: C1_11  and  C3_13 
REMARK    9  A    between atoms: C3_13  and  C7_17 
REMARK   10  A    between atoms: C10_20  and  C11_21 
ROOT
HETATM    1  O3  UNK     1      -1.437   0.567   1.587  1.00  0.00    -0.321 OA
HETATM    2  O8  UNK     1      -3.296  -2.305  -0.635  1.00  0.00    -0.286 OA
HETATM    3  C10 UNK     1      -3.276  -1.003   1.358  1.00  0.00     0.048 A 
HETATM    4  C12 UNK     1      -1.482  -0.823  -0.402  1.00  0.00     0.049 A 
HETATM    5  C13 UNK     1      -0.897   0.161   0.394  1.00  0.00     0.091 A 
HETATM    6  C14 UNK     1      -2.735  -1.459   0.047  1.00  0.00     0.197 A 
HETATM    7  C16 UNK     1       0.881   0.408  -1.220  1.00  0.00     0.082 A 
HETATM    8  C19 UNK     1       0.285   0.779  -0.014  1.00  0.00     0.075 A 
HETATM    9  C21 UNK     1      -0.888  -1.196  -1.610  1.00  0.00     0.021 A 
HETATM   10  C22 UNK     1       0.296  -0.577  -2.015  1.00  0.00     0.038 A 
HETATM   11  C23 UNK     1      -2.593  -0.047   2.005  1.00  0.00     0.159 A 
ENDROOT
BRANCH   7  12
HETATM   12  O2  UNK     1       2.036   1.007  -1.620  1.00  0.00    -0.277 OA
BRANCH  12  13
HETATM   13  C8  UNK     1       3.207   0.369  -1.180  1.00  0.00     0.287 C 
HETATM   14  O6  UNK     1       3.229  -0.642  -0.486  1.00  0.00    -0.263 OA
BRANCH  13  15
HETATM   15  C1  UNK     1       4.473   1.074  -1.652  1.00  0.00     0.187 C 
BRANCH  15  16
HETATM   16  N1  UNK     1       4.192   2.167  -2.548  1.00  0.00    -0.323 N 
HETATM   17  C9  UNK     1       5.005   2.521  -3.607  1.00  0.00     0.362 C 
HETATM   18  O7  UNK     1       6.053   1.966  -3.920  1.00  0.00    -0.238 OA
HETATM   19  H4  UNK     1       3.354   2.718  -2.391  1.00  0.00     0.165 HD
BRANCH  17  20
HETATM   20  O1  UNK     1       4.469   3.592  -4.265  1.00  0.00    -0.294 OA
BRANCH  20  21
HETATM   21  C2  UNK     1       5.213   4.069  -5.392  1.00  0.00     0.061 C 
HETATM   22  C4  UNK     1       6.595   4.511  -4.911  1.00  0.00     0.046 C 
HETATM   23  C5  UNK     1       4.446   5.251  -5.982  1.00  0.00     0.046 C 
HETATM   24  C6  UNK     1       5.327   2.939  -6.413  1.00  0.00     0.046 C 
ENDBRANCH  20  21
ENDBRANCH  17  20
ENDBRANCH  15  16
BRANCH  15  25
HETATM   25  C3  UNK     1       5.335   1.528  -0.466  1.00  0.00     0.045 C 
BRANCH  25  26
HETATM   26  C7  UNK     1       4.605   2.470   0.494  1.00  0.00     0.076 C 
BRANCH  26  27
HETATM   27  S1  UNK     1       5.694   2.955   1.866  1.00  0.00    -0.173 SA
HETATM   28  C27 UNK     1       4.555   4.064   2.724  1.00  0.00     0.089 C 
ENDBRANCH  26  27
ENDBRANCH  25  26
ENDBRANCH  15  25
ENDBRANCH  13  15
ENDBRANCH  12  13
ENDBRANCH   7  12
BRANCH   3  29
HETATM   29  C11 UNK     1      -4.497  -1.583   1.940  1.00  0.00    -0.017 A 
HETATM   30  C17 UNK     1      -4.411  -2.701   2.770  1.00  0.00     0.052 A 
HETATM   31  C15 UNK     1      -5.569  -3.243   3.326  1.00  0.00     0.102 A 
HETATM   32  O4  UNK     1      -5.418  -4.328   4.149  1.00  0.00    -0.346 OA
HETATM   33  C18 UNK     1      -6.815  -2.686   3.030  1.00  0.00     0.102 A 
HETATM   34  C25 UNK     1      -6.595  -4.579   4.923  1.00  0.00     0.202 C 
HETATM   35  C26 UNK     1      -7.827  -4.513   4.042  1.00  0.00     0.202 C 
HETATM   36  O5  UNK     1      -7.991  -3.192   3.518  1.00  0.00    -0.346 OA
HETATM   37  C24 UNK     1      -6.900  -1.559   2.211  1.00  0.00     0.040 A 
HETATM   38  C20 UNK     1      -5.739  -1.009   1.666  1.00  0.00     0.015 A 
ENDBRANCH   3  29
TORSDOF 10
