REMARK  1 active torsions:
REMARK  status: ('A' for Active; 'I' for Inactive)
REMARK    1  A    between atoms: C10_15  and  C6_11 
ROOT
HETATM    1 Cl1  UNK     1      -0.721  -0.586   3.438  1.00  0.00    -0.081 Cl
HETATM    2 Cl2  UNK     1      -4.026  -1.660  -0.670  1.00  0.00    -0.084 Cl
HETATM    3  O1  UNK     1       1.060   0.486   1.363  1.00  0.00    -0.319 OA
HETATM    4  O2  UNK     1       0.391   0.640  -2.662  1.00  0.00    -0.286 OA
HETATM    5  C1  UNK     1      -0.400   0.020  -0.524  1.00  0.00     0.052 A 
HETATM    6  C2  UNK     1      -0.113  -0.003   0.842  1.00  0.00     0.111 A 
HETATM    7  C3  UNK     1       0.590   0.592  -1.456  1.00  0.00     0.200 A 
HETATM    8  C4  UNK     1      -1.611  -0.492  -0.998  1.00  0.00     0.042 A 
HETATM    9  C5  UNK     1      -1.036  -0.538   1.741  1.00  0.00     0.070 A 
HETATM   10  C6  UNK     1       1.837   1.099  -0.843  1.00  0.00     0.075 A 
HETATM   11  C7  UNK     1      -2.532  -1.027  -0.096  1.00  0.00     0.036 A 
HETATM   12  C8  UNK     1      -2.245  -1.050   1.270  1.00  0.00     0.050 A 
HETATM   13  C9  UNK     1       1.977   1.012   0.484  1.00  0.00     0.161 A 
ENDROOT
BRANCH  10  14
HETATM   14  C10 UNK     1       2.931   1.696  -1.610  1.00  0.00     0.276 C 
HETATM   15  O3  UNK     1       2.895   1.819  -2.829  1.00  0.00    -0.301 OA
ENDBRANCH  10  14
TORSDOF 1
