REMARK  8 active torsions:
REMARK  status: ('A' for Active; 'I' for Inactive)
REMARK    1  A    between atoms: C11_18  and  O1_2 
REMARK    2  A    between atoms: C2_9  and  O1_2 
REMARK    3  A    between atoms: C3_10  and  O2_3 
REMARK    4  A    between atoms: C9_16  and  O3_4 
REMARK    5  A    between atoms: C10_17  and  O4_5 
REMARK    6  A    between atoms: C1_8  and  C8_15 
REMARK    7  A    between atoms: C11_18  and  C4_11 
REMARK    8  A    between atoms: C12_19  and  C13_20 
ROOT
HETATM    1  N1  UNK     1      -0.975  -2.545   3.138  1.00  0.00    -0.191 NA
HETATM    2  C8  UNK     1      -2.860  -0.742   0.882  1.00  0.00     0.035 C 
HETATM    3  C12 UNK     1      -3.066  -1.628   1.893  1.00  0.00     0.055 C 
HETATM    4  C23 UNK     1      -1.902  -2.130   2.576  1.00  0.00     0.100 C 
ENDROOT
BRANCH   3   5
HETATM    5  C13 UNK     1      -4.381  -2.081   2.317  1.00  0.00    -0.015 A 
HETATM    6  C17 UNK     1      -4.949  -3.215   1.738  1.00  0.00     0.014 A 
HETATM    7  C19 UNK     1      -6.210  -3.650   2.145  1.00  0.00     0.024 A 
HETATM    8  C21 UNK     1      -6.905  -2.949   3.132  1.00  0.00     0.034 A 
HETATM    9  C20 UNK     1      -6.337  -1.815   3.711  1.00  0.00     0.024 A 
HETATM   10 Cl1  UNK     1      -8.461  -3.485   3.634  1.00  0.00    -0.084 Cl
HETATM   11  C18 UNK     1      -5.075  -1.380   3.304  1.00  0.00     0.014 A 
ENDBRANCH   3   5
BRANCH   2  12
HETATM   12  C1  UNK     1      -1.551  -0.253   0.425  1.00  0.00    -0.032 A 
HETATM   13  C5  UNK     1      -0.872  -0.945  -0.566  1.00  0.00     0.051 A 
HETATM   14  C3  UNK     1       0.369  -0.481  -1.000  1.00  0.00     0.102 A 
HETATM   15  C2  UNK     1       0.918   0.671  -0.437  1.00  0.00     0.112 A 
HETATM   16  C7  UNK     1       0.226   1.359   0.560  1.00  0.00     0.041 A 
HETATM   17  C6  UNK     1      -1.016   0.894   0.993  1.00  0.00     0.014 A 
BRANCH  14  18
HETATM   18  O2  UNK     1       1.037  -1.161  -1.973  1.00  0.00    -0.353 OA
HETATM   19  C22 UNK     1       1.928  -2.191  -1.548  1.00  0.00     0.210 C 
ENDBRANCH  14  18
BRANCH  15  20
HETATM   20  O1  UNK     1       2.130   1.136  -0.853  1.00  0.00    -0.272 OA
BRANCH  20  21
HETATM   21  C11 UNK     1       2.064   2.038  -1.916  1.00  0.00     0.304 C 
HETATM   22  O5  UNK     1       1.042   2.408  -2.476  1.00  0.00    -0.259 OA
BRANCH  21  23
HETATM   23  C4  UNK     1       3.419   2.498  -2.312  1.00  0.00     0.106 A 
HETATM   24  C10 UNK     1       3.655   2.834  -3.631  1.00  0.00     0.087 A 
HETATM   25  C15 UNK     1       4.928   3.266  -4.003  1.00  0.00     0.038 A 
HETATM   26  C16 UNK     1       5.941   3.355  -3.048  1.00  0.00     0.006 A 
HETATM   27  C14 UNK     1       5.681   3.011  -1.721  1.00  0.00     0.038 A 
HETATM   28  C9  UNK     1       4.408   2.578  -1.350  1.00  0.00     0.087 A 
BRANCH  24  29
HETATM   29  O4  UNK     1       2.680   2.755  -4.580  1.00  0.00    -0.355 OA
HETATM   30  C25 UNK     1       2.552   1.518  -5.276  1.00  0.00     0.210 C 
ENDBRANCH  24  29
BRANCH  28  31
HETATM   31  O3  UNK     1       4.176   2.246  -0.049  1.00  0.00    -0.355 OA
HETATM   32  C24 UNK     1       5.271   2.368   0.856  1.00  0.00     0.210 C 
ENDBRANCH  28  31
ENDBRANCH  21  23
ENDBRANCH  20  21
ENDBRANCH  15  20
ENDBRANCH   2  12
TORSDOF 8
