REMARK  3 active torsions:
REMARK  status: ('A' for Active; 'I' for Inactive)
REMARK    1  A    between atoms: C19_24  and  O4_4 
REMARK    2  A    between atoms: C8_13  and  N1_5 
REMARK    3  A    between atoms: C11_16  and  C8_13 
ROOT
HETATM    1  O1  UNK     1       1.190  -0.065   2.538  1.00  0.00    -0.320 OA
HETATM    2  O2  UNK     1      -3.020  -2.201   2.203  1.00  0.00    -0.274 OA
HETATM    3  O3  UNK     1      -5.026  -3.261   2.139  1.00  0.00    -0.259 OA
HETATM    4  N1  UNK     1       2.127   1.168   0.651  1.00  0.00     0.120 N 
HETATM    5  C1  UNK     1       0.797   1.438   0.093  1.00  0.00     0.317 C 
HETATM    6  C2  UNK     1      -0.220   0.465   0.630  1.00  0.00     0.005 A 
HETATM    7  C3  UNK     1       0.028  -0.214   1.827  1.00  0.00     0.087 A 
HETATM    8  C4  UNK     1       2.011   1.038   2.107  1.00  0.00     0.448 C 
HETATM    9  C5  UNK     1      -0.912  -1.107   2.329  1.00  0.00     0.007 A 
HETATM   10  C6  UNK     1      -2.404  -0.631   0.449  1.00  0.00     0.006 A 
HETATM   11  C7  UNK     1      -1.438   0.264  -0.041  1.00  0.00     0.026 A 
HETATM   12  C9  UNK     1      -2.109  -1.296   1.635  1.00  0.00     0.099 A 
HETATM   13  C10 UNK     1      -3.699  -0.892  -0.213  1.00  0.00    -0.037 A 
HETATM   14  C12 UNK     1      -0.644  -1.858   3.594  1.00  0.00     0.054 C 
HETATM   15  C13 UNK     1      -4.580  -1.739   0.362  1.00  0.00     0.020 A 
HETATM   16  C14 UNK     1      -4.251  -2.460   1.625  1.00  0.00     0.294 A 
HETATM   17  C15 UNK     1      -3.950  -0.190  -1.524  1.00  0.00     0.050 C 
HETATM   18  C18 UNK     1      -5.956  -2.043  -0.172  1.00  0.00     0.055 C 
ENDROOT
BRANCH   4  19
HETATM   19  C8  UNK     1       3.067   2.226   0.288  1.00  0.00     0.314 C 
BRANCH  19  20
HETATM   20  C11 UNK     1       3.195   2.327  -1.206  1.00  0.00    -0.027 A 
HETATM   21  C16 UNK     1       3.336   1.171  -1.963  1.00  0.00     0.045 A 
HETATM   22  C19 UNK     1       3.455   1.266  -3.349  1.00  0.00     0.068 A 
HETATM   23  C21 UNK     1       3.433   2.516  -3.967  1.00  0.00     0.037 A 
HETATM   24  C20 UNK     1       3.291   3.671  -3.199  1.00  0.00     0.003 A 
HETATM   25  C17 UNK     1       3.172   3.577  -1.812  1.00  0.00     0.009 A 
BRANCH  22  26
HETATM   26  O4  UNK     1       3.594   0.138  -4.099  1.00  0.00    -0.356 OA
HETATM   27  C22 UNK     1       3.711   0.308  -5.511  1.00  0.00     0.210 C 
ENDBRANCH  22  26
ENDBRANCH  19  20
ENDBRANCH   4  19
TORSDOF 3
