REMARK  2 active torsions:
REMARK  status: ('A' for Active; 'I' for Inactive)
REMARK       I    between atoms: C5_12  and  N1_5 
REMARK    1  A    between atoms: C6_13  and  N2_6 
REMARK    2  A    between atoms: C5_12  and  C7_14 
ROOT
HETATM    1  O1  UNK     1      -1.485   1.825  -2.659  1.00  0.00    -0.267 OA
HETATM    2  N1  UNK     1      -1.448   0.226  -0.969  1.00  0.00    -0.345 N 
HETATM    3  N2  UNK     1      -2.759  -1.201   1.181  1.00  0.00    -0.363 N 
HETATM    4  C1  UNK     1      -2.902   0.224  -0.822  1.00  0.00     0.146 C 
HETATM    5  C2  UNK     1      -0.709  -0.681  -0.086  1.00  0.00     0.146 C 
HETATM    6  C3  UNK     1      -3.320   0.038   0.635  1.00  0.00     0.144 C 
HETATM    7  C4  UNK     1      -1.586  -1.778   0.522  1.00  0.00     0.144 C 
HETATM    8  C5  UNK     1      -0.864   1.065  -1.916  1.00  0.00     0.260 C 
ENDROOT
BRANCH   8   9
HETATM    9  C7  UNK     1       0.610   1.040  -2.021  1.00  0.00     0.108 A 
HETATM   10  C11 UNK     1       1.317   0.112  -2.933  1.00  0.00     0.304 A 
HETATM   11  O3  UNK     1       0.713  -0.681  -3.647  1.00  0.00    -0.259 OA
HETATM   12  O2  UNK     1       2.707   0.183  -2.942  1.00  0.00    -0.274 OA
HETATM   13  C12 UNK     1       3.411   1.091  -2.127  1.00  0.00     0.089 A 
HETATM   14  C10 UNK     1       2.727   1.954  -1.276  1.00  0.00     0.000 A 
HETATM   15  C17 UNK     1       4.802   1.089  -2.206  1.00  0.00     0.039 A 
HETATM   16  C9  UNK     1       1.273   1.904  -1.244  1.00  0.00     0.037 A 
HETATM   17  C15 UNK     1       3.460   2.840  -0.483  1.00  0.00     0.033 A 
HETATM   18  C18 UNK     1       4.856   2.849  -0.552  1.00  0.00     0.011 A 
HETATM   19 Br1  UNK     1       5.844   4.049   0.525  1.00  0.00    -0.051 Br
HETATM   20  C19 UNK     1       5.525   1.975  -1.411  1.00  0.00     0.022 A 
ENDBRANCH   8   9
BRANCH   3  21
HETATM   21  C6  UNK     1      -3.369  -1.839   2.258  1.00  0.00     0.125 A 
HETATM   22  N3  UNK     1      -3.284  -3.205   2.397  1.00  0.00    -0.244 NA
HETATM   23  C14 UNK     1      -3.894  -3.775   3.460  1.00  0.00     0.119 A 
HETATM   24  C16 UNK     1      -4.601  -3.068   4.420  1.00  0.00     0.019 A 
HETATM   25  C13 UNK     1      -4.686  -1.687   4.280  1.00  0.00     0.005 A 
HETATM   26  C8  UNK     1      -4.072  -1.064   3.199  1.00  0.00     0.050 A 
ENDBRANCH   3  21
TORSDOF 2
