REMARK  4 active torsions:
REMARK  status: ('A' for Active; 'I' for Inactive)
REMARK    1  A    between atoms: C2_6  and  N1_4 
REMARK       I    between atoms: C8_12  and  N1_4 
REMARK    2  A    between atoms: C8_12  and  C9_13 
REMARK    3  A    between atoms: C14_18  and  C16_20 
REMARK    4  A    between atoms: C16_20  and  C19_23 
ROOT
HETATM    1  O2  UNK     1       1.665   1.603  -0.287  1.00  0.00    -0.273 OA
HETATM    2  O3  UNK     1       0.070   1.033   1.247  1.00  0.00    -0.259 OA
HETATM    3  C9  UNK     1      -0.279   0.289  -0.975  1.00  0.00     0.108 A 
HETATM    4  C10 UNK     1       0.165   0.244  -2.237  1.00  0.00     0.037 A 
HETATM    5  C11 UNK     1       1.414   0.895  -2.599  1.00  0.00    -0.000 A 
HETATM    6  C12 UNK     1       0.473   0.991   0.089  1.00  0.00     0.304 A 
HETATM    7  C13 UNK     1       2.137   1.560  -1.613  1.00  0.00     0.096 A 
HETATM    8  C14 UNK     1       3.341   2.203  -1.894  1.00  0.00    -0.020 A 
HETATM    9  C15 UNK     1       1.914   0.875  -3.903  1.00  0.00     0.014 A 
HETATM   10  C17 UNK     1       3.832   2.178  -3.197  1.00  0.00     0.010 A 
HETATM   11  C18 UNK     1       3.121   1.516  -4.200  1.00  0.00     0.002 A 
ENDROOT
BRANCH   3  12
HETATM   12  C8  UNK     1      -1.554  -0.400  -0.708  1.00  0.00     0.258 C 
HETATM   13  O1  UNK     1      -2.411  -0.490  -1.581  1.00  0.00    -0.267 OA
HETATM   14  N1  UNK     1      -1.636  -0.891   0.581  1.00  0.00    -0.352 N 
HETATM   15  H14 UNK     1      -0.871  -0.745   1.233  1.00  0.00     0.163 HD
BRANCH  14  16
HETATM   16  C2  UNK     1      -2.806  -1.611   1.084  1.00  0.00     0.084 C 
HETATM   17  C5  UNK     1      -3.816  -0.616   1.665  1.00  0.00     0.025 C 
HETATM   18  C3  UNK     1      -5.032  -1.334   2.250  1.00  0.00     0.006 C 
HETATM   19  C1  UNK     1      -4.623  -2.376   3.299  1.00  0.00    -0.019 C 
HETATM   20  C4  UNK     1      -3.605  -3.366   2.719  1.00  0.00     0.006 C 
HETATM   21  C7  UNK     1      -5.850  -3.114   3.832  1.00  0.00     0.010 C 
HETATM   22  C6  UNK     1      -2.390  -2.648   2.133  1.00  0.00     0.025 C 
ENDBRANCH  14  16
ENDBRANCH   3  12
BRANCH   8  23
HETATM   23  C16 UNK     1       4.108   2.914  -0.831  1.00  0.00     0.067 C 
BRANCH  23  24
HETATM   24  C19 UNK     1       5.102   2.026  -0.128  1.00  0.00    -0.032 C 
HETATM   25  C20 UNK     1       5.056   1.732   1.177  1.00  0.00     0.007 C 
ENDBRANCH  23  24
ENDBRANCH   8  23
TORSDOF 4
