REMARK  4 active torsions:
REMARK  status: ('A' for Active; 'I' for Inactive)
REMARK    1  A    between atoms: C11_17  and  O1_1 
REMARK    2  A    between atoms: C18_24  and  O1_1 
REMARK    3  A    between atoms: C17_23  and  C6_12 
REMARK    4  A    between atoms: C10_16  and  C18_24 
ROOT
HETATM    1  O2  UNK     1       3.244  -0.249   0.288  1.00  0.00    -0.293 OA
HETATM    2  N1  UNK     1       0.661   2.114  -2.902  1.00  0.00    -0.362 N 
HETATM    3  C1  UNK     1       4.326   2.313  -2.040  1.00  0.00    -0.036 C 
HETATM    4  C2  UNK     1       2.943   2.882  -2.414  1.00  0.00     0.067 C 
HETATM    5  C3  UNK     1       4.259   1.709  -0.630  1.00  0.00     0.092 C 
HETATM    6  C4  UNK     1       1.865   0.935  -1.237  1.00  0.00     0.024 C 
HETATM    7  C5  UNK     1       1.800   1.937  -2.140  1.00  0.00     0.021 C 
HETATM    8  C6  UNK     1       0.673   0.010  -0.995  1.00  0.00     0.104 C 
HETATM    9  C7  UNK     1       3.132   0.708  -0.478  1.00  0.00     0.159 C 
HETATM   10  C8  UNK     1       4.772   1.247  -3.062  1.00  0.00     0.015 C 
HETATM   11  C9  UNK     1       5.362   3.451  -2.055  1.00  0.00     0.015 C 
HETATM   12  C10 UNK     1      -0.430   0.199  -2.040  1.00  0.00     0.052 C 
HETATM   13  C14 UNK     1      -0.412   1.237  -2.907  1.00  0.00     0.018 C 
HETATM   14  C19 UNK     1      -1.477   1.541  -3.926  1.00  0.00     0.069 C 
HETATM   15  H17 UNK     1       0.650   2.877  -3.569  1.00  0.00     0.165 HD
ENDROOT
BRANCH   8  16
HETATM   16  C17 UNK     1       0.116   0.214   0.392  1.00  0.00     0.029 A 
HETATM   17  C20 UNK     1       0.141  -0.927   1.341  1.00  0.00     0.194 A 
HETATM   18  O5  UNK     1       0.598  -2.020   1.033  1.00  0.00    -0.287 OA
HETATM   19  C22 UNK     1      -0.415  -0.674   2.683  1.00  0.00     0.048 A 
HETATM   20  C23 UNK     1      -0.922   0.592   2.979  1.00  0.00     0.089 A 
HETATM   21  C24 UNK     1      -0.437  -1.684   3.648  1.00  0.00     0.018 A 
HETATM   22  O3  UNK     1      -0.926   1.620   2.071  1.00  0.00    -0.321 OA
HETATM   23  C25 UNK     1      -1.454   0.854   4.242  1.00  0.00     0.038 A 
HETATM   24  C21 UNK     1      -0.404   1.370   0.825  1.00  0.00     0.154 A 
HETATM   25  C27 UNK     1      -1.476  -0.153   5.207  1.00  0.00     0.003 A 
HETATM   26  C26 UNK     1      -0.969  -1.419   4.910  1.00  0.00     0.001 A 
ENDBRANCH   8  16
BRANCH  12  27
HETATM   27  C18 UNK     1      -1.478  -0.835  -2.092  1.00  0.00     0.292 C 
HETATM   28  O4  UNK     1      -1.383  -1.849  -2.757  1.00  0.00    -0.259 OA
BRANCH  27  29
HETATM   29  O1  UNK     1      -2.502  -0.445  -1.295  1.00  0.00    -0.312 OA
BRANCH  29  30
HETATM   30  C11 UNK     1      -3.592  -1.342  -1.240  1.00  0.00     0.132 C 
HETATM   31  C12 UNK     1      -4.656  -0.850  -0.272  1.00  0.00     0.032 C 
HETATM   32  C15 UNK     1      -5.458  -2.102   0.061  1.00  0.00     0.002 C 
HETATM   33  C16 UNK     1      -4.509  -3.283  -0.162  1.00  0.00     0.002 C 
HETATM   34  C13 UNK     1      -3.193  -2.682  -0.642  1.00  0.00     0.032 C 
ENDBRANCH  29  30
ENDBRANCH  27  29
ENDBRANCH  12  27
TORSDOF 4
