REMARK  6 active torsions:
REMARK  status: ('A' for Active; 'I' for Inactive)
REMARK    1  A    between atoms: C1_9  and  O1_2 
REMARK    2  A    between atoms: C13_21  and  O1_2 
REMARK    3  A    between atoms: C16_24  and  N1_6 
REMARK    4  A    between atoms: C8_16  and  N1_6 
REMARK       I    between atoms: C13_21  and  N2_7 
REMARK    5  A    between atoms: N2_7  and  N3_8 
REMARK    6  A    between atoms: C16_24  and  N3_8 
ROOT
HETATM    1  N1  UNK     1      -0.220   0.690  -0.652  1.00  0.00    -0.332 N 
HETATM    2  H17 UNK     1       0.589   1.186  -0.284  1.00  0.00     0.168 HD
ENDROOT
BRANCH   1   3
HETATM    3  C16 UNK     1      -0.279   0.699  -2.057  1.00  0.00     0.191 C 
HETATM    4  S1  UNK     1      -1.619   0.537  -3.051  1.00  0.00    -0.039 SA
BRANCH   3   5
HETATM    5  N3  UNK     1       0.948   0.898  -2.681  1.00  0.00    -0.272 N 
HETATM    6  H19 UNK     1       1.029   0.923  -3.692  1.00  0.00     0.189 HD
BRANCH   5   7
HETATM    7  N2  UNK     1       2.112   1.043  -1.965  1.00  0.00    -0.243 N 
HETATM    8  C13 UNK     1       3.139   1.792  -2.492  1.00  0.00     0.380 C 
HETATM    9  O3  UNK     1       3.122   2.365  -3.577  1.00  0.00    -0.237 OA
HETATM   10  H18 UNK     1       2.206   0.526  -1.097  1.00  0.00     0.192 HD
BRANCH   8  11
HETATM   11  O1  UNK     1       4.192   1.808  -1.622  1.00  0.00    -0.293 OA
BRANCH  11  12
HETATM   12  C1  UNK     1       5.338   2.557  -2.043  1.00  0.00     0.061 C 
HETATM   13  C2  UNK     1       4.919   4.011  -2.252  1.00  0.00     0.046 C 
HETATM   14  C3  UNK     1       6.386   2.454  -0.937  1.00  0.00     0.046 C 
HETATM   15  C4  UNK     1       5.866   1.949  -3.342  1.00  0.00     0.046 C 
ENDBRANCH  11  12
ENDBRANCH   8  11
ENDBRANCH   5   7
ENDBRANCH   3   5
ENDBRANCH   1   3
BRANCH   1  16
HETATM   16  C8  UNK     1      -0.987   0.087   0.345  1.00  0.00     0.037 A 
HETATM   17  C10 UNK     1      -2.047  -0.746   0.003  1.00  0.00     0.067 A 
HETATM   18  C6  UNK     1      -2.800  -1.340   1.017  1.00  0.00     0.092 A 
HETATM   19  C5  UNK     1      -2.529  -1.128   2.369  1.00  0.00     0.004 A 
HETATM   20  O2  UNK     1      -3.861  -2.174   0.609  1.00  0.00    -0.275 OA
HETATM   21  C7  UNK     1      -3.375  -1.794   3.370  1.00  0.00    -0.043 A 
HETATM   22  C9  UNK     1      -1.458  -0.285   2.693  1.00  0.00     0.017 A 
HETATM   23  C12 UNK     1      -4.376  -2.582   2.952  1.00  0.00     0.090 A 
HETATM   24  C14 UNK     1      -3.109  -1.586   4.832  1.00  0.00     0.049 C 
HETATM   25  C15 UNK     1      -4.674  -2.816   1.529  1.00  0.00     0.288 A 
HETATM   26  O4  UNK     1      -5.599  -3.543   1.185  1.00  0.00    -0.260 OA
HETATM   27  C11 UNK     1      -0.693   0.317   1.688  1.00  0.00     0.030 A 
ENDBRANCH   1  16
TORSDOF 6
