REMARK  3 active torsions:
REMARK  status: ('A' for Active; 'I' for Inactive)
REMARK    1  A    between atoms: C3_7  and  O1_1 
REMARK    2  A    between atoms: C8_12  and  O1_1 
REMARK    3  A    between atoms: C11_15  and  C8_12 
ROOT
HETATM    1  O2  UNK     1      -2.399  -0.700  -0.387  1.00  0.00    -0.275 OA
HETATM    2  O3  UNK     1      -4.383  -1.836  -0.247  1.00  0.00    -0.260 OA
HETATM    3  C1  UNK     1      -0.940  -0.623   1.560  1.00  0.00    -0.002 A 
HETATM    4  C2  UNK     1      -1.206  -0.280   0.237  1.00  0.00     0.092 A 
HETATM    5  C3  UNK     1       0.870   0.914   0.074  1.00  0.00     0.071 A 
HETATM    6  C4  UNK     1      -0.317   0.483  -0.515  1.00  0.00     0.075 A 
HETATM    7  C5  UNK     1       0.252  -0.188   2.144  1.00  0.00     0.017 A 
HETATM    8  C6  UNK     1       1.154   0.579   1.400  1.00  0.00     0.038 A 
HETATM    9  C7  UNK     1      -1.913  -1.421   2.287  1.00  0.00     0.020 A 
HETATM   10  C9  UNK     1      -3.039  -1.816   1.688  1.00  0.00     0.083 A 
HETATM   11  C10 UNK     1      -3.344  -1.466   0.289  1.00  0.00     0.288 A 
ENDROOT
BRANCH   5  12
HETATM   12  O1  UNK     1       1.755   1.660  -0.642  1.00  0.00    -0.344 OA
BRANCH  12  13
HETATM   13  C8  UNK     1       1.796   1.443  -2.051  1.00  0.00     0.253 C 
BRANCH  13  14
HETATM   14  C11 UNK     1       3.178   1.736  -2.597  1.00  0.00     0.146 C 
HETATM   15  O4  UNK     1       4.107   2.099  -1.878  1.00  0.00    -0.296 OA
HETATM   16  C12 UNK     1       3.360   1.559  -4.081  1.00  0.00     0.093 C 
ENDBRANCH  13  14
ENDBRANCH  12  13
ENDBRANCH   5  12
TORSDOF 3
