REMARK  4 active torsions:
REMARK  status: ('A' for Active; 'I' for Inactive)
REMARK    1  A    between atoms: C11_19  and  O2_6 
REMARK    2  A    between atoms: C3_11  and  O2_6 
REMARK    3  A    between atoms: C8_16  and  O4_8 
REMARK    4  A    between atoms: C10_18  and  C4_12 
ROOT
HETATM    1  O1  UNK     1       1.073   0.543  -2.222  1.00  0.00    -0.302 OA
HETATM    2  O3  UNK     1      -0.123   1.442   1.567  1.00  0.00    -0.284 OA
HETATM    3  C1  UNK     1       1.630   1.371  -0.009  1.00  0.00     0.051 A 
HETATM    4  C2  UNK     1       1.974   1.043  -1.318  1.00  0.00     0.093 A 
HETATM    5  C3  UNK     1      -0.695   0.628  -0.582  1.00  0.00     0.165 A 
HETATM    6  C4  UNK     1      -0.240   0.351  -1.816  1.00  0.00     0.197 A 
HETATM    7  C5  UNK     1       0.241   1.172   0.430  1.00  0.00     0.221 A 
HETATM    8  C6  UNK     1       2.591   1.879   0.868  1.00  0.00     0.021 A 
HETATM    9  C7  UNK     1       3.286   1.222  -1.759  1.00  0.00     0.074 A 
HETATM   10  C8  UNK     1       4.249   1.729  -0.887  1.00  0.00     0.068 A 
HETATM   11  C9  UNK     1       3.902   2.057   0.425  1.00  0.00     0.037 A 
ENDROOT
BRANCH   5  12
HETATM   12  O2  UNK     1      -2.007   0.426  -0.213  1.00  0.00    -0.304 OA
BRANCH  12  13
HETATM   13  C11 UNK     1      -2.233  -0.440   0.820  1.00  0.00     0.076 A 
HETATM   14  C12 UNK     1      -1.564  -1.660   0.860  1.00  0.00     0.039 A 
HETATM   15  C14 UNK     1      -1.795  -2.543   1.914  1.00  0.00     0.026 A 
HETATM   16  C16 UNK     1      -2.694  -2.203   2.925  1.00  0.00     0.034 A 
HETATM   17  C15 UNK     1      -3.363  -0.980   2.881  1.00  0.00     0.026 A 
HETATM   18 Cl1  UNK     1      -2.979  -3.294   4.225  1.00  0.00    -0.084 Cl
HETATM   19  C13 UNK     1      -3.132  -0.097   1.826  1.00  0.00     0.039 A 
ENDBRANCH  12  13
ENDBRANCH   5  12
BRANCH   6  20
HETATM   20  C10 UNK     1      -1.104  -0.201  -2.911  1.00  0.00     0.442 C 
HETATM   21  F1  UNK     1      -2.370  -0.374  -2.482  1.00  0.00    -0.164 F 
HETATM   22  F2  UNK     1      -1.134   0.633  -3.969  1.00  0.00    -0.164 F 
HETATM   23  F3  UNK     1      -0.643  -1.394  -3.336  1.00  0.00    -0.164 F 
ENDBRANCH   6  20
BRANCH  10  24
HETATM   24  O4  UNK     1       5.529   1.904  -1.315  1.00  0.00    -0.361 OA
HETATM   25  H8  UNK     1       6.060   2.262  -0.583  1.00  0.00     0.217 HD
ENDBRANCH  10  24
TORSDOF 4
