REMARK  2 active torsions:
REMARK  status: ('A' for Active; 'I' for Inactive)
REMARK    1  A    between atoms: C1_5  and  C4_8 
REMARK    2  A    between atoms: C2_6  and  C6_10 
ROOT
HETATM    1  O1  UNK     1       0.923  -0.088  -3.065  1.00  0.00    -0.274 OA
HETATM    2  O2  UNK     1      -0.797  -1.552  -2.809  1.00  0.00    -0.259 OA
HETATM    3  C1  UNK     1       0.490   0.780  -0.390  1.00  0.00     0.004 A 
HETATM    4  C2  UNK     1      -0.288  -0.191  -0.927  1.00  0.00     0.063 A 
HETATM    5  C3  UNK     1       1.559   1.368  -1.227  1.00  0.00     0.010 A 
HETATM    6  C5  UNK     1       1.739   0.917  -2.529  1.00  0.00     0.090 A 
HETATM    7  C7  UNK     1      -0.091  -0.672  -2.326  1.00  0.00     0.300 A 
HETATM    8  C8  UNK     1       2.418   2.377  -0.764  1.00  0.00     0.015 A 
HETATM    9  C9  UNK     1       2.731   1.433  -3.367  1.00  0.00     0.038 A 
HETATM   10  C14 UNK     1       3.417   2.904  -1.590  1.00  0.00     0.001 A 
HETATM   11  C15 UNK     1       3.573   2.432  -2.891  1.00  0.00     0.003 A 
ENDROOT
BRANCH   4  12
HETATM   12  C6  UNK     1      -1.362  -0.811  -0.147  1.00  0.00     0.003 A 
HETATM   13  C12 UNK     1      -2.657  -0.303  -0.143  1.00  0.00     0.046 A 
HETATM   14  C18 UNK     1      -3.645  -0.931   0.617  1.00  0.00     0.048 A 
HETATM   15 Cl1  UNK     1      -3.098   1.097  -1.056  1.00  0.00    -0.083 Cl
HETATM   16  C21 UNK     1      -3.332  -2.063   1.369  1.00  0.00     0.035 A 
HETATM   17  C19 UNK     1      -2.032  -2.568   1.362  1.00  0.00     0.025 A 
HETATM   18 Cl2  UNK     1      -4.550  -2.838   2.306  1.00  0.00    -0.084 Cl
HETATM   19  C13 UNK     1      -1.044  -1.940   0.602  1.00  0.00     0.016 A 
ENDBRANCH   4  12
BRANCH   3  20
HETATM   20  C4  UNK     1       0.230   1.195   0.993  1.00  0.00    -0.024 A 
HETATM   21  C10 UNK     1      -0.665   2.228   1.241  1.00  0.00     0.012 A 
HETATM   22  C16 UNK     1      -0.913   2.622   2.555  1.00  0.00     0.001 A 
HETATM   23  C20 UNK     1      -0.264   1.980   3.610  1.00  0.00     0.000 A 
HETATM   24  C17 UNK     1       0.632   0.943   3.350  1.00  0.00     0.001 A 
HETATM   25  C11 UNK     1       0.880   0.549   2.036  1.00  0.00     0.012 A 
ENDBRANCH   3  20
TORSDOF 2
