REMARK  3 active torsions:
REMARK  status: ('A' for Active; 'I' for Inactive)
REMARK    1  A    between atoms: C9_15  and  N1_4 
REMARK       I    between atoms: C11_17  and  N2_5 
REMARK    2  A    between atoms: C3_9  and  N2_5 
REMARK    3  A    between atoms: C11_17  and  C8_14 
ROOT
HETATM    1  O1  UNK     1      -3.431  -1.321   0.039  1.00  0.00    -0.275 OA
HETATM    2  O3  UNK     1      -5.541  -2.182   0.224  1.00  0.00    -0.260 OA
HETATM    3  C1  UNK     1      -2.052  -1.097   2.042  1.00  0.00     0.004 A 
HETATM    4  C2  UNK     1      -2.226  -0.946   0.666  1.00  0.00     0.092 A 
HETATM    5  C3  UNK     1      -0.018  -0.034   0.404  1.00  0.00     0.037 A 
HETATM    6  C4  UNK     1      -3.155  -1.659   2.834  1.00  0.00    -0.043 A 
HETATM    7  C5  UNK     1      -1.229  -0.421  -0.159  1.00  0.00     0.067 A 
HETATM    8  C6  UNK     1      -0.824  -0.701   2.589  1.00  0.00     0.017 A 
HETATM    9  C7  UNK     1       0.185  -0.174   1.775  1.00  0.00     0.030 A 
HETATM   10  C10 UNK     1      -4.289  -2.006   2.211  1.00  0.00     0.090 A 
HETATM   11  C13 UNK     1      -2.998  -1.835   4.316  1.00  0.00     0.049 C 
HETATM   12  C15 UNK     1      -4.489  -1.853   0.760  1.00  0.00     0.288 A 
ENDROOT
BRANCH   5  13
HETATM   13  N2  UNK     1       0.992   0.492  -0.402  1.00  0.00    -0.322 N 
HETATM   14  C11 UNK     1       0.922   0.684  -1.776  1.00  0.00     0.276 C 
HETATM   15  O2  UNK     1      -0.016   0.436  -2.526  1.00  0.00    -0.266 OA
HETATM   16  H6  UNK     1       1.852   0.759   0.072  1.00  0.00     0.169 HD
BRANCH  14  17
HETATM   17  C8  UNK     1       2.138   1.294  -2.377  1.00  0.00     0.146 A 
HETATM   18  C14 UNK     1       2.449   1.635  -3.671  1.00  0.00     0.058 A 
HETATM   19  C12 UNK     1       3.749   2.169  -3.591  1.00  0.00     0.114 A 
HETATM   20  N1  UNK     1       4.230   2.170  -2.345  1.00  0.00    -0.281 N 
HETATM   21  N3  UNK     1       3.227   1.633  -1.630  1.00  0.00    -0.167 NA
BRANCH  20  22
HETATM   22  C9  UNK     1       5.474   2.603  -1.778  1.00  0.00     0.146 C 
HETATM   23  C16 UNK     1       5.432   4.058  -1.343  1.00  0.00     0.028 C 
ENDBRANCH  20  22
ENDBRANCH  14  17
ENDBRANCH   5  13
TORSDOF 3
