REMARK  2 active torsions:
REMARK  status: ('A' for Active; 'I' for Inactive)
REMARK       I    between atoms: C6_13  and  N1_6 
REMARK    1  A    between atoms: C18_25  and  N2_7 
REMARK    2  A    between atoms: C6_13  and  C9_16 
ROOT
HETATM    1  O2  UNK     1      -0.283  -0.564   2.644  1.00  0.00    -0.274 OA
HETATM    2  O3  UNK     1       1.626   0.662   2.376  1.00  0.00    -0.259 OA
HETATM    3  C9  UNK     1       0.043   0.761   0.615  1.00  0.00     0.108 A 
HETATM    4  C12 UNK     1      -1.141   0.365   0.133  1.00  0.00     0.037 A 
HETATM    5  C13 UNK     1      -1.980  -0.540   0.903  1.00  0.00     0.001 A 
HETATM    6  C14 UNK     1       0.542   0.301   1.931  1.00  0.00     0.304 A 
HETATM    7  C15 UNK     1      -1.531  -0.984   2.142  1.00  0.00     0.089 A 
HETATM    8  C16 UNK     1      -3.222  -0.980   0.439  1.00  0.00     0.050 A 
HETATM    9  C17 UNK     1      -2.286  -1.852   2.929  1.00  0.00     0.041 A 
HETATM   10  C18 UNK     1      -3.991  -1.851   1.217  1.00  0.00     0.103 A 
HETATM   11  C19 UNK     1      -3.523  -2.285   2.459  1.00  0.00     0.039 A 
ENDROOT
BRANCH   3  12
HETATM   12  C6  UNK     1       0.822   1.682  -0.241  1.00  0.00     0.264 C 
HETATM   13  O1  UNK     1       0.623   2.887  -0.094  1.00  0.00    -0.267 OA
HETATM   14  N1  UNK     1       1.695   1.099  -1.147  1.00  0.00    -0.308 N 
HETATM   15  C1  UNK     1       1.968  -0.356  -1.358  1.00  0.00     0.093 C 
HETATM   16  C4  UNK     1       2.512   1.821  -2.053  1.00  0.00     0.044 A 
HETATM   17  C2  UNK     1       2.694  -0.467  -2.715  1.00  0.00     0.066 C 
HETATM   18  C5  UNK     1       2.843  -0.920  -0.233  1.00  0.00     0.033 C 
HETATM   19  C3  UNK     1       3.138   0.942  -2.941  1.00  0.00    -0.029 A 
HETATM   20  C7  UNK     1       3.991   1.400  -3.934  1.00  0.00     0.009 A 
HETATM   21  C10 UNK     1       4.225   2.772  -4.025  1.00  0.00     0.001 A 
HETATM   22  C11 UNK     1       3.599   3.658  -3.139  1.00  0.00     0.002 A 
HETATM   23  C8  UNK     1       2.732   3.188  -2.147  1.00  0.00     0.030 A 
ENDBRANCH   3  12
BRANCH  10  24
HETATM   24  N2  UNK     1      -5.254  -2.294   0.742  1.00  0.00    -0.116 N 
HETATM   25  O4  UNK     1      -5.926  -3.074   1.457  1.00  0.00    -0.532 OA
HETATM   26  O5  UNK     1      -5.653  -1.890  -0.376  1.00  0.00    -0.532 OA
ENDBRANCH  10  24
TORSDOF 2
