REMARK  7 active torsions:
REMARK  status: ('A' for Active; 'I' for Inactive)
REMARK    1  A    between atoms: C13_24  and  O2_5 
REMARK    2  A    between atoms: C5_16  and  O2_5 
REMARK    3  A    between atoms: C14_25  and  O3_6 
REMARK    4  A    between atoms: C5_16  and  O3_6 
REMARK       I    between atoms: C9_20  and  N1_10 
REMARK    5  A    between atoms: N1_10  and  N2_11 
REMARK       I    between atoms: C10_21  and  N2_11 
REMARK    6  A    between atoms: C3_14  and  C9_20 
REMARK    7  A    between atoms: C10_21  and  C5_16 
ROOT
HETATM    1  O6  UNK     1      -0.293  -2.309  -0.716  1.00  0.00    -0.266 OA
HETATM    2  N2  UNK     1      -0.033  -0.217   0.255  1.00  0.00    -0.263 N 
HETATM    3  C10 UNK     1      -0.643  -1.446   0.087  1.00  0.00     0.292 C 
HETATM    4  H7  UNK     1      -0.329   0.470   0.941  1.00  0.00     0.190 HD
ENDROOT
BRANCH   3   5
HETATM    5  C5  UNK     1      -1.843  -1.622   1.009  1.00  0.00     0.367 C 
BRANCH   5   6
HETATM    6  O2  UNK     1      -2.750  -2.565   0.449  1.00  0.00    -0.311 OA
BRANCH   6   7
HETATM    7  C13 UNK     1      -3.790  -2.097  -0.309  1.00  0.00     0.072 A 
HETATM    8  C15 UNK     1      -3.640  -0.917  -1.031  1.00  0.00     0.038 A 
HETATM    9  C19 UNK     1      -4.700  -0.440  -1.802  1.00  0.00     0.026 A 
HETATM   10  C23 UNK     1      -5.903  -1.144  -1.846  1.00  0.00     0.034 A 
HETATM   11  C21 UNK     1      -6.046  -2.326  -1.119  1.00  0.00     0.026 A 
HETATM   12 Cl1  UNK     1      -7.211  -0.555  -2.797  1.00  0.00    -0.084 Cl
HETATM   13  C17 UNK     1      -4.986  -2.804  -0.349  1.00  0.00     0.038 A 
ENDBRANCH   6   7
ENDBRANCH   5   6
BRANCH   5  14
HETATM   14  O3  UNK     1      -1.213  -2.138   2.193  1.00  0.00    -0.311 OA
BRANCH  14  15
HETATM   15  C14 UNK     1      -1.751  -1.795   3.405  1.00  0.00     0.072 A 
HETATM   16  C16 UNK     1      -3.115  -1.546   3.508  1.00  0.00     0.038 A 
HETATM   17  C20 UNK     1      -3.663  -1.194   4.742  1.00  0.00     0.026 A 
HETATM   18  C24 UNK     1      -2.843  -1.094   5.865  1.00  0.00     0.034 A 
HETATM   19  C22 UNK     1      -1.475  -1.346   5.756  1.00  0.00     0.026 A 
HETATM   20 Cl2  UNK     1      -3.518  -0.661   7.387  1.00  0.00    -0.084 Cl
HETATM   21  C18 UNK     1      -0.927  -1.697   4.522  1.00  0.00     0.038 A 
ENDBRANCH  14  15
ENDBRANCH   5  14
ENDBRANCH   3   5
BRANCH   2  22
HETATM   22  N1  UNK     1       1.055   0.099  -0.520  1.00  0.00    -0.263 N 
HETATM   23  C9  UNK     1       1.288   1.419  -0.840  1.00  0.00     0.276 C 
HETATM   24  O5  UNK     1       0.606   2.383  -0.498  1.00  0.00    -0.266 OA
HETATM   25  H6  UNK     1       1.659  -0.672  -0.788  1.00  0.00     0.190 HD
BRANCH  23  26
HETATM   26  C3  UNK     1       2.483   1.596  -1.674  1.00  0.00     0.110 A 
HETATM   27  C4  UNK     1       3.137   2.755  -1.531  1.00  0.00     0.037 A 
HETATM   28  C1  UNK     1       4.334   3.023  -2.314  1.00  0.00     0.000 A 
HETATM   29  C2  UNK     1       4.783   2.056  -3.209  1.00  0.00     0.089 A 
HETATM   30  C6  UNK     1       5.047   4.218  -2.199  1.00  0.00     0.033 A 
HETATM   31  O1  UNK     1       4.090   0.838  -3.354  1.00  0.00    -0.274 OA
HETATM   32  C7  UNK     1       5.921   2.250  -3.989  1.00  0.00     0.039 A 
HETATM   33  C8  UNK     1       2.942   0.554  -2.619  1.00  0.00     0.304 A 
HETATM   34  O4  UNK     1       2.346  -0.509  -2.752  1.00  0.00    -0.259 OA
HETATM   35  C12 UNK     1       6.627   3.445  -3.867  1.00  0.00     0.022 A 
HETATM   36  C11 UNK     1       6.192   4.427  -2.974  1.00  0.00     0.011 A 
HETATM   37 Br1  UNK     1       7.155   6.046  -2.814  1.00  0.00    -0.051 Br
ENDBRANCH  23  26
ENDBRANCH   2  22
TORSDOF 7
