REMARK  7 active torsions:
REMARK  status: ('A' for Active; 'I' for Inactive)
REMARK    1  A    between atoms: C15_23  and  O3_4 
REMARK    2  A    between atoms: C20_28  and  O3_4 
REMARK    3  A    between atoms: C5_13  and  N1_6 
REMARK    4  A    between atoms: C6_14  and  N2_7 
REMARK    5  A    between atoms: C17_25  and  N3_8 
REMARK       I    between atoms: C9_17  and  N3_8 
REMARK    6  A    between atoms: C5_13  and  C7_15 
REMARK    7  A    between atoms: C6_14  and  C9_17 
ROOT
HETATM    1  N1  UNK     1       1.478  -0.251  -0.645  1.00  0.00     0.096 N 
HETATM    2  N2  UNK     1      -0.377  -1.143   1.385  1.00  0.00     0.100 N 
HETATM    3  C1  UNK     1       0.133  -0.723  -0.996  1.00  0.00     0.303 C 
HETATM    4  C2  UNK     1       1.947  -0.905   0.583  1.00  0.00     0.303 C 
HETATM    5  C3  UNK     1      -0.847  -0.488   0.159  1.00  0.00     0.303 C 
HETATM    6  C4  UNK     1       0.967  -0.669   1.737  1.00  0.00     0.303 C 
ENDROOT
BRANCH   1   7
HETATM    7  C5  UNK     1       2.412  -0.479  -1.745  1.00  0.00     0.312 C 
BRANCH   7   8
HETATM    8  C7  UNK     1       2.297   0.560  -2.805  1.00  0.00    -0.011 A 
HETATM    9  C10 UNK     1       1.455   0.407  -3.837  1.00  0.00     0.092 A 
HETATM   10  C13 UNK     1       1.308   1.406  -4.909  1.00  0.00     0.288 A 
HETATM   11  O1  UNK     1       2.092   2.545  -4.811  1.00  0.00    -0.275 OA
HETATM   12  O4  UNK     1       0.527   1.232  -5.838  1.00  0.00    -0.260 OA
HETATM   13  C11 UNK     1       2.987   2.734  -3.739  1.00  0.00     0.090 A 
HETATM   14  C8  UNK     1       3.116   1.778  -2.730  1.00  0.00     0.009 A 
HETATM   15  C14 UNK     1       3.727   3.918  -3.744  1.00  0.00     0.041 A 
HETATM   16  C12 UNK     1       4.029   2.040  -1.700  1.00  0.00     0.051 A 
HETATM   17  C15 UNK     1       4.778   3.222  -1.691  1.00  0.00     0.069 A 
HETATM   18  C16 UNK     1       4.627   4.159  -2.711  1.00  0.00     0.039 A 
BRANCH  17  19
HETATM   19  O3  UNK     1       5.659   3.458  -0.680  1.00  0.00    -0.351 OA
BRANCH  19  20
HETATM   20  C20 UNK     1       5.350   2.896   0.594  1.00  0.00     0.171 C 
HETATM   21  C24 UNK     1       5.935   3.778   1.677  1.00  0.00     0.034 C 
ENDBRANCH  19  20
ENDBRANCH  17  19
ENDBRANCH   7   8
ENDBRANCH   1   7
BRANCH   2  22
HETATM   22  C6  UNK     1      -1.312  -0.917   2.486  1.00  0.00     0.375 C 
BRANCH  22  23
HETATM   23  C9  UNK     1      -2.483  -1.875   2.359  1.00  0.00     0.250 C 
HETATM   24  O2  UNK     1      -2.376  -2.988   1.855  1.00  0.00    -0.271 OA
HETATM   25  N3  UNK     1      -3.635  -1.301   2.894  1.00  0.00    -0.326 N 
HETATM   26  H15 UNK     1      -3.559  -0.366   3.288  1.00  0.00     0.169 HD
BRANCH  25  27
HETATM   27  C17 UNK     1      -4.929  -1.870   2.967  1.00  0.00     0.035 A 
HETATM   28  C18 UNK     1      -5.977  -1.148   3.540  1.00  0.00     0.032 A 
HETATM   29  C21 UNK     1      -7.252  -1.708   3.612  1.00  0.00     0.044 A 
HETATM   30  C23 UNK     1      -7.480  -2.990   3.111  1.00  0.00     0.116 A 
HETATM   31  C22 UNK     1      -6.432  -3.711   2.538  1.00  0.00     0.044 A 
HETATM   32  F1  UNK     1      -8.704  -3.529   3.181  1.00  0.00    -0.206 F 
HETATM   33  C19 UNK     1      -5.157  -3.151   2.466  1.00  0.00     0.032 A 
ENDBRANCH  25  27
ENDBRANCH  22  23
ENDBRANCH   2  22
TORSDOF 7
