REMARK  0 active torsions:
REMARK  status: ('A' for Active; 'I' for Inactive)
ROOT
HETATM    1 Br1  UNK     1       0.324  -0.080   3.288  1.00  0.00    -0.048 Br
HETATM    2 Cl1  UNK     1      -3.620  -1.509  -0.304  1.00  0.00    -0.084 Cl
HETATM    3  O1  UNK     1       1.675   0.846   0.715  1.00  0.00    -0.320 OA
HETATM    4  O2  UNK     1       0.377   0.686  -3.151  1.00  0.00    -0.287 OA
HETATM    5  C1  UNK     1      -0.059   0.218  -0.871  1.00  0.00     0.051 A 
HETATM    6  C2  UNK     1       0.445   0.304   0.429  1.00  0.00     0.106 A 
HETATM    7  C3  UNK     1      -1.316  -0.343  -1.105  1.00  0.00     0.042 A 
HETATM    8  C4  UNK     1      -0.309  -0.171   1.502  1.00  0.00     0.047 A 
HETATM    9  C5  UNK     1       0.757   0.727  -1.989  1.00  0.00     0.186 A 
HETATM   10  C6  UNK     1      -2.068  -0.817  -0.028  1.00  0.00     0.036 A 
HETATM   11  C7  UNK     1      -1.565  -0.732   1.271  1.00  0.00     0.046 A 
HETATM   12  C8  UNK     1       2.069   1.298  -1.627  1.00  0.00     0.080 A 
HETATM   13  C9  UNK     1       2.421   1.315  -0.339  1.00  0.00     0.146 A 
ENDROOT
TORSDOF 0
