REMARK  1 active torsions:
REMARK  status: ('A' for Active; 'I' for Inactive)
REMARK    1  A    between atoms: C10_13  and  C4_7 
ROOT
HETATM    1  O1  UNK     1       0.632   0.386   0.472  1.00  0.00    -0.307 OA
HETATM    2  O3  UNK     1      -2.233  -0.639  -2.236  1.00  0.00    -0.287 OA
HETATM    3  C1  UNK     1      -1.550  -0.582   0.025  1.00  0.00     0.048 A 
HETATM    4  C2  UNK     1      -0.530  -0.205   0.898  1.00  0.00     0.090 A 
HETATM    5  C3  UNK     1      -2.713  -1.180   0.515  1.00  0.00     0.025 A 
HETATM    6  C4  UNK     1       0.801   0.610  -0.886  1.00  0.00     0.113 A 
HETATM    7  C5  UNK     1      -2.849  -1.399   1.886  1.00  0.00    -0.061 A 
HETATM    8  C6  UNK     1      -1.379  -0.337  -1.415  1.00  0.00     0.187 A 
HETATM    9  C7  UNK     1      -0.668  -0.425   2.268  1.00  0.00     0.039 A 
HETATM   10  C8  UNK     1      -0.109   0.298  -1.822  1.00  0.00     0.095 A 
HETATM   11  C9  UNK     1      -1.829  -1.022   2.761  1.00  0.00     0.009 A 
HETATM   12  C11 UNK     1      -4.087  -2.038   2.419  1.00  0.00     0.048 C 
ENDROOT
BRANCH   6  13
HETATM   13  C10 UNK     1       2.083   1.255  -1.233  1.00  0.00     0.108 A 
HETATM   14  O2  UNK     1       2.423   1.575  -2.516  1.00  0.00    -0.320 OA
HETATM   15  C14 UNK     1       3.654   2.149  -2.472  1.00  0.00     0.142 A 
HETATM   16  C13 UNK     1       4.115   2.204  -1.178  1.00  0.00     0.027 A 
HETATM   17  C12 UNK     1       3.103   1.627  -0.375  1.00  0.00     0.042 A 
ENDBRANCH   6  13
TORSDOF 1
