REMARK  6 active torsions:
REMARK  status: ('A' for Active; 'I' for Inactive)
REMARK    1  A    between atoms: C6_13  and  O1_2 
REMARK    2  A    between atoms: C9_16  and  O1_2 
REMARK       I    between atoms: C10_17  and  N1_7 
REMARK    3  A    between atoms: C5_12  and  N1_7 
REMARK    4  A    between atoms: C1_8  and  C3_10 
REMARK    5  A    between atoms: C2_9  and  C6_13 
REMARK    6  A    between atoms: C10_17  and  C11_18 
ROOT
HETATM    1  O4  UNK     1       1.279   0.485   2.302  1.00  0.00    -0.267 OA
HETATM    2  N1  UNK     1      -0.284  -0.067   0.622  1.00  0.00    -0.316 N 
HETATM    3  C10 UNK     1       0.933   0.368   1.127  1.00  0.00     0.262 C 
HETATM    4  H9  UNK     1      -0.409  -0.098  -0.386  1.00  0.00     0.169 HD
ENDROOT
BRANCH   2   5
HETATM    5  C5  UNK     1      -1.391  -0.472   1.374  1.00  0.00     0.094 A 
HETATM    6  C2  UNK     1      -2.613  -0.910   0.976  1.00  0.00     0.080 A 
HETATM    7  C1  UNK     1      -3.439  -1.216   2.096  1.00  0.00    -0.027 A 
HETATM    8  C4  UNK     1      -2.793  -0.992   3.292  1.00  0.00    -0.012 A 
HETATM    9  S1  UNK     1      -1.197  -0.414   3.061  1.00  0.00    -0.076 SA
HETATM   10  C8  UNK     1      -3.295  -1.185   4.671  1.00  0.00     0.057 C 
BRANCH   6  11
HETATM   11  C6  UNK     1      -2.998  -1.040  -0.407  1.00  0.00     0.297 C 
HETATM   12  O3  UNK     1      -3.812  -1.878  -0.823  1.00  0.00    -0.259 OA
BRANCH  11  13
HETATM   13  O1  UNK     1      -2.378  -0.140  -1.247  1.00  0.00    -0.313 OA
BRANCH  13  14
HETATM   14  C9  UNK     1      -2.155  -0.563  -2.597  1.00  0.00     0.124 C 
HETATM   15  C14 UNK     1      -1.496   0.567  -3.373  1.00  0.00     0.040 C 
HETATM   16  C15 UNK     1      -1.301  -1.822  -2.593  1.00  0.00     0.040 C 
ENDBRANCH  13  14
ENDBRANCH  11  13
ENDBRANCH   6  11
BRANCH   7  17
HETATM   17  C3  UNK     1      -4.832  -1.719   1.990  1.00  0.00     0.036 C 
HETATM   18  C7  UNK     1      -4.903  -3.246   1.939  1.00  0.00     0.010 C 
ENDBRANCH   7  17
ENDBRANCH   2   5
BRANCH   3  19
HETATM   19  C11 UNK     1       1.876   0.717   0.058  1.00  0.00     0.108 A 
HETATM   20  C13 UNK     1       1.849   1.986  -0.364  1.00  0.00     0.037 A 
HETATM   21  C12 UNK     1       2.746   2.427  -1.421  1.00  0.00    -0.001 A 
HETATM   22  C16 UNK     1       3.628   1.509  -1.982  1.00  0.00     0.089 A 
HETATM   23  C18 UNK     1       2.752   3.742  -1.893  1.00  0.00     0.014 A 
HETATM   24  O2  UNK     1       3.652   0.174  -1.533  1.00  0.00    -0.274 OA
HETATM   25  C19 UNK     1       4.513   1.866  -2.997  1.00  0.00     0.038 A 
HETATM   26  C17 UNK     1       2.806  -0.277  -0.524  1.00  0.00     0.304 A 
HETATM   27  O5  UNK     1       2.834  -1.442  -0.140  1.00  0.00    -0.259 OA
HETATM   28  C21 UNK     1       4.512   3.179  -3.462  1.00  0.00     0.003 A 
HETATM   29  C20 UNK     1       3.634   4.116  -2.911  1.00  0.00     0.001 A 
ENDBRANCH   3  19
TORSDOF 6
