REMARK  3 active torsions:
REMARK  status: ('A' for Active; 'I' for Inactive)
REMARK    1  A    between atoms: C7_10  and  O1_2 
REMARK    2  A    between atoms: C1_4  and  C3_6 
REMARK    3  A    between atoms: C2_5  and  C4_7 
ROOT
HETATM    1  N1  UNK     1      -4.145  -1.857  -1.615  1.00  0.00    -0.191 NA
HETATM    2  C3  UNK     1      -1.196  -0.171  -2.006  1.00  0.00     0.034 C 
HETATM    3  C4  UNK     1      -1.909  -0.698  -1.009  1.00  0.00     0.055 C 
HETATM    4  C15 UNK     1      -3.143  -1.338  -1.345  1.00  0.00     0.100 C 
ENDROOT
BRANCH   3   5
HETATM    5  C2  UNK     1      -1.524  -0.656   0.417  1.00  0.00    -0.015 A 
HETATM    6  C10 UNK     1      -0.769  -1.689   0.943  1.00  0.00     0.014 A 
HETATM    7  C12 UNK     1      -0.406  -1.649   2.289  1.00  0.00     0.024 A 
HETATM    8  C14 UNK     1      -0.805  -0.577   3.088  1.00  0.00     0.034 A 
HETATM    9  C13 UNK     1      -1.566   0.456   2.540  1.00  0.00     0.024 A 
HETATM   10 Cl1  UNK     1      -0.357  -0.527   4.748  1.00  0.00    -0.084 Cl
HETATM   11  C11 UNK     1      -1.929   0.416   1.193  1.00  0.00     0.014 A 
ENDBRANCH   3   5
BRANCH   2  12
HETATM   12  C1  UNK     1       0.082   0.497  -1.817  1.00  0.00    -0.035 A 
HETATM   13  C5  UNK     1       0.121   1.865  -1.546  1.00  0.00     0.014 A 
HETATM   14  C8  UNK     1       1.346   2.506  -1.365  1.00  0.00     0.037 A 
HETATM   15  C7  UNK     1       2.533   1.779  -1.454  1.00  0.00     0.068 A 
HETATM   16  C9  UNK     1       2.495   0.411  -1.724  1.00  0.00     0.037 A 
HETATM   17  C6  UNK     1       1.269  -0.230  -1.905  1.00  0.00     0.014 A 
BRANCH  15  18
HETATM   18  O1  UNK     1       3.729   2.404  -1.277  1.00  0.00    -0.356 OA
HETATM   19  C16 UNK     1       4.904   1.601  -1.382  1.00  0.00     0.210 C 
ENDBRANCH  15  18
ENDBRANCH   2  12
TORSDOF 3
