REMARK  3 active torsions:
REMARK  status: ('A' for Active; 'I' for Inactive)
REMARK    1  A    between atoms: C12_20  and  O3_3 
REMARK       I    between atoms: C5_13  and  N1_7 
REMARK    2  A    between atoms: C13_21  and  N2_8 
REMARK    3  A    between atoms: C5_13  and  C6_14 
ROOT
HETATM    1  O1  UNK     1      -1.262   0.090  -1.758  1.00  0.00    -0.271 OA
HETATM    2  O4  UNK     1       0.041   1.267  -3.220  1.00  0.00    -0.259 OA
HETATM    3  C6  UNK     1       0.630   1.399  -0.929  1.00  0.00     0.108 A 
HETATM    4  C7  UNK     1       0.367   1.031   0.330  1.00  0.00     0.037 A 
HETATM    5  C8  UNK     1      -0.754   0.150   0.619  1.00  0.00     0.004 A 
HETATM    6  C9  UNK     1      -1.543  -0.300  -0.434  1.00  0.00     0.123 A 
HETATM    7  C10 UNK     1      -0.196   0.932  -2.065  1.00  0.00     0.304 A 
HETATM    8  C11 UNK     1      -1.065  -0.259   1.918  1.00  0.00     0.050 A 
HETATM    9  C12 UNK     1      -2.631  -1.146  -0.226  1.00  0.00     0.105 A 
HETATM   10  C13 UNK     1      -2.153  -1.107   2.142  1.00  0.00     0.106 A 
HETATM   11  C14 UNK     1      -2.934  -1.549   1.072  1.00  0.00     0.075 A 
ENDROOT
BRANCH   3  12
HETATM   12  C5  UNK     1       1.788   2.295  -1.119  1.00  0.00     0.259 C 
HETATM   13  O2  UNK     1       1.609   3.512  -1.076  1.00  0.00    -0.267 OA
HETATM   14  N1  UNK     1       3.011   1.689  -1.332  1.00  0.00    -0.348 N 
HETATM   15  C3  UNK     1       4.225   2.469  -1.527  1.00  0.00     0.126 C 
HETATM   16  C4  UNK     1       3.300   0.257  -1.394  1.00  0.00     0.126 C 
HETATM   17  C1  UNK     1       5.355   1.464  -1.370  1.00  0.00     0.021 C 
HETATM   18  C2  UNK     1       4.735   0.177  -1.896  1.00  0.00     0.021 C 
ENDBRANCH   3  12
BRANCH   9  19
HETATM   19  O3  UNK     1      -3.395  -1.578  -1.265  1.00  0.00    -0.353 OA
HETATM   20  C15 UNK     1      -3.001  -2.795  -1.899  1.00  0.00     0.210 C 
ENDBRANCH   9  19
BRANCH  10  21
HETATM   21  N2  UNK     1      -2.465  -1.521   3.464  1.00  0.00    -0.116 N 
HETATM   22  O5  UNK     1      -1.752  -1.115   4.413  1.00  0.00    -0.532 OA
HETATM   23  O6  UNK     1      -3.446  -2.282   3.647  1.00  0.00    -0.532 OA
ENDBRANCH  10  21
TORSDOF 3
