REMARK  5 active torsions:
REMARK  status: ('A' for Active; 'I' for Inactive)
REMARK    1  A    between atoms: C11_14  and  O2_2 
REMARK    2  A    between atoms: C18_21  and  O2_2 
REMARK    3  A    between atoms: C1_4  and  C4_7 
REMARK    4  A    between atoms: C4_7  and  C6_9 
REMARK    5  A    between atoms: C18_21  and  C19_22 
ROOT
HETATM    1  O1  UNK     1       1.058  -0.981   0.013  1.00  0.00    -0.274 OA
HETATM    2  O3  UNK     1      -0.135  -2.474   1.237  1.00  0.00    -0.259 OA
HETATM    3  C1  UNK     1      -1.367  -1.173  -0.332  1.00  0.00     0.029 A 
HETATM    4  C2  UNK     1      -1.345  -0.189  -1.257  1.00  0.00    -0.036 A 
HETATM    5  C3  UNK     1      -0.057   0.435  -1.622  1.00  0.00     0.005 A 
HETATM    6  C5  UNK     1       1.101   0.018  -0.972  1.00  0.00     0.092 A 
HETATM    7  C7  UNK     1      -0.124  -1.606   0.370  1.00  0.00     0.295 A 
HETATM    8  C8  UNK     1      -2.578   0.337  -1.948  1.00  0.00     0.050 C 
HETATM    9  C9  UNK     1       0.083   1.430  -2.602  1.00  0.00     0.017 A 
HETATM   10  C10 UNK     1       2.359   0.556  -1.256  1.00  0.00     0.075 A 
HETATM   11  C11 UNK     1       2.473   1.545  -2.226  1.00  0.00     0.071 A 
HETATM   12  C12 UNK     1       1.336   1.980  -2.901  1.00  0.00     0.038 A 
ENDROOT
BRANCH   3  13
HETATM   13  C4  UNK     1      -2.599  -1.936   0.085  1.00  0.00     0.084 C 
BRANCH  13  14
HETATM   14  C6  UNK     1      -3.100  -1.507   1.432  1.00  0.00    -0.054 A 
HETATM   15  C13 UNK     1      -3.185  -0.153   1.736  1.00  0.00     0.007 A 
HETATM   16  C15 UNK     1      -3.652   0.246   2.989  1.00  0.00     0.001 A 
HETATM   17  C17 UNK     1      -4.030  -0.711   3.930  1.00  0.00     0.000 A 
HETATM   18  C16 UNK     1      -3.942  -2.068   3.618  1.00  0.00     0.001 A 
HETATM   19  C14 UNK     1      -3.476  -2.467   2.365  1.00  0.00     0.007 A 
ENDBRANCH  13  14
ENDBRANCH   3  13
BRANCH  11  20
HETATM   20  O2  UNK     1       3.688   2.081  -2.518  1.00  0.00    -0.347 OA
BRANCH  20  21
HETATM   21  C18 UNK     1       4.647   2.134  -1.462  1.00  0.00     0.202 C 
BRANCH  21  22
HETATM   22  C19 UNK     1       5.574   3.276  -1.712  1.00  0.00    -0.011 C 
HETATM   23  C20 UNK     1       5.736   4.305  -0.873  1.00  0.00     0.009 C 
ENDBRANCH  21  22
ENDBRANCH  20  21
ENDBRANCH  11  20
TORSDOF 5
