REMARK  4 active torsions:
REMARK  status: ('A' for Active; 'I' for Inactive)
REMARK    1  A    between atoms: C2_6  and  N1_4 
REMARK    2  A    between atoms: C4_8  and  N1_4 
REMARK    3  A    between atoms: C1_5  and  C2_6 
REMARK    4  A    between atoms: C1_5  and  C3_7 
ROOT
HETATM    1  O1  UNK     1       1.048   1.124  -2.593  1.00  0.00    -0.274 OA
HETATM    2  O2  UNK     1       0.292  -0.149   1.236  1.00  0.00    -0.286 OA
HETATM    3  O3  UNK     1      -0.951   0.323  -3.346  1.00  0.00    -0.259 OA
HETATM    4  C4  UNK     1      -1.595  -0.597  -0.782  1.00  0.00     0.021 C 
HETATM    5  C5  UNK     1      -0.436   0.030  -1.032  1.00  0.00     0.112 A 
HETATM    6  C6  UNK     1       1.757   0.921  -0.254  1.00  0.00     0.049 A 
HETATM    7  C7  UNK     1       0.510   0.229   0.092  1.00  0.00     0.203 A 
HETATM    8  C9  UNK     1       1.980   1.338  -1.560  1.00  0.00     0.093 A 
HETATM    9  C10 UNK     1      -2.594  -0.827  -1.882  1.00  0.00     0.069 C 
HETATM   10  C11 UNK     1      -0.173   0.484  -2.414  1.00  0.00     0.304 A 
HETATM   11  C12 UNK     1       2.727   1.166   0.723  1.00  0.00     0.018 A 
HETATM   12  C13 UNK     1       3.159   1.997  -1.912  1.00  0.00     0.038 A 
HETATM   13  C14 UNK     1       3.909   1.825   0.377  1.00  0.00     0.001 A 
HETATM   14  C15 UNK     1       4.125   2.240  -0.937  1.00  0.00     0.003 A 
ENDROOT
BRANCH   4  15
HETATM   15  N1  UNK     1      -1.951  -1.063   0.454  1.00  0.00    -0.393 N 
HETATM   16  H7  UNK     1      -1.282  -0.981   1.209  1.00  0.00     0.159 HD
BRANCH  15  17
HETATM   17  C2  UNK     1      -3.181  -1.763   0.709  1.00  0.00     0.119 C 
BRANCH  17  18
HETATM   18  C1  UNK     1      -3.259  -2.207   2.167  1.00  0.00     0.019 C 
BRANCH  18  19
HETATM   19  C3  UNK     1      -3.245  -1.029   3.144  1.00  0.00    -0.003 C 
HETATM   20  C8  UNK     1      -3.390  -1.499   4.583  1.00  0.00     0.005 C 
ENDBRANCH  18  19
ENDBRANCH  17  18
ENDBRANCH  15  17
ENDBRANCH   4  15
TORSDOF 4
