REMARK  6 active torsions:
REMARK  status: ('A' for Active; 'I' for Inactive)
REMARK    1  A    between atoms: C16_22  and  O2_2 
REMARK    2  A    between atoms: C24_30  and  O2_2 
REMARK    3  A    between atoms: C19_25  and  O4_4 
REMARK    4  A    between atoms: C12_18  and  N1_6 
REMARK    5  A    between atoms: C21_27  and  C25_31 
REMARK    6  A    between atoms: C24_30  and  C25_31 
ROOT
HETATM    1  O1  UNK     1       1.161   1.995  -1.713  1.00  0.00    -0.271 OA
HETATM    2  O3  UNK     1       0.214   2.777  -3.628  1.00  0.00    -0.259 OA
HETATM    3  C5  UNK     1       4.888   1.411  -3.852  1.00  0.00     0.040 C 
HETATM    4  C6  UNK     1       4.783   1.501  -5.376  1.00  0.00     0.005 C 
HETATM    5  C7  UNK     1       3.583   1.651  -3.125  1.00  0.00    -0.033 A 
HETATM    6  C8  UNK     1       3.926   2.685  -5.792  1.00  0.00     0.005 C 
HETATM    7  C9  UNK     1       2.520   2.558  -5.210  1.00  0.00     0.045 C 
HETATM    8  C10 UNK     1       2.502   2.149  -3.756  1.00  0.00     0.025 A 
HETATM    9  C11 UNK     1       3.504   1.329  -1.690  1.00  0.00     0.008 A 
HETATM   10  C13 UNK     1       2.290   1.509  -1.031  1.00  0.00     0.126 A 
HETATM   11  C14 UNK     1       1.206   2.341  -3.054  1.00  0.00     0.295 A 
HETATM   12  C15 UNK     1       4.585   0.859  -0.931  1.00  0.00     0.018 A 
HETATM   13  C16 UNK     1       2.125   1.228   0.327  1.00  0.00     0.137 A 
HETATM   14  C19 UNK     1       3.208   0.757   1.060  1.00  0.00     0.104 A 
HETATM   15  C20 UNK     1       4.437   0.574   0.432  1.00  0.00     0.040 A 
ENDROOT
BRANCH  13  16
HETATM   16  O2  UNK     1       0.917   1.411   0.930  1.00  0.00    -0.338 OA
BRANCH  16  17
HETATM   17  C24 UNK     1       0.019   0.303   0.931  1.00  0.00     0.259 C 
BRANCH  17  18
HETATM   18  C25 UNK     1      -1.273   0.683   1.627  1.00  0.00     0.183 C 
HETATM   19  O5  UNK     1      -1.435   1.794   2.128  1.00  0.00    -0.290 OA
BRANCH  18  20
HETATM   20  C21 UNK     1      -2.369  -0.326   1.705  1.00  0.00     0.012 A 
HETATM   21  C22 UNK     1      -2.168  -1.565   1.140  1.00  0.00     0.017 A 
HETATM   22  C17 UNK     1      -3.192  -2.508   1.212  1.00  0.00     0.030 A 
HETATM   23  C12 UNK     1      -4.392  -2.188   1.849  1.00  0.00     0.030 A 
HETATM   24  C18 UNK     1      -4.566  -0.924   2.412  1.00  0.00     0.030 A 
HETATM   25  C23 UNK     1      -3.542   0.020   2.339  1.00  0.00     0.017 A 
BRANCH  23  26
HETATM   26  N1  UNK     1      -5.404  -3.121   1.922  1.00  0.00    -0.381 N 
HETATM   27  C3  UNK     1      -5.319  -4.469   1.367  1.00  0.00     0.123 C 
HETATM   28  C1  UNK     1      -6.529  -5.186   1.962  1.00  0.00     0.021 C 
HETATM   29  C2  UNK     1      -7.546  -4.069   2.123  1.00  0.00     0.021 C 
HETATM   30  C4  UNK     1      -6.693  -2.883   2.567  1.00  0.00     0.123 C 
ENDBRANCH  23  26
ENDBRANCH  18  20
ENDBRANCH  17  18
ENDBRANCH  16  17
ENDBRANCH  13  16
BRANCH  14  31
HETATM   31  O4  UNK     1       3.080   0.467   2.384  1.00  0.00    -0.353 OA
HETATM   32  C26 UNK     1       3.341   1.522   3.307  1.00  0.00     0.210 C 
ENDBRANCH  14  31
TORSDOF 6
