REMARK  2 active torsions:
REMARK  status: ('A' for Active; 'I' for Inactive)
REMARK    1  A    between atoms: C7_11  and  O2_2 
REMARK    2  A    between atoms: C11_15  and  C4_8 
ROOT
HETATM    1  O1  UNK     1      -2.282  -0.890  -0.263  1.00  0.00    -0.274 OA
HETATM    2  O4  UNK     1      -3.886  -1.795   1.092  1.00  0.00    -0.260 OA
HETATM    3  C1  UNK     1      -0.219  -0.040   0.731  1.00  0.00     0.006 A 
HETATM    4  C2  UNK     1      -1.016  -0.284  -0.389  1.00  0.00     0.099 A 
HETATM    5  C3  UNK     1      -0.610   0.054  -1.681  1.00  0.00     0.007 A 
HETATM    6  C4  UNK     1       1.448   0.910  -0.768  1.00  0.00     0.044 A 
HETATM    7  C5  UNK     1      -0.725  -0.429   2.054  1.00  0.00    -0.043 A 
HETATM    8  C6  UNK     1       1.028   0.566   0.521  1.00  0.00     0.032 A 
HETATM    9  C7  UNK     1       0.630   0.655  -1.868  1.00  0.00     0.088 A 
HETATM   10  C8  UNK     1      -1.495  -0.224  -2.853  1.00  0.00     0.054 C 
HETATM   11  C9  UNK     1      -1.933  -1.003   2.143  1.00  0.00     0.090 A 
HETATM   12  C10 UNK     1       0.108  -0.181   3.277  1.00  0.00     0.049 C 
HETATM   13  C12 UNK     1      -2.786  -1.267   0.972  1.00  0.00     0.288 A 
ENDROOT
BRANCH   6  14
HETATM   14  C11 UNK     1       2.752   1.538  -0.939  1.00  0.00     0.158 C 
HETATM   15  O3  UNK     1       3.172   1.863  -2.066  1.00  0.00    -0.293 OA
HETATM   16  C13 UNK     1       3.635   1.812   0.272  1.00  0.00     0.097 C 
ENDBRANCH   6  14
BRANCH   9  17
HETATM   17  O2  UNK     1       1.044   0.992  -3.123  1.00  0.00    -0.359 OA
HETATM   18  H12 UNK     1       1.994   1.180  -3.141  1.00  0.00     0.217 HD
ENDBRANCH   9  17
TORSDOF 2
