REMARK  4 active torsions:
REMARK  status: ('A' for Active; 'I' for Inactive)
REMARK    1  A    between atoms: C6_11  and  O2_2 
REMARK    2  A    between atoms: C15_20  and  O4_4 
REMARK    3  A    between atoms: C12_17  and  O5_5 
REMARK    4  A    between atoms: C2_7  and  C5_10 
ROOT
HETATM    1  O1  UNK     1      -0.969   0.826   2.283  1.00  0.00    -0.321 OA
HETATM    2  O3  UNK     1      -0.820  -0.750  -1.478  1.00  0.00    -0.286 OA
HETATM    3  C1  UNK     1      -1.863  -0.713   0.632  1.00  0.00     0.082 A 
HETATM    4  C2  UNK     1       0.128   0.742   0.118  1.00  0.00     0.048 A 
HETATM    5  C3  UNK     1      -1.872  -0.133   1.900  1.00  0.00     0.094 A 
HETATM    6  C4  UNK     1      -0.845  -0.286  -0.346  1.00  0.00     0.200 A 
HETATM    7  C6  UNK     1      -2.809  -1.685   0.297  1.00  0.00     0.085 A 
HETATM    8  C7  UNK     1      -0.013   1.201   1.370  1.00  0.00     0.159 A 
HETATM    9  C8  UNK     1      -2.829  -0.520   2.839  1.00  0.00     0.074 A 
HETATM   10  C11 UNK     1      -3.764  -2.071   1.239  1.00  0.00     0.074 A 
HETATM   11  C12 UNK     1      -3.774  -1.490   2.507  1.00  0.00     0.071 A 
ENDROOT
BRANCH   4  12
HETATM   12  C5  UNK     1       1.217   1.227  -0.745  1.00  0.00    -0.020 A 
HETATM   13  C10 UNK     1       1.020   2.344  -1.560  1.00  0.00     0.015 A 
HETATM   14  C14 UNK     1       2.053   2.805  -2.377  1.00  0.00     0.037 A 
HETATM   15  C15 UNK     1       3.284   2.151  -2.380  1.00  0.00     0.068 A 
HETATM   16  C13 UNK     1       3.484   1.035  -1.567  1.00  0.00     0.037 A 
HETATM   17  C9  UNK     1       2.451   0.574  -0.750  1.00  0.00     0.015 A 
BRANCH  15  18
HETATM   18  O4  UNK     1       4.292   2.600  -3.177  1.00  0.00    -0.356 OA
HETATM   19  C16 UNK     1       4.020   3.746  -3.983  1.00  0.00     0.210 C 
ENDBRANCH  15  18
ENDBRANCH   4  12
BRANCH   7  20
HETATM   20  O2  UNK     1      -2.846  -2.284  -0.926  1.00  0.00    -0.360 OA
HETATM   21  H8  UNK     1      -2.129  -1.955  -1.489  1.00  0.00     0.217 HD
ENDBRANCH   7  20
BRANCH  11  22
HETATM   22  O5  UNK     1      -4.707  -1.872   3.423  1.00  0.00    -0.361 OA
HETATM   23  H9  UNK     1      -5.279  -2.550   3.025  1.00  0.00     0.217 HD
ENDBRANCH  11  22
TORSDOF 4
