REMARK  4 active torsions:
REMARK  status: ('A' for Active; 'I' for Inactive)
REMARK    1  A    between atoms: C11_16  and  O3_3 
REMARK    2  A    between atoms: C1_6  and  N1_5 
REMARK    3  A    between atoms: C2_7  and  N1_5 
REMARK       I    between atoms: C4_9  and  N1_5 
REMARK    4  A    between atoms: C3_8  and  C4_9 
ROOT
HETATM    1  O1  UNK     1       0.141   0.659  -1.881  1.00  0.00    -0.271 OA
HETATM    2  O4  UNK     1      -2.002  -0.134  -1.887  1.00  0.00    -0.259 OA
HETATM    3  C3  UNK     1      -1.037   0.305   0.232  1.00  0.00     0.108 A 
HETATM    4  C5  UNK     1       1.235   1.145   0.235  1.00  0.00     0.002 A 
HETATM    5  C6  UNK     1       0.027   0.725   0.927  1.00  0.00     0.037 A 
HETATM    6  C7  UNK     1       1.264   1.102  -1.155  1.00  0.00     0.123 A 
HETATM    7  C10 UNK     1      -1.029   0.251  -1.247  1.00  0.00     0.304 A 
HETATM    8  C11 UNK     1       2.390   1.490  -1.879  1.00  0.00     0.102 A 
HETATM    9  C12 UNK     1       2.369   1.590   0.919  1.00  0.00     0.014 A 
HETATM   10  C13 UNK     1       3.517   1.932  -1.189  1.00  0.00     0.040 A 
HETATM   11  C14 UNK     1       3.507   1.982   0.207  1.00  0.00     0.004 A 
ENDROOT
BRANCH   3  12
HETATM   12  C4  UNK     1      -2.208  -0.098   1.021  1.00  0.00     0.259 C 
HETATM   13  O2  UNK     1      -3.058   0.759   1.287  1.00  0.00    -0.267 OA
HETATM   14  N1  UNK     1      -2.295  -1.438   1.412  1.00  0.00    -0.348 N 
BRANCH  14  15
HETATM   15  C1  UNK     1      -3.423  -1.951   2.186  1.00  0.00     0.121 C 
HETATM   16  C8  UNK     1      -4.514  -2.442   1.255  1.00  0.00     0.026 C 
ENDBRANCH  14  15
BRANCH  14  17
HETATM   17  C2  UNK     1      -1.266  -2.413   1.075  1.00  0.00     0.121 C 
HETATM   18  C9  UNK     1      -0.209  -2.455   2.162  1.00  0.00     0.026 C 
ENDBRANCH  14  17
ENDBRANCH   3  12
BRANCH   8  19
HETATM   19  O3  UNK     1       2.404   1.442  -3.238  1.00  0.00    -0.353 OA
HETATM   20  C15 UNK     1       2.852   0.228  -3.841  1.00  0.00     0.210 C 
ENDBRANCH   8  19
TORSDOF 4
