REMARK  3 active torsions:
REMARK  status: ('A' for Active; 'I' for Inactive)
REMARK    1  A    between atoms: C6_11  and  O2_2 
REMARK    2  A    between atoms: C10_15  and  O4_4 
REMARK    3  A    between atoms: C10_15  and  C7_12 
ROOT
HETATM    1  O1  UNK     1      -0.922  -0.034  -1.402  1.00  0.00    -0.274 OA
HETATM    2  O3  UNK     1      -2.978  -0.978  -1.081  1.00  0.00    -0.259 OA
HETATM    3  C1  UNK     1       0.552   0.306   0.501  1.00  0.00    -0.001 A 
HETATM    4  C2  UNK     1       0.300   0.412  -0.863  1.00  0.00     0.092 A 
HETATM    5  C3  UNK     1      -0.467  -0.273   1.362  1.00  0.00     0.039 A 
HETATM    6  C4  UNK     1       1.776   0.761   0.997  1.00  0.00     0.017 A 
HETATM    7  C5  UNK     1       1.234   0.957  -1.742  1.00  0.00     0.075 A 
HETATM    8  C6  UNK     1       2.453   1.408  -1.238  1.00  0.00     0.070 A 
HETATM    9  C7  UNK     1      -1.627  -0.696   0.844  1.00  0.00     0.114 A 
HETATM   10  C8  UNK     1       2.723   1.310   0.128  1.00  0.00     0.038 A 
HETATM   11  C9  UNK     1      -1.916  -0.593  -0.604  1.00  0.00     0.305 A 
ENDROOT
BRANCH   9  12
HETATM   12  C10 UNK     1      -2.591  -1.265   1.793  1.00  0.00     0.182 C 
HETATM   13  O5  UNK     1      -2.682  -0.936   2.960  1.00  0.00    -0.646 OA
BRANCH  12  14
HETATM   14  O4  UNK     1      -3.343  -2.194   1.168  1.00  0.00    -0.772 OA
HETATM   15  H8  UNK     1      -4.003  -2.600   1.769  1.00  0.00     0.167 HD
ENDBRANCH  12  14
ENDBRANCH   9  12
BRANCH   8  16
HETATM   16  O2  UNK     1       3.380   1.943  -2.078  1.00  0.00    -0.356 OA
HETATM   17  C11 UNK     1       3.039   2.014  -3.462  1.00  0.00     0.210 C 
ENDBRANCH   8  16
TORSDOF 3
