REMARK  4 active torsions:
REMARK  status: ('A' for Active; 'I' for Inactive)
REMARK    1  A    between atoms: C7_12  and  O2_2 
REMARK    2  A    between atoms: C11_16  and  O4_4 
REMARK    3  A    between atoms: C15_20  and  O5_5 
REMARK    4  A    between atoms: C1_6  and  C5_10 
ROOT
HETATM    1  O1  UNK     1      -0.817  -0.149  -0.613  1.00  0.00    -0.340 OA
HETATM    2  O3  UNK     1       1.092   2.789   1.521  1.00  0.00    -0.292 OA
HETATM    3  C1  UNK     1      -0.803  -0.177   0.822  1.00  0.00     0.169 C 
HETATM    4  C2  UNK     1      -0.733   1.237   1.397  1.00  0.00     0.121 C 
HETATM    5  C3  UNK     1       0.961   1.513  -0.461  1.00  0.00     0.077 A 
HETATM    6  C4  UNK     1       0.513   1.914   0.888  1.00  0.00     0.167 C 
HETATM    7  C6  UNK     1       0.256   0.519  -1.145  1.00  0.00     0.089 A 
HETATM    8  C7  UNK     1       2.048   2.149  -1.065  1.00  0.00     0.087 A 
HETATM    9  C8  UNK     1       0.619   0.183  -2.450  1.00  0.00     0.074 A 
HETATM   10  C11 UNK     1       1.704   0.819  -3.056  1.00  0.00     0.073 A 
HETATM   11  C12 UNK     1       2.419   1.796  -2.363  1.00  0.00     0.074 A 
ENDROOT
BRANCH   3  12
HETATM   12  C5  UNK     1      -2.045  -0.900   1.300  1.00  0.00    -0.028 A 
HETATM   13  C10 UNK     1      -3.306  -0.370   1.028  1.00  0.00     0.012 A 
HETATM   14  C14 UNK     1      -4.450  -1.036   1.468  1.00  0.00     0.037 A 
HETATM   15  C15 UNK     1      -4.332  -2.231   2.179  1.00  0.00     0.065 A 
HETATM   16  C13 UNK     1      -3.070  -2.759   2.450  1.00  0.00     0.037 A 
HETATM   17  C9  UNK     1      -1.926  -2.093   2.010  1.00  0.00     0.012 A 
BRANCH  15  18
HETATM   18  O5  UNK     1      -5.448  -2.881   2.608  1.00  0.00    -0.361 OA
HETATM   19  H16 UNK     1      -6.233  -2.375   2.333  1.00  0.00     0.217 HD
ENDBRANCH  15  18
ENDBRANCH   3  12
BRANCH   8  20
HETATM   20  O2  UNK     1       2.770   3.122  -0.442  1.00  0.00    -0.355 OA
HETATM   21  C16 UNK     1       3.894   2.702   0.329  1.00  0.00     0.210 C 
ENDBRANCH   8  20
BRANCH  10  22
HETATM   22  O4  UNK     1       2.064   0.484  -4.325  1.00  0.00    -0.356 OA
HETATM   23  C17 UNK     1       3.182   1.172  -4.885  1.00  0.00     0.210 C 
ENDBRANCH  10  22
TORSDOF 4
