REMARK  3 active torsions:
REMARK  status: ('A' for Active; 'I' for Inactive)
REMARK       I    between atoms: C11_20  and  N1_7 
REMARK    1  A    between atoms: C9_18  and  N1_7 
REMARK    2  A    between atoms: C19_28  and  N3_9 
REMARK    3  A    between atoms: C11_20  and  C12_21 
ROOT
HETATM    1  S1  UNK     1       2.594   2.202  -0.141  1.00  0.00    -0.075 SA
HETATM    2  N2  UNK     1       1.467   0.283  -4.703  1.00  0.00    -0.191 NA
HETATM    3  C1  UNK     1       6.796   2.786  -2.457  1.00  0.00     0.001 C 
HETATM    4  C2  UNK     1       5.981   1.894  -3.398  1.00  0.00     0.005 C 
HETATM    5  C3  UNK     1       6.349   2.769  -0.992  1.00  0.00     0.005 C 
HETATM    6  C4  UNK     1       4.557   2.391  -3.656  1.00  0.00     0.041 C 
HETATM    7  C5  UNK     1       5.009   3.460  -0.736  1.00  0.00     0.047 C 
HETATM    8  C6  UNK     1       3.633   2.164  -2.499  1.00  0.00    -0.021 A 
HETATM    9  C7  UNK     1       3.849   2.644  -1.219  1.00  0.00    -0.007 A 
HETATM   10  C8  UNK     1       2.409   1.424  -2.573  1.00  0.00     0.085 A 
HETATM   11  C9  UNK     1       1.750   1.367  -1.367  1.00  0.00     0.098 A 
HETATM   12  C10 UNK     1       1.888   0.794  -3.750  1.00  0.00     0.103 C 
ENDROOT
BRANCH  11  13
HETATM   13  N1  UNK     1       0.571   0.774  -1.001  1.00  0.00    -0.316 N 
HETATM   14  C11 UNK     1      -0.010   0.782   0.274  1.00  0.00     0.262 C 
HETATM   15  O2  UNK     1       0.408   1.309   1.298  1.00  0.00    -0.267 OA
HETATM   16  H11 UNK     1       0.100   0.269  -1.748  1.00  0.00     0.170 HD
BRANCH  14  17
HETATM   17  C12 UNK     1      -1.288   0.041   0.316  1.00  0.00     0.108 A 
HETATM   18  C14 UNK     1      -1.598  -0.537   1.483  1.00  0.00     0.037 A 
HETATM   19  C13 UNK     1      -2.836  -1.288   1.623  1.00  0.00     0.001 A 
HETATM   20  C15 UNK     1      -3.687  -1.394   0.528  1.00  0.00     0.089 A 
HETATM   21  C17 UNK     1      -3.200  -1.907   2.821  1.00  0.00     0.050 A 
HETATM   22  C18 UNK     1      -4.887  -2.098   0.596  1.00  0.00     0.041 A 
HETATM   23  O1  UNK     1      -3.355  -0.783  -0.698  1.00  0.00    -0.274 OA
HETATM   24  C20 UNK     1      -5.242  -2.713   1.794  1.00  0.00     0.039 A 
HETATM   25  C19 UNK     1      -4.401  -2.618   2.905  1.00  0.00     0.103 A 
HETATM   26  C16 UNK     1      -2.178  -0.058  -0.862  1.00  0.00     0.304 A 
HETATM   27  O3  UNK     1      -1.898   0.471  -1.932  1.00  0.00    -0.259 OA
BRANCH  25  28
HETATM   28  N3  UNK     1      -4.768  -3.246   4.125  1.00  0.00    -0.116 N 
HETATM   29  O4  UNK     1      -5.850  -3.879   4.181  1.00  0.00    -0.532 OA
HETATM   30  O5  UNK     1      -4.000  -3.151   5.113  1.00  0.00    -0.532 OA
ENDBRANCH  25  28
ENDBRANCH  14  17
ENDBRANCH  11  13
TORSDOF 3
