REMARK  8 active torsions:
REMARK  status: ('A' for Active; 'I' for Inactive)
REMARK    1  A    between atoms: C11_20  and  O1_4 
REMARK    2  A    between atoms: C8_17  and  O1_4 
REMARK    3  A    between atoms: C18_27  and  O3_6 
REMARK    4  A    between atoms: C21_30  and  O3_6 
REMARK    5  A    between atoms: C22_31  and  O5_8 
REMARK    6  A    between atoms: C1_10  and  C2_11 
REMARK    7  A    between atoms: C15_24  and  C20_29 
REMARK    8  A    between atoms: C21_30  and  C22_31 
ROOT
HETATM    1  O2  UNK     1       0.325   0.222  -2.652  1.00  0.00    -0.302 OA
HETATM    2  O4  UNK     1      -1.183   1.737   0.815  1.00  0.00    -0.284 OA
HETATM    3  C11 UNK     1      -1.495   0.342  -1.073  1.00  0.00     0.165 A 
HETATM    4  C12 UNK     1       0.617   1.642  -0.705  1.00  0.00     0.051 A 
HETATM    5  C13 UNK     1       1.074   1.089  -1.899  1.00  0.00     0.093 A 
HETATM    6  C14 UNK     1      -0.726   1.283  -0.225  1.00  0.00     0.221 A 
HETATM    7  C15 UNK     1      -0.942  -0.123  -2.207  1.00  0.00     0.197 A 
HETATM    8  C16 UNK     1       1.424   2.522   0.020  1.00  0.00     0.021 A 
HETATM    9  C17 UNK     1       2.345   1.413  -2.376  1.00  0.00     0.075 A 
HETATM   10  C18 UNK     1       3.154   2.292  -1.655  1.00  0.00     0.072 A 
HETATM   11  C19 UNK     1       2.694   2.845  -0.459  1.00  0.00     0.038 A 
ENDROOT
BRANCH   3  12
HETATM   12  O1  UNK     1      -2.758  -0.022  -0.660  1.00  0.00    -0.304 OA
BRANCH  12  13
HETATM   13  C8  UNK     1      -2.857  -0.646   0.552  1.00  0.00     0.076 A 
HETATM   14  C10 UNK     1      -1.968  -1.664   0.881  1.00  0.00     0.038 A 
HETATM   15  C7  UNK     1      -2.070  -2.300   2.119  1.00  0.00     0.011 A 
HETATM   16  C2  UNK     1      -3.061  -1.915   3.021  1.00  0.00    -0.050 A 
HETATM   17  C6  UNK     1      -3.950  -0.893   2.687  1.00  0.00     0.011 A 
HETATM   18  C9  UNK     1      -3.848  -0.258   1.449  1.00  0.00     0.038 A 
BRANCH  16  19
HETATM   19  C1  UNK     1      -3.171  -2.595   4.344  1.00  0.00    -0.024 C 
HETATM   20  C3  UNK     1      -4.563  -3.278   4.515  1.00  0.00     0.019 C 
HETATM   21  C4  UNK     1      -2.996  -1.582   5.518  1.00  0.00     0.019 C 
HETATM   22  C5  UNK     1      -2.119  -3.723   4.607  1.00  0.00     0.019 C 
ENDBRANCH  16  19
ENDBRANCH  12  13
ENDBRANCH   3  12
BRANCH   7  23
HETATM   23  C20 UNK     1      -1.636  -1.077  -3.133  1.00  0.00     0.442 C 
HETATM   24  F1  UNK     1      -2.862  -1.390  -2.670  1.00  0.00    -0.164 F 
HETATM   25  F2  UNK     1      -1.780  -0.539  -4.360  1.00  0.00    -0.164 F 
HETATM   26  F3  UNK     1      -0.936  -2.222  -3.261  1.00  0.00    -0.164 F 
ENDBRANCH   7  23
BRANCH  10  27
HETATM   27  O3  UNK     1       4.394   2.609  -2.119  1.00  0.00    -0.341 OA
BRANCH  27  28
HETATM   28  C21 UNK     1       5.390   2.923  -1.146  1.00  0.00     0.285 C 
BRANCH  28  29
HETATM   29  C22 UNK     1       6.748   2.551  -1.672  1.00  0.00     0.164 C 
HETATM   30  O6  UNK     1       6.980   2.035  -2.755  1.00  0.00    -0.648 OA
BRANCH  29  31
HETATM   31  O5  UNK     1       7.705   2.874  -0.766  1.00  0.00    -0.775 OA
HETATM   32  H19 UNK     1       8.604   2.643  -1.084  1.00  0.00     0.167 HD
ENDBRANCH  29  31
ENDBRANCH  28  29
ENDBRANCH  27  28
ENDBRANCH  10  27
TORSDOF 8
