REMARK  7 active torsions:
REMARK  status: ('A' for Active; 'I' for Inactive)
REMARK    1  A    between atoms: C15_22  and  O3_3 
REMARK    2  A    between atoms: C23_30  and  O3_3 
REMARK    3  A    between atoms: C5_12  and  N1_5 
REMARK    4  A    between atoms: C6_13  and  N2_6 
REMARK    5  A    between atoms: C16_23  and  N3_7 
REMARK       I    between atoms: C9_16  and  N3_7 
REMARK    6  A    between atoms: C5_12  and  C7_14 
REMARK    7  A    between atoms: C6_13  and  C9_16 
ROOT
HETATM    1  N1  UNK     1       1.360   1.424  -0.001  1.00  0.00     0.096 N 
HETATM    2  N2  UNK     1      -0.251  -0.267   1.702  1.00  0.00     0.100 N 
HETATM    3  C1  UNK     1       1.833   1.005   1.324  1.00  0.00     0.303 C 
HETATM    4  C2  UNK     1      -0.106   1.495  -0.024  1.00  0.00     0.303 C 
HETATM    5  C3  UNK     1       1.215  -0.339   1.724  1.00  0.00     0.303 C 
HETATM    6  C4  UNK     1      -0.724   0.151   0.377  1.00  0.00     0.303 C 
ENDROOT
BRANCH   1   7
HETATM    7  C5  UNK     1       1.948   2.707  -0.380  1.00  0.00     0.312 C 
BRANCH   7   8
HETATM    8  C7  UNK     1       3.337   2.559  -0.897  1.00  0.00    -0.011 A 
HETATM    9  C10 UNK     1       4.392   2.618  -0.072  1.00  0.00     0.092 A 
HETATM   10  C13 UNK     1       5.783   2.477  -0.536  1.00  0.00     0.288 A 
HETATM   11  O1  UNK     1       5.969   2.275  -1.894  1.00  0.00    -0.275 OA
HETATM   12  O4  UNK     1       6.724   2.537   0.248  1.00  0.00    -0.260 OA
HETATM   13  C11 UNK     1       4.880   2.209  -2.786  1.00  0.00     0.090 A 
HETATM   14  C8  UNK     1       3.567   2.345  -2.332  1.00  0.00     0.009 A 
HETATM   15  C14 UNK     1       5.186   2.004  -4.132  1.00  0.00     0.041 A 
HETATM   16  C12 UNK     1       2.540   2.268  -3.282  1.00  0.00     0.051 A 
HETATM   17  C15 UNK     1       2.831   2.063  -4.635  1.00  0.00     0.069 A 
HETATM   18  C17 UNK     1       4.152   1.931  -5.060  1.00  0.00     0.039 A 
BRANCH  17  19
HETATM   19  O3  UNK     1       1.818   1.992  -5.543  1.00  0.00    -0.351 OA
BRANCH  19  20
HETATM   20  C23 UNK     1       0.568   1.483  -5.080  1.00  0.00     0.171 C 
HETATM   21  C26 UNK     1      -0.147   0.811  -6.233  1.00  0.00     0.034 C 
ENDBRANCH  19  20
ENDBRANCH  17  19
ENDBRANCH   7   8
ENDBRANCH   1   7
BRANCH   2  22
HETATM   22  C6  UNK     1      -0.840  -1.549   2.083  1.00  0.00     0.375 C 
BRANCH  22  23
HETATM   23  C9  UNK     1      -2.276  -1.333   2.529  1.00  0.00     0.250 C 
HETATM   24  O2  UNK     1      -2.657  -0.290   3.051  1.00  0.00    -0.271 OA
HETATM   25  N3  UNK     1      -3.042  -2.464   2.252  1.00  0.00    -0.326 N 
HETATM   26  H15 UNK     1      -2.575  -3.256   1.816  1.00  0.00     0.169 HD
BRANCH  25  27
HETATM   27  C16 UNK     1      -4.419  -2.660   2.513  1.00  0.00     0.035 A 
HETATM   28  C18 UNK     1      -5.031  -3.864   2.167  1.00  0.00     0.037 A 
HETATM   29  C20 UNK     1      -6.388  -4.057   2.425  1.00  0.00    -0.054 A 
HETATM   30  C21 UNK     1      -7.133  -3.045   3.030  1.00  0.00    -0.056 A 
HETATM   31  C24 UNK     1      -7.021  -5.355   2.046  1.00  0.00     0.049 C 
HETATM   32  C22 UNK     1      -6.521  -1.840   3.376  1.00  0.00     0.009 A 
HETATM   33  C25 UNK     1      -8.587  -3.228   3.317  1.00  0.00     0.049 C 
HETATM   34  C19 UNK     1      -5.164  -1.647   3.118  1.00  0.00     0.030 A 
ENDBRANCH  25  27
ENDBRANCH  22  23
ENDBRANCH   2  22
TORSDOF 7
