REMARK  6 active torsions:
REMARK  status: ('A' for Active; 'I' for Inactive)
REMARK    1  A    between atoms: C19_29  and  N1_7 
REMARK    2  A    between atoms: C4_14  and  N1_7 
REMARK       I    between atoms: C17_27  and  N2_8 
REMARK    3  A    between atoms: N2_8  and  N3_9 
REMARK    4  A    between atoms: C19_29  and  N3_9 
REMARK    5  A    between atoms: C12_22  and  N4_10 
REMARK    6  A    between atoms: C11_21  and  C17_27 
ROOT
HETATM    1  N3  UNK     1      -1.666  -0.376  -2.116  1.00  0.00    -0.273 N 
HETATM    2  H16 UNK     1      -2.293  -0.818  -2.780  1.00  0.00     0.189 HD
ENDROOT
BRANCH   1   3
HETATM    3  C19 UNK     1      -0.676   0.510  -2.528  1.00  0.00     0.191 C 
HETATM    4  S1  UNK     1      -0.587   0.838  -4.169  1.00  0.00    -0.039 SA
BRANCH   3   5
HETATM    5  N1  UNK     1       0.110   1.024  -1.480  1.00  0.00    -0.332 N 
HETATM    6  H8  UNK     1      -0.363   0.994  -0.580  1.00  0.00     0.168 HD
BRANCH   5   7
HETATM    7  C4  UNK     1       1.423   1.485  -1.384  1.00  0.00     0.037 A 
HETATM    8  C6  UNK     1       2.255   1.462  -2.499  1.00  0.00     0.067 A 
HETATM    9  C2  UNK     1       3.565   1.929  -2.381  1.00  0.00     0.092 A 
HETATM   10  C1  UNK     1       4.076   2.421  -1.179  1.00  0.00     0.004 A 
HETATM   11  O1  UNK     1       4.359   1.881  -3.544  1.00  0.00    -0.275 OA
HETATM   12  C3  UNK     1       5.467   2.892  -1.146  1.00  0.00    -0.043 A 
HETATM   13  C5  UNK     1       3.222   2.436  -0.068  1.00  0.00     0.017 A 
HETATM   14  C8  UNK     1       6.199   2.835  -2.267  1.00  0.00     0.090 A 
HETATM   15  C9  UNK     1       6.045   3.427   0.132  1.00  0.00     0.049 C 
HETATM   16  C13 UNK     1       5.674   2.319  -3.543  1.00  0.00     0.288 A 
HETATM   17  O2  UNK     1       6.374   2.281  -4.549  1.00  0.00    -0.260 OA
HETATM   18  C7  UNK     1       1.906   1.971  -0.171  1.00  0.00     0.030 A 
ENDBRANCH   5   7
ENDBRANCH   3   5
ENDBRANCH   1   3
BRANCH   1  19
HETATM   19  N2  UNK     1      -1.846  -0.696  -0.789  1.00  0.00    -0.264 N 
HETATM   20  C17 UNK     1      -3.116  -1.013  -0.347  1.00  0.00     0.270 C 
HETATM   21  O3  UNK     1      -4.123  -1.037  -1.051  1.00  0.00    -0.266 OA
HETATM   22  H15 UNK     1      -1.005  -0.807  -0.234  1.00  0.00     0.190 HD
BRANCH  20  23
HETATM   23  C11 UNK     1      -3.229  -1.332   1.099  1.00  0.00     0.036 A 
HETATM   24  C14 UNK     1      -4.243  -2.168   1.519  1.00  0.00     0.053 A 
HETATM   25  C12 UNK     1      -4.350  -2.468   2.877  1.00  0.00     0.109 A 
HETATM   26  C10 UNK     1      -3.440  -1.925   3.785  1.00  0.00    -0.029 A 
HETATM   27  C15 UNK     1      -2.424  -1.082   3.334  1.00  0.00     0.010 A 
HETATM   28  C18 UNK     1      -3.525  -2.228   5.246  1.00  0.00     0.050 C 
HETATM   29  C16 UNK     1      -2.317  -0.782   1.976  1.00  0.00     0.018 A 
BRANCH  25  30
HETATM   30  N4  UNK     1      -5.394  -3.329   3.315  1.00  0.00    -0.115 N 
HETATM   31  O4  UNK     1      -6.190  -3.795   2.466  1.00  0.00    -0.532 OA
HETATM   32  O5  UNK     1      -5.486  -3.597   4.536  1.00  0.00    -0.532 OA
ENDBRANCH  25  30
ENDBRANCH  20  23
ENDBRANCH   1  19
TORSDOF 6
