REMARK  6 active torsions:
REMARK  status: ('A' for Active; 'I' for Inactive)
REMARK    1  A    between atoms: C3_10  and  O2_2 
REMARK    2  A    between atoms: C6_13  and  O3_3 
REMARK    3  A    between atoms: C8_15  and  O4_4 
REMARK    4  A    between atoms: C15_22  and  O6_6 
REMARK    5  A    between atoms: C13_20  and  O7_7 
REMARK    6  A    between atoms: C4_11  and  C9_16 
ROOT
HETATM    1  O1  UNK     1       0.064   0.859   0.125  1.00  0.00    -0.309 OA
HETATM    2  O5  UNK     1      -1.945  -2.101  -1.825  1.00  0.00    -0.287 OA
HETATM    3  C1  UNK     1      -1.716  -0.795   0.130  1.00  0.00     0.084 A 
HETATM    4  C2  UNK     1      -0.987   0.226   0.739  1.00  0.00     0.096 A 
HETATM    5  C3  UNK     1      -2.777  -1.403   0.803  1.00  0.00     0.121 A 
HETATM    6  C4  UNK     1       0.419   0.459  -1.154  1.00  0.00     0.090 A 
HETATM    7  C5  UNK     1      -1.347  -1.215  -1.230  1.00  0.00     0.190 A 
HETATM    8  C6  UNK     1      -3.105  -0.983   2.093  1.00  0.00     0.136 A 
HETATM    9  C7  UNK     1      -1.317   0.644   2.029  1.00  0.00     0.078 A 
HETATM   10  C8  UNK     1      -2.376   0.038   2.705  1.00  0.00     0.107 A 
HETATM   11  C10 UNK     1      -0.208  -0.505  -1.846  1.00  0.00     0.094 A 
ENDROOT
BRANCH   6  12
HETATM   12  C9  UNK     1       1.558   1.208  -1.722  1.00  0.00     0.001 A 
HETATM   13  C11 UNK     1       2.557   1.709  -0.884  1.00  0.00     0.053 A 
HETATM   14  C13 UNK     1       3.632   2.417  -1.421  1.00  0.00     0.099 A 
HETATM   15  C15 UNK     1       3.712   2.627  -2.797  1.00  0.00     0.101 A 
HETATM   16  C14 UNK     1       2.716   2.128  -3.637  1.00  0.00     0.040 A 
HETATM   17  C12 UNK     1       1.641   1.420  -3.101  1.00  0.00     0.017 A 
BRANCH  14  18
HETATM   18  O7  UNK     1       4.598   2.900  -0.590  1.00  0.00    -0.358 OA
HETATM   19  H15 UNK     1       5.285   3.328  -1.130  1.00  0.00     0.217 HD
ENDBRANCH  14  18
BRANCH  15  20
HETATM   20  O6  UNK     1       4.757   3.316  -3.334  1.00  0.00    -0.353 OA
HETATM   21  C19 UNK     1       4.604   4.729  -3.462  1.00  0.00     0.210 C 
ENDBRANCH  15  20
ENDBRANCH   6  12
BRANCH   5  22
HETATM   22  O2  UNK     1      -3.512  -2.405   0.240  1.00  0.00    -0.352 OA
HETATM   23  C16 UNK     1      -3.060  -3.739   0.457  1.00  0.00     0.210 C 
ENDBRANCH   5  22
BRANCH  10  24
HETATM   24  O4  UNK     1      -2.690   0.454   3.964  1.00  0.00    -0.353 OA
HETATM   25  C18 UNK     1      -2.039  -0.208   5.046  1.00  0.00     0.210 C 
ENDBRANCH  10  24
BRANCH   8  26
HETATM   26  O3  UNK     1      -4.140  -1.570   2.762  1.00  0.00    -0.351 OA
HETATM   27  C17 UNK     1      -5.430  -0.987   2.594  1.00  0.00     0.210 C 
ENDBRANCH   8  26
TORSDOF 6
