REMARK  7 active torsions:
REMARK  status: ('A' for Active; 'I' for Inactive)
REMARK    1  A    between atoms: C12_20  and  O2_2 
REMARK    2  A    between atoms: C13_21  and  O3_3 
REMARK    3  A    between atoms: C19_27  and  O3_3 
REMARK    4  A    between atoms: C12_20  and  C2_10 
REMARK    5  A    between atoms: C11_19  and  C6_14 
REMARK    6  A    between atoms: C13_21  and  C8_16 
REMARK    7  A    between atoms: C19_27  and  C22_30 
ROOT
HETATM    1  O1  UNK     1      -1.486  -2.239  -0.021  1.00  0.00    -0.292 OA
HETATM    2  N1  UNK     1       0.098   0.982   3.069  1.00  0.00    -0.362 N 
HETATM    3  C1  UNK     1      -3.315  -0.585   2.638  1.00  0.00     0.008 C 
HETATM    4  C2  UNK     1      -2.857  -1.860   1.917  1.00  0.00     0.164 C 
HETATM    5  C3  UNK     1      -2.126   0.000   3.417  1.00  0.00     0.063 C 
HETATM    6  C4  UNK     1      -0.664  -0.567   1.447  1.00  0.00     0.025 C 
HETATM    7  C5  UNK     1      -0.871   0.120   2.590  1.00  0.00     0.020 C 
HETATM    8  C6  UNK     1       0.599  -0.356   0.615  1.00  0.00     0.104 C 
HETATM    9  C7  UNK     1      -1.666  -1.592   1.010  1.00  0.00     0.172 C 
HETATM   10  C8  UNK     1       1.653   0.468   1.360  1.00  0.00     0.052 C 
HETATM   11  C9  UNK     1      -3.927   0.463   1.696  1.00  0.00     0.011 C 
HETATM   12  C10 UNK     1       1.360   1.116   2.512  1.00  0.00     0.018 C 
HETATM   13  C14 UNK     1       2.305   1.996   3.283  1.00  0.00     0.069 C 
HETATM   14  H9  UNK     1      -0.092   1.475   3.934  1.00  0.00     0.165 HD
ENDROOT
BRANCH   8  15
HETATM   15  C11 UNK     1       0.263   0.298  -0.702  1.00  0.00     0.029 A 
HETATM   16  C15 UNK     1       0.558  -0.442  -1.955  1.00  0.00     0.194 A 
HETATM   17  O7  UNK     1       1.060  -1.558  -1.951  1.00  0.00    -0.287 OA
HETATM   18  C17 UNK     1       0.212   0.243  -3.215  1.00  0.00     0.048 A 
HETATM   19  C18 UNK     1      -0.359   1.515  -3.160  1.00  0.00     0.089 A 
HETATM   20  C20 UNK     1       0.450  -0.369  -4.448  1.00  0.00     0.018 A 
HETATM   21  O4  UNK     1      -0.615   2.163  -1.978  1.00  0.00    -0.321 OA
HETATM   22  C23 UNK     1      -0.694   2.182  -4.339  1.00  0.00     0.038 A 
HETATM   23  C16 UNK     1      -0.287   1.513  -0.814  1.00  0.00     0.154 A 
HETATM   24  C26 UNK     1      -0.458   1.573  -5.571  1.00  0.00     0.003 A 
HETATM   25  C25 UNK     1       0.113   0.300  -5.625  1.00  0.00     0.001 A 
ENDBRANCH   8  15
BRANCH  10  26
HETATM   26  C13 UNK     1       3.012   0.473   0.794  1.00  0.00     0.292 C 
HETATM   27  O6  UNK     1       3.853  -0.364   1.066  1.00  0.00    -0.259 OA
BRANCH  26  28
HETATM   28  O3  UNK     1       3.124   1.534  -0.040  1.00  0.00    -0.313 OA
BRANCH  28  29
HETATM   29  C19 UNK     1       4.399   1.675  -0.675  1.00  0.00     0.127 C 
HETATM   30  C24 UNK     1       5.470   1.814   0.399  1.00  0.00     0.040 C 
BRANCH  29  31
HETATM   31  C22 UNK     1       4.370   2.901  -1.590  1.00  0.00     0.027 C 
HETATM   32  C27 UNK     1       3.280   2.805  -2.649  1.00  0.00     0.007 C 
ENDBRANCH  29  31
ENDBRANCH  28  29
ENDBRANCH  26  28
ENDBRANCH  10  26
BRANCH   4  33
HETATM   33  C12 UNK     1      -4.009  -2.520   1.222  1.00  0.00     0.270 C 
HETATM   34  O5  UNK     1      -4.042  -2.755   0.022  1.00  0.00    -0.264 OA
BRANCH  33  35
HETATM   35  O2  UNK     1      -4.986  -2.804   2.130  1.00  0.00    -0.326 OA
HETATM   36  C21 UNK     1      -6.153  -3.440   1.598  1.00  0.00     0.213 C 
ENDBRANCH  33  35
ENDBRANCH   4  33
TORSDOF 7
