REMARK  4 active torsions:
REMARK  status: ('A' for Active; 'I' for Inactive)
REMARK    1  A    between atoms: C14_20  and  N1_6 
REMARK    2  A    between atoms: C3_9  and  C8_14 
REMARK    3  A    between atoms: C10_16  and  C8_14 
REMARK    4  A    between atoms: C11_17  and  C9_15 
ROOT
HETATM    1  O3  UNK     1      -1.283   1.512   0.403  1.00  0.00    -0.288 OA
HETATM    2  C8  UNK     1      -0.051   1.399   0.493  1.00  0.00     0.182 C 
ENDROOT
BRANCH   2   3
HETATM    3  C10 UNK     1       0.582   0.951   1.781  1.00  0.00     0.056 C 
HETATM    4  C11 UNK     1      -0.073   0.127   2.613  1.00  0.00     0.015 C 
BRANCH   4   5
HETATM    5  C9  UNK     1      -1.424  -0.406   2.368  1.00  0.00    -0.034 A 
HETATM    6  C12 UNK     1      -1.674  -1.184   1.238  1.00  0.00     0.047 A 
HETATM    7  C14 UNK     1      -2.954  -1.688   1.007  1.00  0.00     0.103 A 
HETATM    8  C16 UNK     1      -3.984  -1.414   1.907  1.00  0.00     0.036 A 
HETATM    9  C15 UNK     1      -3.735  -0.636   3.037  1.00  0.00     0.003 A 
HETATM   10  C13 UNK     1      -2.455  -0.132   3.268  1.00  0.00     0.011 A 
BRANCH   7  11
HETATM   11  N1  UNK     1      -3.209  -2.479  -0.144  1.00  0.00    -0.116 N 
HETATM   12  O4  UNK     1      -4.367  -2.923  -0.333  1.00  0.00    -0.532 OA
HETATM   13  O5  UNK     1      -2.268  -2.714  -0.941  1.00  0.00    -0.532 OA
ENDBRANCH   7  11
ENDBRANCH   4   5
ENDBRANCH   2   3
BRANCH   2  14
HETATM   14  C3  UNK     1       0.813   1.727  -0.630  1.00  0.00     0.017 A 
HETATM   15  C4  UNK     1       2.042   1.078  -0.771  1.00  0.00     0.055 A 
HETATM   16  C1  UNK     1       2.827   1.422  -1.853  1.00  0.00     0.105 A 
HETATM   17  O1  UNK     1       4.048   0.900  -2.151  1.00  0.00    -0.323 OA
HETATM   18  C2  UNK     1       2.425   2.368  -2.768  1.00  0.00     0.105 A 
HETATM   19  C7  UNK     1       4.370   1.624  -3.357  1.00  0.00     0.352 A 
HETATM   20  O2  UNK     1       3.344   2.557  -3.754  1.00  0.00    -0.323 OA
HETATM   21  C5  UNK     1       1.216   3.022  -2.652  1.00  0.00     0.040 A 
HETATM   22  C6  UNK     1       0.402   2.693  -1.565  1.00  0.00     0.018 A 
ENDBRANCH   2  14
TORSDOF 4
