REMARK  4 active torsions:
REMARK  status: ('A' for Active; 'I' for Inactive)
REMARK       I    between atoms: C10_17  and  N1_6 
REMARK    1  A    between atoms: N1_6  and  N2_7 
REMARK    2  A    between atoms: C1_8  and  C2_9 
REMARK    3  A    between atoms: C10_17  and  C6_13 
REMARK    4  A    between atoms: C12_19  and  C18_25 
ROOT
HETATM    1  N2  UNK     1       0.374   0.241  -0.075  1.00  0.00    -0.183 NA
HETATM    2  C18 UNK     1      -0.584  -0.255  -0.789  1.00  0.00     0.156 C 
ENDROOT
BRANCH   1   3
HETATM    3  N1  UNK     1       1.405   0.737  -0.802  1.00  0.00    -0.243 N 
HETATM    4  C10 UNK     1       2.483   1.292  -0.130  1.00  0.00     0.272 C 
HETATM    5  O2  UNK     1       2.550   1.356   1.098  1.00  0.00    -0.266 OA
HETATM    6  H14 UNK     1       1.354   0.658  -1.812  1.00  0.00     0.192 HD
BRANCH   4   7
HETATM    7  C6  UNK     1       3.574   1.783  -0.983  1.00  0.00     0.041 A 
HETATM    8  C5  UNK     1       3.410   2.229  -2.307  1.00  0.00     0.032 A 
HETATM    9  C2  UNK     1       4.613   2.628  -2.848  1.00  0.00    -0.013 A 
HETATM   10  S1  UNK     1       5.905   2.452  -1.739  1.00  0.00    -0.105 SA
HETATM   11  C7  UNK     1       4.857   1.841  -0.530  1.00  0.00     0.067 A 
BRANCH   9  12
HETATM   12  C1  UNK     1       4.883   3.158  -4.201  1.00  0.00     0.017 C 
HETATM   13  C3  UNK     1       4.551   2.146  -5.321  1.00  0.00     0.015 C 
HETATM   14  C4  UNK     1       4.151   4.490  -4.483  1.00  0.00     0.015 C 
ENDBRANCH   9  12
ENDBRANCH   4   7
ENDBRANCH   1   3
BRANCH   2  15
HETATM   15  C12 UNK     1      -1.786  -0.839  -0.194  1.00  0.00     0.056 A 
HETATM   16  C11 UNK     1      -2.021  -0.920   1.264  1.00  0.00     0.198 A 
HETATM   17  O3  UNK     1      -1.213  -0.495   2.079  1.00  0.00    -0.286 OA
HETATM   18  C8  UNK     1      -3.291  -1.545   1.680  1.00  0.00     0.050 A 
HETATM   19  C13 UNK     1      -3.611  -1.674   3.033  1.00  0.00     0.042 A 
HETATM   20  C9  UNK     1      -4.171  -2.008   0.701  1.00  0.00     0.089 A 
HETATM   21  C16 UNK     1      -4.819  -2.269   3.401  1.00  0.00     0.035 A 
HETATM   22 Cl1  UNK     1      -5.223  -2.433   5.066  1.00  0.00    -0.084 Cl
HETATM   23  C17 UNK     1      -5.700  -2.732   2.423  1.00  0.00     0.026 A 
HETATM   24  C14 UNK     1      -5.378  -2.602   1.071  1.00  0.00     0.040 A 
HETATM   25  O1  UNK     1      -3.908  -1.908  -0.644  1.00  0.00    -0.321 OA
HETATM   26  C15 UNK     1      -2.720  -1.325  -1.018  1.00  0.00     0.159 A 
ENDBRANCH   2  15
TORSDOF 4
