REMARK  7 active torsions:
REMARK  status: ('A' for Active; 'I' for Inactive)
REMARK    1  A    between atoms: C14_21  and  O1_1 
REMARK    2  A    between atoms: C2_9  and  O1_1 
REMARK    3  A    between atoms: C15_22  and  N1_6 
REMARK    4  A    between atoms: C1_8  and  C8_15 
REMARK    5  A    between atoms: C14_21  and  C5_12 
REMARK    6  A    between atoms: C11_18  and  C9_16 
REMARK    7  A    between atoms: C10_17  and  C11_18 
ROOT
HETATM    1  N2  UNK     1      -6.650  -2.945   1.589  1.00  0.00    -0.191 NA
HETATM    2  C8  UNK     1      -3.836  -2.022  -0.281  1.00  0.00     0.038 C 
HETATM    3  C10 UNK     1      -4.446  -1.778   0.905  1.00  0.00     0.096 C 
HETATM    4  C23 UNK     1      -5.660  -2.424   1.282  1.00  0.00     0.103 C 
ENDROOT
BRANCH   3   5
HETATM    5  C11 UNK     1      -3.822  -0.736   1.785  1.00  0.00     0.202 C 
HETATM    6  O2  UNK     1      -4.103   0.455   1.702  1.00  0.00    -0.286 OA
BRANCH   5   7
HETATM    7  C9  UNK     1      -2.849  -1.167   2.810  1.00  0.00     0.015 A 
HETATM    8  C18 UNK     1      -2.543  -2.511   2.927  1.00  0.00     0.015 A 
HETATM    9  C20 UNK     1      -1.623  -2.917   3.894  1.00  0.00     0.001 A 
HETATM   10  C22 UNK     1      -1.026  -1.972   4.728  1.00  0.00     0.000 A 
HETATM   11  C21 UNK     1      -1.347  -0.621   4.596  1.00  0.00     0.001 A 
HETATM   12  C19 UNK     1      -2.267  -0.215   3.628  1.00  0.00     0.015 A 
ENDBRANCH   5   7
ENDBRANCH   3   5
BRANCH   2  13
HETATM   13  C1  UNK     1      -2.601  -1.416  -0.753  1.00  0.00    -0.035 A 
HETATM   14  C3  UNK     1      -2.642  -0.239  -1.501  1.00  0.00     0.014 A 
HETATM   15  C6  UNK     1      -1.457   0.341  -1.953  1.00  0.00     0.038 A 
HETATM   16  C2  UNK     1      -0.231  -0.255  -1.657  1.00  0.00     0.079 A 
HETATM   17  C7  UNK     1      -0.190  -1.432  -0.909  1.00  0.00     0.038 A 
HETATM   18  C4  UNK     1      -1.375  -2.012  -0.457  1.00  0.00     0.014 A 
BRANCH  16  19
HETATM   19  O1  UNK     1       0.924   0.313  -2.098  1.00  0.00    -0.275 OA
BRANCH  19  20
HETATM   20  C14 UNK     1       1.487   1.236  -1.213  1.00  0.00     0.298 C 
HETATM   21  O3  UNK     1       1.022   1.558  -0.130  1.00  0.00    -0.259 OA
BRANCH  20  22
HETATM   22  C5  UNK     1       2.741   1.810  -1.763  1.00  0.00     0.040 A 
HETATM   23  C12 UNK     1       3.089   3.100  -1.422  1.00  0.00     0.020 A 
HETATM   24  C16 UNK     1       4.268   3.639  -1.937  1.00  0.00     0.037 A 
HETATM   25  C15 UNK     1       5.072   2.876  -2.783  1.00  0.00     0.102 A 
HETATM   26  C17 UNK     1       4.698   1.573  -3.113  1.00  0.00     0.037 A 
HETATM   27  C13 UNK     1       3.520   1.034  -2.597  1.00  0.00     0.020 A 
BRANCH  25  28
HETATM   28  N1  UNK     1       6.272   3.424  -3.308  1.00  0.00    -0.116 N 
HETATM   29  O4  UNK     1       6.590   4.598  -2.999  1.00  0.00    -0.532 OA
HETATM   30  O5  UNK     1       6.982   2.721  -4.067  1.00  0.00    -0.532 OA
ENDBRANCH  25  28
ENDBRANCH  20  22
ENDBRANCH  19  20
ENDBRANCH  16  19
ENDBRANCH   2  13
TORSDOF 7
