REMARK  5 active torsions:
REMARK  status: ('A' for Active; 'I' for Inactive)
REMARK    1  A    between atoms: C17_23  and  O2_5 
REMARK    2  A    between atoms: C19_25  and  O2_5 
REMARK    3  A    between atoms: C16_22  and  O3_6 
REMARK    4  A    between atoms: C7_13  and  C9_15 
REMARK    5  A    between atoms: C11_17  and  C17_23 
ROOT
HETATM    1  C9  UNK     1      -0.087   0.021   2.319  1.00  0.00    -0.035 A 
HETATM    2  C11 UNK     1       1.323   1.334   0.886  1.00  0.00     0.000 A 
HETATM    3  C12 UNK     1       0.818   0.092   1.271  1.00  0.00     0.023 A 
HETATM    4  C15 UNK     1      -0.498   1.161   2.992  1.00  0.00     0.014 A 
HETATM    5  C16 UNK     1       0.918   2.489   1.554  1.00  0.00     0.076 A 
HETATM    6  C18 UNK     1       0.007   2.403   2.607  1.00  0.00     0.038 A 
ENDROOT
BRANCH   1   7
HETATM    7  C7  UNK     1      -0.618  -1.289   2.727  1.00  0.00     0.022 C 
HETATM    8  C4  UNK     1      -1.735  -1.860   2.257  1.00  0.00    -0.006 C 
HETATM    9  C2  UNK     1      -2.234  -3.199   2.709  1.00  0.00     0.047 C 
HETATM   10  C6  UNK     1      -2.535  -1.130   1.230  1.00  0.00     0.189 C 
HETATM   11  C1  UNK     1      -3.730  -3.150   2.994  1.00  0.00     0.044 C 
HETATM   12  C3  UNK     1      -4.487  -2.596   1.817  1.00  0.00    -0.044 A 
HETATM   13  C5  UNK     1      -3.913  -1.625   0.980  1.00  0.00     0.021 A 
HETATM   14  C8  UNK     1      -5.805  -3.010   1.578  1.00  0.00     0.008 A 
HETATM   15  C10 UNK     1      -4.646  -1.094  -0.089  1.00  0.00     0.016 A 
HETATM   16  C14 UNK     1      -5.951  -1.528  -0.323  1.00  0.00     0.001 A 
HETATM   17  C13 UNK     1      -6.530  -2.482   0.510  1.00  0.00     0.001 A 
HETATM   18  O1  UNK     1      -2.092  -0.171   0.609  1.00  0.00    -0.287 OA
ENDBRANCH   1   7
BRANCH   2  19
HETATM   19  C17 UNK     1       2.298   1.408  -0.243  1.00  0.00     0.217 C 
BRANCH  19  20
HETATM   20  O2  UNK     1       1.590   1.576  -1.465  1.00  0.00    -0.343 OA
BRANCH  20  21
HETATM   21  C19 UNK     1       2.340   1.626  -2.611  1.00  0.00     0.112 A 
HETATM   22  C21 UNK     1       2.628   0.453  -3.302  1.00  0.00     0.070 A 
HETATM   23 Cl1  UNK     1       2.058  -1.078  -2.744  1.00  0.00    -0.081 Cl
HETATM   24  C23 UNK     1       3.392   0.504  -4.468  1.00  0.00     0.050 A 
HETATM   25  C25 UNK     1       3.865   1.728  -4.939  1.00  0.00     0.037 A 
HETATM   26  C24 UNK     1       3.574   2.902  -4.243  1.00  0.00     0.050 A 
HETATM   27 Cl3  UNK     1       4.809   1.791  -6.376  1.00  0.00    -0.084 Cl
HETATM   28  C22 UNK     1       2.810   2.851  -3.077  1.00  0.00     0.070 A 
HETATM   29 Cl2  UNK     1       2.467   4.321  -2.240  1.00  0.00    -0.081 Cl
ENDBRANCH  20  21
ENDBRANCH  19  20
ENDBRANCH   2  19
BRANCH   5  30
HETATM   30  O3  UNK     1       1.405   3.710   1.193  1.00  0.00    -0.355 OA
HETATM   31  C20 UNK     1       0.937   4.838   1.930  1.00  0.00     0.210 C 
ENDBRANCH   5  30
TORSDOF 5
