REMARK  8 active torsions:
REMARK  status: ('A' for Active; 'I' for Inactive)
REMARK    1  A    between atoms: C10_16  and  O1_1 
REMARK    2  A    between atoms: C2_8  and  O1_1 
REMARK    3  A    between atoms: C12_18  and  O3_3 
REMARK    4  A    between atoms: C5_11  and  O3_3 
REMARK    5  A    between atoms: C10_16  and  C13_19 
REMARK    6  A    between atoms: C12_18  and  C15_21 
REMARK    7  A    between atoms: C13_19  and  C14_20 
REMARK    8  A    between atoms: C15_21  and  C16_22 
ROOT
HETATM    1  O2  UNK     1      -5.209  -1.789   0.273  1.00  0.00    -0.275 OA
HETATM    2  O4  UNK     1      -7.160  -2.052   1.434  1.00  0.00    -0.260 OA
HETATM    3  C1  UNK     1      -3.115  -1.512   1.500  1.00  0.00     0.037 A 
HETATM    4  C2  UNK     1      -1.727  -1.328   1.437  1.00  0.00     0.085 A 
HETATM    5  C3  UNK     1      -3.812  -1.603   0.294  1.00  0.00     0.095 A 
HETATM    6  C4  UNK     1      -3.868  -1.614   2.758  1.00  0.00    -0.040 A 
HETATM    7  C5  UNK     1      -1.795  -1.334  -0.986  1.00  0.00     0.074 A 
HETATM    8  C6  UNK     1      -1.073  -1.239   0.202  1.00  0.00     0.074 A 
HETATM    9  C7  UNK     1      -3.174  -1.516  -0.944  1.00  0.00     0.075 A 
HETATM   10  C8  UNK     1      -5.196  -1.790   2.707  1.00  0.00     0.090 A 
HETATM   11  C9  UNK     1      -3.200  -1.526   4.101  1.00  0.00     0.049 C 
HETATM   12  C11 UNK     1      -5.945  -1.888   1.443  1.00  0.00     0.288 A 
ENDROOT
BRANCH   4  13
HETATM   13  O1  UNK     1      -0.935  -1.223   2.542  1.00  0.00    -0.343 OA
BRANCH  13  14
HETATM   14  C10 UNK     1      -0.194  -0.015   2.694  1.00  0.00     0.259 C 
BRANCH  14  15
HETATM   15  C13 UNK     1       1.292  -0.316   2.719  1.00  0.00     0.183 C 
HETATM   16  O5  UNK     1       1.730  -1.367   3.182  1.00  0.00    -0.290 OA
BRANCH  15  17
HETATM   17  C14 UNK     1       2.238   0.696   2.168  1.00  0.00     0.012 A 
HETATM   18  C17 UNK     1       3.419   0.260   1.610  1.00  0.00     0.016 A 
HETATM   19  C23 UNK     1       4.304   1.207   1.092  1.00  0.00     0.007 A 
HETATM   20  C19 UNK     1       3.984   2.563   1.147  1.00  0.00    -0.062 A 
HETATM   21  C24 UNK     1       2.780   2.974   1.719  1.00  0.00     0.007 A 
HETATM   22  C27 UNK     1       4.931   3.575   0.596  1.00  0.00     0.048 C 
HETATM   23  C18 UNK     1       1.895   2.028   2.236  1.00  0.00     0.016 A 
ENDBRANCH  15  17
ENDBRANCH  14  15
ENDBRANCH  13  14
ENDBRANCH   4  13
BRANCH   7  24
HETATM   24  O3  UNK     1      -1.154  -1.247  -2.183  1.00  0.00    -0.343 OA
BRANCH  24  25
HETATM   25  C12 UNK     1       0.029  -0.449  -2.230  1.00  0.00     0.259 C 
BRANCH  25  26
HETATM   26  C15 UNK     1       0.192   0.157  -3.610  1.00  0.00     0.183 C 
HETATM   27  O6  UNK     1      -0.602  -0.081  -4.517  1.00  0.00    -0.290 OA
BRANCH  26  28
HETATM   28  C16 UNK     1       1.350   1.062  -3.863  1.00  0.00     0.012 A 
HETATM   29  C20 UNK     1       1.496   1.612  -5.117  1.00  0.00     0.016 A 
HETATM   30  C25 UNK     1       2.578   2.459  -5.354  1.00  0.00     0.007 A 
HETATM   31  C22 UNK     1       3.486   2.735  -4.331  1.00  0.00    -0.062 A 
HETATM   32  C28 UNK     1       4.644   3.639  -4.586  1.00  0.00     0.048 C 
HETATM   33  C26 UNK     1       3.311   2.162  -3.071  1.00  0.00     0.007 A 
HETATM   34  C21 UNK     1       2.229   1.314  -2.834  1.00  0.00     0.016 A 
ENDBRANCH  26  28
ENDBRANCH  25  26
ENDBRANCH  24  25
ENDBRANCH   7  24
TORSDOF 8
