REMARK  7 active torsions:
REMARK  status: ('A' for Active; 'I' for Inactive)
REMARK    1  A    between atoms: C12_21  and  O2_4 
REMARK    2  A    between atoms: C22_31  and  O2_4 
REMARK    3  A    between atoms: C11_20  and  O3_5 
REMARK       I    between atoms: C10_19  and  N1_9 
REMARK    4  A    between atoms: C3_12  and  N1_9 
REMARK    5  A    between atoms: C1_10  and  C4_13 
REMARK    6  A    between atoms: C12_21  and  C2_11 
REMARK    7  A    between atoms: C10_19  and  C6_15 
ROOT
HETATM    1  S1  UNK     1      -0.207   0.207   2.951  1.00  0.00    -0.082 SA
HETATM    2  C1  UNK     1      -2.389  -0.992   2.320  1.00  0.00     0.001 A 
HETATM    3  C2  UNK     1      -1.760  -0.643   1.090  1.00  0.00     0.085 A 
HETATM    4  C3  UNK     1      -0.585   0.003   1.307  1.00  0.00     0.094 A 
HETATM    5  C8  UNK     1      -1.652  -0.588   3.411  1.00  0.00     0.065 A 
ENDROOT
BRANCH   4   6
HETATM    6  N1  UNK     1       0.347   0.518   0.402  1.00  0.00    -0.316 N 
HETATM    7  C10 UNK     1       1.529   1.168   0.726  1.00  0.00     0.262 C 
HETATM    8  O4  UNK     1       1.987   1.418   1.840  1.00  0.00    -0.267 OA
HETATM    9  H2  UNK     1       0.110   0.366  -0.575  1.00  0.00     0.169 HD
BRANCH   7  10
HETATM   10  C6  UNK     1       2.273   1.581  -0.471  1.00  0.00     0.108 A 
HETATM   11  C16 UNK     1       1.591   1.926  -1.738  1.00  0.00     0.304 A 
HETATM   12  O1  UNK     1       2.405   2.304  -2.803  1.00  0.00    -0.271 OA
HETATM   13  O6  UNK     1       0.371   1.883  -1.851  1.00  0.00    -0.259 OA
HETATM   14  C7  UNK     1       3.808   2.356  -2.684  1.00  0.00     0.123 A 
HETATM   15  C11 UNK     1       4.538   2.745  -3.805  1.00  0.00     0.102 A 
HETATM   16  C5  UNK     1       4.428   2.026  -1.484  1.00  0.00     0.002 A 
HETATM   17  C17 UNK     1       5.927   2.805  -3.719  1.00  0.00     0.040 A 
HETATM   18  C18 UNK     1       6.568   2.478  -2.522  1.00  0.00     0.004 A 
HETATM   19  C13 UNK     1       5.822   2.089  -1.405  1.00  0.00     0.014 A 
HETATM   20  C9  UNK     1       3.605   1.629  -0.352  1.00  0.00     0.037 A 
BRANCH  15  21
HETATM   21  O3  UNK     1       3.919   3.064  -4.973  1.00  0.00    -0.353 OA
HETATM   22  C24 UNK     1       3.698   2.005  -5.903  1.00  0.00     0.210 C 
ENDBRANCH  15  21
ENDBRANCH   7  10
ENDBRANCH   4   6
BRANCH   3  23
HETATM   23  C12 UNK     1      -2.277  -0.925  -0.227  1.00  0.00     0.297 C 
HETATM   24  O5  UNK     1      -1.702  -0.606  -1.277  1.00  0.00    -0.259 OA
BRANCH  23  25
HETATM   25  O2  UNK     1      -3.485  -1.589  -0.222  1.00  0.00    -0.318 OA
BRANCH  25  26
HETATM   26  C22 UNK     1      -4.056  -1.900  -1.498  1.00  0.00     0.174 C 
HETATM   27  C23 UNK     1      -5.369  -2.623  -1.287  1.00  0.00     0.034 C 
ENDBRANCH  25  26
ENDBRANCH  23  25
ENDBRANCH   3  23
BRANCH   2  28
HETATM   28  C4  UNK     1      -3.640  -1.681   2.504  1.00  0.00    -0.003 A 
HETATM   29  C14 UNK     1      -3.708  -3.072   2.593  1.00  0.00     0.045 A 
HETATM   30 Cl1  UNK     1      -2.299  -4.068   2.488  1.00  0.00    -0.083 Cl
HETATM   31  C19 UNK     1      -4.942  -3.699   2.769  1.00  0.00     0.024 A 
HETATM   32  C21 UNK     1      -6.107  -2.936   2.855  1.00  0.00     0.002 A 
HETATM   33  C20 UNK     1      -6.038  -1.546   2.766  1.00  0.00     0.001 A 
HETATM   34  C15 UNK     1      -4.804  -0.918   2.591  1.00  0.00     0.014 A 
ENDBRANCH   2  28
TORSDOF 7
