REMARK  5 active torsions:
REMARK  status: ('A' for Active; 'I' for Inactive)
REMARK       I    between atoms: C5_17  and  N1_9 
REMARK    1  A    between atoms: C6_18  and  N2_10 
REMARK    2  A    between atoms: C10_22  and  N3_11 
REMARK    3  A    between atoms: C6_18  and  N3_11 
REMARK    4  A    between atoms: C19_31  and  N4_12 
REMARK    5  A    between atoms: C5_17  and  C7_19 
ROOT
HETATM    1  O1  UNK     1       0.939  -2.445   3.358  1.00  0.00    -0.267 OA
HETATM    2  N1  UNK     1       0.983  -0.252   2.620  1.00  0.00    -0.344 N 
HETATM    3  N2  UNK     1       2.640   1.681   1.421  1.00  0.00    -0.355 N 
HETATM    4  C1  UNK     1       0.372   0.919   1.970  1.00  0.00     0.146 C 
HETATM    5  C2  UNK     1       2.312   0.001   3.187  1.00  0.00     0.146 C 
HETATM    6  C3  UNK     1       1.296   1.469   0.889  1.00  0.00     0.145 C 
HETATM    7  C4  UNK     1       3.251   0.554   2.118  1.00  0.00     0.145 C 
HETATM    8  C5  UNK     1       0.369  -1.503   2.804  1.00  0.00     0.262 C 
ENDROOT
BRANCH   3   9
HETATM    9  C6  UNK     1       3.317   2.835   1.204  1.00  0.00     0.174 C 
HETATM   10  S2  UNK     1       4.372   3.420   2.369  1.00  0.00    -0.041 SA
BRANCH   9  11
HETATM   11  N3  UNK     1       3.084   3.549   0.040  1.00  0.00    -0.333 N 
HETATM   12  H9  UNK     1       3.212   4.554   0.135  1.00  0.00     0.168 HD
BRANCH  11  13
HETATM   13  C10 UNK     1       2.724   3.142  -1.244  1.00  0.00     0.036 A 
HETATM   14  C12 UNK     1       3.097   1.886  -1.710  1.00  0.00     0.067 A 
HETATM   15  C15 UNK     1       2.725   1.499  -2.999  1.00  0.00     0.092 A 
HETATM   16  C13 UNK     1       1.988   2.330  -3.843  1.00  0.00     0.004 A 
HETATM   17  O2  UNK     1       3.132   0.215  -3.413  1.00  0.00    -0.275 OA
HETATM   18  C18 UNK     1       1.621   3.592  -3.356  1.00  0.00     0.017 A 
HETATM   19  C20 UNK     1       1.640   1.840  -5.184  1.00  0.00    -0.043 A 
HETATM   20  C14 UNK     1       1.987   3.994  -2.066  1.00  0.00     0.030 A 
HETATM   21  C22 UNK     1       2.040   0.615  -5.552  1.00  0.00     0.090 A 
HETATM   22  C23 UNK     1       0.848   2.710  -6.116  1.00  0.00     0.049 C 
HETATM   23  C24 UNK     1       2.818  -0.274  -4.672  1.00  0.00     0.288 A 
HETATM   24  O3  UNK     1       3.167  -1.389  -5.043  1.00  0.00    -0.260 OA
ENDBRANCH  11  13
ENDBRANCH   9  11
ENDBRANCH   3   9
BRANCH   8  25
HETATM   25  C7  UNK     1      -0.993  -1.660   2.306  1.00  0.00     0.096 A 
HETATM   26  S1  UNK     1      -2.283  -1.293   3.354  1.00  0.00    -0.082 SA
HETATM   27  C11 UNK     1      -3.460  -1.687   2.158  1.00  0.00     0.020 A 
HETATM   28  C9  UNK     1      -2.856  -2.098   0.965  1.00  0.00     0.004 A 
HETATM   29  C17 UNK     1      -4.861  -1.628   2.292  1.00  0.00     0.055 A 
HETATM   30  C16 UNK     1      -3.693  -2.458  -0.119  1.00  0.00     0.017 A 
HETATM   31  C8  UNK     1      -1.425  -2.075   1.073  1.00  0.00     0.068 A 
HETATM   32  C21 UNK     1      -5.083  -2.400   0.011  1.00  0.00     0.037 A 
HETATM   33  C19 UNK     1      -5.659  -1.989   1.205  1.00  0.00     0.104 A 
HETATM   34 Cl1  UNK     1      -0.384  -2.522  -0.219  1.00  0.00    -0.082 Cl
BRANCH  33  35
HETATM   35  N4  UNK     1      -7.073  -1.935   1.324  1.00  0.00    -0.116 N 
HETATM   36  O4  UNK     1      -7.779  -2.263   0.340  1.00  0.00    -0.532 OA
HETATM   37  O5  UNK     1      -7.578  -1.562   2.410  1.00  0.00    -0.532 OA
ENDBRANCH  33  35
ENDBRANCH   8  25
TORSDOF 5
