REMARK  3 active torsions:
REMARK  status: ('A' for Active; 'I' for Inactive)
REMARK    1  A    between atoms: C9_17  and  N1_7 
REMARK    2  A    between atoms: C1_9  and  C3_11 
REMARK    3  A    between atoms: C13_21  and  C7_15 
ROOT
HETATM    1  O1  UNK     1      -0.631  -0.104  -3.035  1.00  0.00    -0.269 OA
HETATM    2  O2  UNK     1       1.494   0.871  -2.858  1.00  0.00    -0.286 OA
HETATM    3  O3  UNK     1       1.035   1.436   1.144  1.00  0.00    -0.287 OA
HETATM    4  N2  UNK     1      -4.602  -0.750  -0.385  1.00  0.00    -0.191 NA
HETATM    5  C1  UNK     1      -1.135   0.100  -0.220  1.00  0.00     0.109 C 
HETATM    6  C2  UNK     1       0.136   0.582  -0.886  1.00  0.00     0.065 A 
HETATM    7  C4  UNK     1      -2.198  -0.293  -1.238  1.00  0.00     0.086 C 
HETATM    8  C5  UNK     1       0.337   0.460  -2.212  1.00  0.00     0.204 A 
HETATM    9  C6  UNK     1       1.180   1.237  -0.054  1.00  0.00     0.197 A 
HETATM   10  C8  UNK     1       2.409   1.643  -0.751  1.00  0.00     0.049 A 
HETATM   11  C9  UNK     1      -1.909  -0.382  -2.555  1.00  0.00     0.162 C 
HETATM   12  C11 UNK     1       2.501   1.436  -2.123  1.00  0.00     0.092 A 
HETATM   13  C15 UNK     1       3.468   2.229  -0.053  1.00  0.00     0.018 A 
HETATM   14  C17 UNK     1       3.656   1.813  -2.810  1.00  0.00     0.038 A 
HETATM   15  C18 UNK     1      -3.525  -0.545  -0.767  1.00  0.00     0.100 C 
HETATM   16  C19 UNK     1       4.622   2.605  -0.741  1.00  0.00     0.001 A 
HETATM   17  C20 UNK     1       4.716   2.398  -2.117  1.00  0.00     0.003 A 
ENDROOT
BRANCH   5  18
HETATM   18  C3  UNK     1      -0.844  -1.052   0.697  1.00  0.00    -0.029 A 
HETATM   19  C10 UNK     1      -0.323  -2.223   0.156  1.00  0.00     0.009 A 
HETATM   20  C14 UNK     1      -0.046  -3.307   0.990  1.00  0.00     0.001 A 
HETATM   21  C16 UNK     1      -0.292  -3.213   2.360  1.00  0.00     0.001 A 
HETATM   22  C12 UNK     1      -0.815  -2.036   2.896  1.00  0.00     0.017 A 
HETATM   23  C7  UNK     1      -1.092  -0.952   2.062  1.00  0.00     0.055 A 
BRANCH  23  24
HETATM   24  C13 UNK     1      -1.651   0.297   2.659  1.00  0.00     0.418 C 
HETATM   25  F1  UNK     1      -1.831   0.223   4.010  1.00  0.00    -0.166 F 
HETATM   26  F2  UNK     1      -0.863   1.394   2.463  1.00  0.00    -0.166 F 
HETATM   27  F3  UNK     1      -2.870   0.623   2.142  1.00  0.00    -0.166 F 
ENDBRANCH  23  24
ENDBRANCH   5  18
BRANCH  11  28
HETATM   28  N1  UNK     1      -2.796  -0.742  -3.532  1.00  0.00    -0.379 N 
HETATM   29  H8  UNK     1      -3.756  -0.971  -3.306  1.00  0.00     0.158 HD
HETATM   30  H9  UNK     1      -2.477  -0.779  -4.492  1.00  0.00     0.158 HD
ENDBRANCH  11  28
TORSDOF 3
