REMARK  3 active torsions:
REMARK  status: ('A' for Active; 'I' for Inactive)
REMARK    1  A    between atoms: C5_11  and  N1_6 
REMARK       I    between atoms: C6_12  and  N1_6 
REMARK    2  A    between atoms: C2_8  and  C6_12 
REMARK    3  A    between atoms: C5_11  and  C7_13 
ROOT
HETATM    1 Br1  UNK     1       5.686   3.505  -1.649  1.00  0.00    -0.051 Br
HETATM    2  O1  UNK     1       0.459   0.544  -2.498  1.00  0.00    -0.274 OA
HETATM    3  O3  UNK     1      -1.301  -0.653  -1.667  1.00  0.00    -0.259 OA
HETATM    4  C1  UNK     1       2.205   1.313  -0.992  1.00  0.00     0.000 A 
HETATM    5  C2  UNK     1       0.341   0.044  -0.107  1.00  0.00     0.108 A 
HETATM    6  C3  UNK     1       1.671   1.226  -2.273  1.00  0.00     0.089 A 
HETATM    7  C4  UNK     1       1.492   0.690   0.112  1.00  0.00     0.037 A 
HETATM    8  C8  UNK     1       3.409   1.997  -0.809  1.00  0.00     0.033 A 
HETATM    9  C9  UNK     1      -0.246  -0.062  -1.462  1.00  0.00     0.304 A 
HETATM   10  C10 UNK     1       2.304   1.801  -3.373  1.00  0.00     0.039 A 
HETATM   11  C11 UNK     1       4.056   2.580  -1.903  1.00  0.00     0.011 A 
HETATM   12  C12 UNK     1       3.505   2.482  -3.182  1.00  0.00     0.022 A 
ENDROOT
BRANCH   5  13
HETATM   13  C6  UNK     1      -0.304  -0.551   1.069  1.00  0.00     0.258 C 
HETATM   14  O2  UNK     1      -0.168  -0.050   2.184  1.00  0.00    -0.267 OA
HETATM   15  N1  UNK     1      -1.038  -1.683   0.766  1.00  0.00    -0.352 N 
HETATM   16  H4  UNK     1      -1.074  -2.028  -0.188  1.00  0.00     0.163 HD
BRANCH  15  17
HETATM   17  C5  UNK     1      -1.760  -2.444   1.760  1.00  0.00     0.169 C 
BRANCH  17  18
HETATM   18  C7  UNK     1      -3.183  -1.983   1.896  1.00  0.00     0.000 A 
HETATM   19  C13 UNK     1      -4.148  -1.958   0.932  1.00  0.00     0.017 A 
HETATM   20  C14 UNK     1      -5.378  -1.453   1.444  1.00  0.00     0.008 A 
HETATM   21  C15 UNK     1      -5.285  -1.119   2.777  1.00  0.00     0.050 A 
HETATM   22  S1  UNK     1      -3.720  -1.414   3.406  1.00  0.00    -0.105 SA
ENDBRANCH  17  18
ENDBRANCH  15  17
ENDBRANCH   5  13
TORSDOF 3
