REMARK  3 active torsions:
REMARK  status: ('A' for Active; 'I' for Inactive)
REMARK    1  A    between atoms: C9_13  and  O2_2 
REMARK    2  A    between atoms: C15_19  and  O4_4 
REMARK    3  A    between atoms: C3_7  and  C4_8 
ROOT
HETATM    1  O1  UNK     1       0.285  -1.031   0.297  1.00  0.00    -0.309 OA
HETATM    2  O3  UNK     1       0.952  -1.981   4.202  1.00  0.00    -0.287 OA
HETATM    3  C1  UNK     1       0.848  -2.712   1.958  1.00  0.00     0.048 A 
HETATM    4  C2  UNK     1       0.609  -2.319   0.642  1.00  0.00     0.093 A 
HETATM    5  C3  UNK     1       0.186  -0.083   1.304  1.00  0.00     0.090 A 
HETATM    6  C5  UNK     1       0.751  -1.707   3.027  1.00  0.00     0.187 A 
HETATM    7  C6  UNK     1       0.399  -0.336   2.605  1.00  0.00     0.093 A 
HETATM    8  C7  UNK     1       0.695  -3.252  -0.391  1.00  0.00     0.075 A 
HETATM    9  C8  UNK     1       1.174  -4.038   2.251  1.00  0.00     0.021 A 
HETATM   10  C9  UNK     1       1.021  -4.578  -0.103  1.00  0.00     0.070 A 
HETATM   11  C10 UNK     1       1.260  -4.970   1.215  1.00  0.00     0.038 A 
ENDROOT
BRANCH   5  12
HETATM   12  C4  UNK     1      -0.159   1.270   0.822  1.00  0.00    -0.002 A 
HETATM   13  C11 UNK     1       0.307   2.397   1.503  1.00  0.00     0.017 A 
HETATM   14  C13 UNK     1      -0.019   3.675   1.048  1.00  0.00     0.037 A 
HETATM   15  C15 UNK     1      -0.813   3.829  -0.088  1.00  0.00     0.065 A 
HETATM   16  C14 UNK     1      -1.280   2.706  -0.771  1.00  0.00     0.037 A 
HETATM   17  C12 UNK     1      -0.954   1.428  -0.316  1.00  0.00     0.017 A 
BRANCH  15  18
HETATM   18  O4  UNK     1      -1.131   5.076  -0.532  1.00  0.00    -0.361 OA
HETATM   19  H12 UNK     1      -0.725   5.734   0.059  1.00  0.00     0.217 HD
ENDBRANCH  15  18
ENDBRANCH   5  12
BRANCH  10  20
HETATM   20  O2  UNK     1       1.105  -5.491  -1.109  1.00  0.00    -0.356 OA
HETATM   21  C16 UNK     1       1.441  -6.829  -0.745  1.00  0.00     0.210 C 
ENDBRANCH  10  20
TORSDOF 3
