REMARK  5 active torsions:
REMARK  status: ('A' for Active; 'I' for Inactive)
REMARK    1  A    between atoms: C12_17  and  O3_3 
REMARK    2  A    between atoms: C16_21  and  O3_3 
REMARK    3  A    between atoms: C1_6  and  N1_5 
REMARK       I    between atoms: C6_11  and  N1_5 
REMARK    4  A    between atoms: C1_6  and  C2_7 
REMARK    5  A    between atoms: C6_11  and  C7_12 
ROOT
HETATM    1  O1  UNK     1       0.560   0.355  -1.581  1.00  0.00    -0.271 OA
HETATM    2  O4  UNK     1      -1.516  -0.593  -1.459  1.00  0.00    -0.259 OA
HETATM    3  C7  UNK     1      -0.487  -0.021   0.597  1.00  0.00     0.108 A 
HETATM    4  C8  UNK     1       1.714   0.983   0.464  1.00  0.00     0.002 A 
HETATM    5  C9  UNK     1       0.575   0.497   1.226  1.00  0.00     0.037 A 
HETATM    6  C10 UNK     1       1.680   0.900  -0.924  1.00  0.00     0.123 A 
HETATM    7  C11 UNK     1      -0.545  -0.119  -0.879  1.00  0.00     0.304 A 
HETATM    8  C12 UNK     1       2.738   1.348  -1.713  1.00  0.00     0.103 A 
HETATM    9  C13 UNK     1       2.843   1.530   1.078  1.00  0.00     0.014 A 
HETATM   10  C14 UNK     1       3.860   1.893  -1.092  1.00  0.00     0.040 A 
HETATM   11  C15 UNK     1       3.913   1.983   0.301  1.00  0.00     0.004 A 
ENDROOT
BRANCH   3  12
HETATM   12  C6  UNK     1      -1.586  -0.483   1.453  1.00  0.00     0.258 C 
HETATM   13  O2  UNK     1      -1.806   0.047   2.540  1.00  0.00    -0.267 OA
HETATM   14  N1  UNK     1      -2.292  -1.536   0.899  1.00  0.00    -0.348 N 
HETATM   15  H9  UNK     1      -1.995  -1.924   0.009  1.00  0.00     0.163 HD
BRANCH  14  16
HETATM   16  C1  UNK     1      -3.416  -2.163   1.556  1.00  0.00     0.025 C 
HETATM   17  C3  UNK     1      -3.941  -3.286   0.648  1.00  0.00     0.038 C 
HETATM   18  C4  UNK     1      -2.949  -2.776   2.884  1.00  0.00     0.038 C 
BRANCH  16  19
HETATM   19  C2  UNK     1      -4.547  -1.130   1.775  1.00  0.00     0.026 C 
HETATM   20  C5  UNK     1      -5.070  -0.468   0.505  1.00  0.00     0.007 C 
ENDBRANCH  16  19
ENDBRANCH  14  16
ENDBRANCH   3  12
BRANCH   8  21
HETATM   21  O3  UNK     1       2.691   1.262  -3.069  1.00  0.00    -0.349 OA
BRANCH  21  22
HETATM   22  C16 UNK     1       3.403   2.253  -3.809  1.00  0.00     0.171 C 
HETATM   23  C17 UNK     1       2.709   2.470  -5.137  1.00  0.00     0.034 C 
ENDBRANCH  21  22
ENDBRANCH   8  21
TORSDOF 5
