REMARK  5 active torsions:
REMARK  status: ('A' for Active; 'I' for Inactive)
REMARK    1  A    between atoms: C11_17  and  O2_2 
REMARK    2  A    between atoms: C17_23  and  O4_4 
REMARK    3  A    between atoms: C2_8  and  N1_6 
REMARK       I    between atoms: C7_13  and  N1_6 
REMARK    4  A    between atoms: C2_8  and  C6_12 
REMARK    5  A    between atoms: C3_9  and  C7_13 
ROOT
HETATM    1  O1  UNK     1       0.517   1.415  -2.494  1.00  0.00    -0.274 OA
HETATM    2  O5  UNK     1      -1.394   0.866  -1.367  1.00  0.00    -0.259 OA
HETATM    3  C1  UNK     1       2.643   1.434  -1.315  1.00  0.00     0.002 A 
HETATM    4  C3  UNK     1       0.619   0.853  -0.116  1.00  0.00     0.108 A 
HETATM    5  C4  UNK     1       1.911   1.613  -2.485  1.00  0.00     0.089 A 
HETATM    6  C5  UNK     1       1.944   1.040  -0.101  1.00  0.00     0.037 A 
HETATM    7  C8  UNK     1       4.024   1.639  -1.345  1.00  0.00     0.051 A 
HETATM    8  C9  UNK     1       2.520   1.990  -3.680  1.00  0.00     0.041 A 
HETATM    9  C10 UNK     1      -0.179   1.037  -1.349  1.00  0.00     0.304 A 
HETATM   10  C11 UNK     1       4.649   2.018  -2.537  1.00  0.00     0.069 A 
HETATM   11  C14 UNK     1       3.898   2.193  -3.702  1.00  0.00     0.039 A 
ENDROOT
BRANCH   4  12
HETATM   12  C7  UNK     1       0.005   0.456   1.157  1.00  0.00     0.258 C 
HETATM   13  O3  UNK     1       0.634  -0.204   1.982  1.00  0.00    -0.267 OA
HETATM   14  N1  UNK     1      -1.298   0.899   1.287  1.00  0.00    -0.352 N 
HETATM   15  H4  UNK     1      -1.726   1.454   0.552  1.00  0.00     0.163 HD
BRANCH  14  16
HETATM   16  C2  UNK     1      -2.109   0.630   2.453  1.00  0.00     0.161 C 
BRANCH  16  17
HETATM   17  C6  UNK     1      -2.869  -0.656   2.281  1.00  0.00    -0.040 A 
HETATM   18  C12 UNK     1      -2.298  -1.851   2.700  1.00  0.00     0.011 A 
HETATM   19  C15 UNK     1      -3.002  -3.044   2.539  1.00  0.00     0.037 A 
HETATM   20  C17 UNK     1      -4.271  -3.032   1.961  1.00  0.00     0.068 A 
HETATM   21  C16 UNK     1      -4.836  -1.827   1.543  1.00  0.00     0.037 A 
HETATM   22  C13 UNK     1      -4.132  -0.634   1.704  1.00  0.00     0.011 A 
BRANCH  20  23
HETATM   23  O4  UNK     1      -4.959  -4.197   1.805  1.00  0.00    -0.356 OA
HETATM   24  C19 UNK     1      -6.251  -4.113   1.207  1.00  0.00     0.210 C 
ENDBRANCH  20  23
ENDBRANCH  16  17
ENDBRANCH  14  16
ENDBRANCH   4  12
BRANCH  10  25
HETATM   25  O2  UNK     1       5.996   2.218  -2.563  1.00  0.00    -0.356 OA
HETATM   26  C18 UNK     1       6.570   2.603  -3.810  1.00  0.00     0.210 C 
ENDBRANCH  10  25
TORSDOF 5
