REMARK  4 active torsions:
REMARK  status: ('A' for Active; 'I' for Inactive)
REMARK    1  A    between atoms: C15_20  and  O2_2 
REMARK    2  A    between atoms: C1_6  and  N1_5 
REMARK       I    between atoms: C7_12  and  N1_5 
REMARK    3  A    between atoms: C1_6  and  C2_7 
REMARK    4  A    between atoms: C4_9  and  C7_12 
ROOT
HETATM    1  O3  UNK     1      -0.992  -0.191  -2.049  1.00  0.00    -0.267 OA
HETATM    2  N1  UNK     1      -1.327   1.138  -0.163  1.00  0.00    -0.352 N 
HETATM    3  C7  UNK     1      -0.578   0.573  -1.180  1.00  0.00     0.258 C 
HETATM    4  H4  UNK     1      -0.894   1.772   0.501  1.00  0.00     0.163 HD
ENDROOT
BRANCH   3   5
HETATM    5  C4  UNK     1       0.831   0.981  -1.144  1.00  0.00     0.108 A 
HETATM    6  C10 UNK     1       1.520   1.317   0.123  1.00  0.00     0.304 A 
HETATM    7  O1  UNK     1       2.858   1.690   0.027  1.00  0.00    -0.274 OA
HETATM    8  O4  UNK     1       0.945   1.271   1.205  1.00  0.00    -0.259 OA
HETATM    9  C5  UNK     1       3.528   1.745  -1.211  1.00  0.00     0.089 A 
HETATM   10  C12 UNK     1       4.867   2.128  -1.205  1.00  0.00     0.038 A 
HETATM   11  C3  UNK     1       2.861   1.425  -2.389  1.00  0.00    -0.001 A 
HETATM   12  C17 UNK     1       5.556   2.192  -2.415  1.00  0.00     0.003 A 
HETATM   13  C16 UNK     1       4.904   1.875  -3.608  1.00  0.00     0.001 A 
HETATM   14  C11 UNK     1       3.560   1.492  -3.598  1.00  0.00     0.014 A 
HETATM   15  C6  UNK     1       1.462   1.032  -2.323  1.00  0.00     0.037 A 
ENDBRANCH   3   5
BRANCH   2  16
HETATM   16  C1  UNK     1      -2.741   0.887   0.006  1.00  0.00     0.161 C 
BRANCH  16  17
HETATM   17  C2  UNK     1      -3.093  -0.280   0.876  1.00  0.00    -0.040 A 
HETATM   18  C8  UNK     1      -3.268  -0.096   2.244  1.00  0.00     0.011 A 
HETATM   19  C13 UNK     1      -3.596  -1.183   3.053  1.00  0.00     0.037 A 
HETATM   20  C15 UNK     1      -3.747  -2.451   2.491  1.00  0.00     0.068 A 
HETATM   21  C14 UNK     1      -3.570  -2.631   1.119  1.00  0.00     0.037 A 
HETATM   22  C9  UNK     1      -3.243  -1.543   0.310  1.00  0.00     0.011 A 
BRANCH  20  23
HETATM   23  O2  UNK     1      -4.067  -3.511   3.282  1.00  0.00    -0.356 OA
HETATM   24  C18 UNK     1      -4.206  -4.779   2.642  1.00  0.00     0.210 C 
ENDBRANCH  20  23
ENDBRANCH  16  17
ENDBRANCH   2  16
TORSDOF 4
