REMARK  2 active torsions:
REMARK  status: ('A' for Active; 'I' for Inactive)
REMARK    1  A    between atoms: C5_11  and  N1_5 
REMARK       I    between atoms: C6_12  and  N2_6 
REMARK    2  A    between atoms: C6_12  and  C7_13 
ROOT
HETATM    1  O1  UNK     1      -0.658   1.658  -3.271  1.00  0.00    -0.267 OA
HETATM    2  N1  UNK     1      -2.412  -0.983   0.664  1.00  0.00    -0.378 N 
HETATM    3  N2  UNK     1      -0.824   0.301  -1.387  1.00  0.00    -0.345 N 
HETATM    4  C1  UNK     1      -2.958   0.103  -0.155  1.00  0.00     0.143 C 
HETATM    5  C2  UNK     1      -1.083  -1.499   0.329  1.00  0.00     0.143 C 
HETATM    6  C3  UNK     1      -2.271   0.149  -1.518  1.00  0.00     0.146 C 
HETATM    7  C4  UNK     1      -0.202  -0.395  -0.256  1.00  0.00     0.146 C 
HETATM    8  C6  UNK     1      -0.136   1.075  -2.320  1.00  0.00     0.260 C 
ENDROOT
BRANCH   8   9
HETATM    9  C7  UNK     1       1.325   1.207  -2.140  1.00  0.00     0.108 A 
HETATM   10  C10 UNK     1       1.737   2.234  -1.388  1.00  0.00     0.037 A 
HETATM   11  C12 UNK     1       3.157   2.448  -1.153  1.00  0.00    -0.001 A 
HETATM   12  C15 UNK     1       4.073   1.570  -1.724  1.00  0.00     0.089 A 
HETATM   13  C17 UNK     1       3.632   3.506  -0.375  1.00  0.00     0.014 A 
HETATM   14  O2  UNK     1       3.633   0.491  -2.515  1.00  0.00    -0.274 OA
HETATM   15  C18 UNK     1       5.446   1.719  -1.539  1.00  0.00     0.038 A 
HETATM   16  C11 UNK     1       2.281   0.261  -2.757  1.00  0.00     0.304 A 
HETATM   17  O3  UNK     1       1.907  -0.681  -3.448  1.00  0.00    -0.259 OA
HETATM   18  C20 UNK     1       5.911   2.777  -0.761  1.00  0.00     0.003 A 
HETATM   19  C19 UNK     1       5.007   3.668  -0.180  1.00  0.00     0.001 A 
ENDBRANCH   8   9
BRANCH   2  20
HETATM   20  C5  UNK     1      -3.169  -1.546   1.689  1.00  0.00     0.030 A 
HETATM   21  C8  UNK     1      -4.133  -0.789   2.394  1.00  0.00     0.031 A 
HETATM   22  C13 UNK     1      -4.890  -1.353   3.421  1.00  0.00     0.026 A 
HETATM   23  C16 UNK     1      -4.705  -2.690   3.771  1.00  0.00     0.034 A 
HETATM   24  C14 UNK     1      -3.762  -3.464   3.095  1.00  0.00     0.026 A 
HETATM   25 Cl1  UNK     1      -5.639  -3.386   5.039  1.00  0.00    -0.084 Cl
HETATM   26  C9  UNK     1      -3.004  -2.900   2.068  1.00  0.00     0.031 A 
ENDBRANCH   2  20
TORSDOF 2
