REMARK  5 active torsions:
REMARK  status: ('A' for Active; 'I' for Inactive)
REMARK    1  A    between atoms: C12_17  and  O3_3 
REMARK    2  A    between atoms: C15_20  and  O4_4 
REMARK    3  A    between atoms: C3_8  and  C9_14 
REMARK    4  A    between atoms: C11_16  and  C8_13 
REMARK    5  A    between atoms: C13_18  and  C9_14 
ROOT
HETATM    1  C11 UNK     1      -0.820   0.569   1.178  1.00  0.00     0.015 C 
HETATM    2  C13 UNK     1      -0.303   0.989   0.014  1.00  0.00     0.056 C 
ENDROOT
BRANCH   2   3
HETATM    3  C9  UNK     1       0.871   1.927  -0.008  1.00  0.00     0.182 C 
HETATM    4  O5  UNK     1       1.042   2.743   0.910  1.00  0.00    -0.288 OA
BRANCH   3   5
HETATM    5  C3  UNK     1       1.814   1.837  -1.112  1.00  0.00     0.017 A 
HETATM    6  C6  UNK     1       2.029   0.600  -1.744  1.00  0.00     0.018 A 
HETATM    7  C5  UNK     1       2.930   0.491  -2.807  1.00  0.00     0.040 A 
HETATM    8  C2  UNK     1       3.592   1.635  -3.204  1.00  0.00     0.105 A 
HETATM    9  C1  UNK     1       3.382   2.845  -2.585  1.00  0.00     0.105 A 
HETATM   10  O2  UNK     1       4.499   1.721  -4.215  1.00  0.00    -0.323 OA
HETATM   11  O1  UNK     1       4.131   3.842  -3.131  1.00  0.00    -0.323 OA
HETATM   12  C4  UNK     1       2.498   2.980  -1.534  1.00  0.00     0.055 A 
HETATM   13  C7  UNK     1       4.837   3.122  -4.162  1.00  0.00     0.352 A 
ENDBRANCH   3   5
ENDBRANCH   2   3
BRANCH   1  14
HETATM   14  C8  UNK     1      -1.957  -0.360   1.300  1.00  0.00    -0.033 A 
HETATM   15  C10 UNK     1      -2.404  -0.724   2.560  1.00  0.00     0.051 A 
HETATM   16  C12 UNK     1      -3.480  -1.603   2.675  1.00  0.00     0.102 A 
HETATM   17  C15 UNK     1      -4.095  -2.107   1.529  1.00  0.00     0.101 A 
HETATM   18  C16 UNK     1      -3.633  -1.731   0.267  1.00  0.00     0.040 A 
HETATM   19  C14 UNK     1      -2.557  -0.852   0.152  1.00  0.00     0.014 A 
BRANCH  16  20
HETATM   20  O3  UNK     1      -3.922  -1.963   3.913  1.00  0.00    -0.353 OA
HETATM   21  C17 UNK     1      -3.239  -1.403   5.033  1.00  0.00     0.210 C 
ENDBRANCH  16  20
BRANCH  17  22
HETATM   22  O4  UNK     1      -5.148  -2.966   1.628  1.00  0.00    -0.353 OA
HETATM   23  C18 UNK     1      -5.719  -3.435   0.409  1.00  0.00     0.210 C 
ENDBRANCH  17  22
ENDBRANCH   1  14
TORSDOF 5
