REMARK  7 active torsions:
REMARK  status: ('A' for Active; 'I' for Inactive)
REMARK    1  A    between atoms: C16_23  and  O3_3 
REMARK    2  A    between atoms: C24_31  and  O3_3 
REMARK    3  A    between atoms: C5_12  and  N1_5 
REMARK    4  A    between atoms: C6_13  and  N2_6 
REMARK    5  A    between atoms: C14_21  and  N3_7 
REMARK       I    between atoms: C9_16  and  N3_7 
REMARK    6  A    between atoms: C5_12  and  C7_14 
REMARK    7  A    between atoms: C6_13  and  C9_16 
ROOT
HETATM    1  N1  UNK     1       1.552  -0.233  -0.814  1.00  0.00     0.096 N 
HETATM    2  N2  UNK     1      -0.283  -1.194   1.203  1.00  0.00     0.100 N 
HETATM    3  C1  UNK     1       0.176  -0.615  -1.155  1.00  0.00     0.303 C 
HETATM    4  C2  UNK     1       2.025  -1.002   0.344  1.00  0.00     0.303 C 
HETATM    5  C3  UNK     1      -0.757  -0.425   0.046  1.00  0.00     0.303 C 
HETATM    6  C4  UNK     1       1.092  -0.811   1.544  1.00  0.00     0.303 C 
ENDROOT
BRANCH   1   7
HETATM    7  C5  UNK     1       2.441  -0.418  -1.959  1.00  0.00     0.312 C 
BRANCH   7   8
HETATM    8  C7  UNK     1       2.345   0.705  -2.933  1.00  0.00    -0.011 A 
HETATM    9  C10 UNK     1       1.467   0.670  -3.945  1.00  0.00     0.092 A 
HETATM   10  C13 UNK     1       1.336   1.756  -4.932  1.00  0.00     0.288 A 
HETATM   11  O1  UNK     1       2.177   2.846  -4.774  1.00  0.00    -0.275 OA
HETATM   12  O4  UNK     1       0.520   1.690  -5.845  1.00  0.00    -0.260 OA
HETATM   13  C11 UNK     1       3.111   2.910  -3.720  1.00  0.00     0.090 A 
HETATM   14  C8  UNK     1       3.224   1.874  -2.793  1.00  0.00     0.009 A 
HETATM   15  C15 UNK     1       3.907   4.056  -3.660  1.00  0.00     0.041 A 
HETATM   16  C12 UNK     1       4.178   2.013  -1.775  1.00  0.00     0.051 A 
HETATM   17  C16 UNK     1       4.983   3.155  -1.702  1.00  0.00     0.069 A 
HETATM   18  C17 UNK     1       4.848   4.175  -2.642  1.00  0.00     0.039 A 
BRANCH  17  19
HETATM   19  O3  UNK     1       5.904   3.271  -0.705  1.00  0.00    -0.351 OA
BRANCH  19  20
HETATM   20  C24 UNK     1       5.606   2.627   0.532  1.00  0.00     0.171 C 
HETATM   21  C26 UNK     1       6.264   3.395   1.658  1.00  0.00     0.034 C 
ENDBRANCH  19  20
ENDBRANCH  17  19
ENDBRANCH   7   8
ENDBRANCH   1   7
BRANCH   2  22
HETATM   22  C6  UNK     1      -1.173  -1.011   2.348  1.00  0.00     0.375 C 
BRANCH  22  23
HETATM   23  C9  UNK     1      -2.393  -1.902   2.187  1.00  0.00     0.250 C 
HETATM   24  O2  UNK     1      -2.354  -2.976   1.596  1.00  0.00    -0.271 OA
HETATM   25  N3  UNK     1      -3.499  -1.319   2.802  1.00  0.00    -0.325 N 
HETATM   26  H14 UNK     1      -3.352  -0.423   3.259  1.00  0.00     0.169 HD
BRANCH  25  27
HETATM   27  C14 UNK     1      -4.816  -1.832   2.874  1.00  0.00     0.041 A 
HETATM   28  C18 UNK     1      -5.824  -1.124   3.530  1.00  0.00    -0.035 A 
HETATM   29  C21 UNK     1      -7.116  -1.645   3.590  1.00  0.00     0.009 A 
HETATM   30  C22 UNK     1      -5.548   0.195   4.176  1.00  0.00     0.050 C 
HETATM   31  C23 UNK     1      -7.401  -2.874   2.995  1.00  0.00     0.007 A 
HETATM   32  C20 UNK     1      -6.394  -3.582   2.340  1.00  0.00    -0.060 A 
HETATM   33  C19 UNK     1      -5.101  -3.061   2.279  1.00  0.00     0.037 A 
HETATM   34  C25 UNK     1      -6.699  -4.896   1.704  1.00  0.00     0.048 C 
ENDBRANCH  25  27
ENDBRANCH  22  23
ENDBRANCH   2  22
TORSDOF 7
