REMARK  3 active torsions:
REMARK  status: ('A' for Active; 'I' for Inactive)
REMARK    1  A    between atoms: C10_14  and  O2_2 
REMARK    2  A    between atoms: C7_11  and  N1_4 
REMARK    3  A    between atoms: C7_11  and  C8_12 
ROOT
HETATM    1  O1  UNK     1      -0.086   0.765   0.849  1.00  0.00    -0.274 OA
HETATM    2  O3  UNK     1       1.123   1.344   2.702  1.00  0.00    -0.260 OA
HETATM    3  C8  UNK     1      -1.348   0.158  -1.083  1.00  0.00     0.038 A 
HETATM    4  C9  UNK     1      -1.092  -0.035   0.271  1.00  0.00     0.101 A 
HETATM    5  C10 UNK     1      -2.327  -0.597  -1.713  1.00  0.00     0.076 A 
HETATM    6  C11 UNK     1      -1.791  -0.974   1.031  1.00  0.00     0.005 A 
HETATM    7  C12 UNK     1      -3.042  -1.542  -0.980  1.00  0.00     0.038 A 
HETATM    8  C13 UNK     1      -2.777  -1.730   0.382  1.00  0.00     0.017 A 
HETATM    9  C14 UNK     1      -1.459  -1.116   2.455  1.00  0.00    -0.043 A 
HETATM   10  C15 UNK     1      -0.498  -0.342   2.977  1.00  0.00     0.090 A 
HETATM   11  C16 UNK     1       0.249   0.653   2.190  1.00  0.00     0.288 A 
HETATM   12  C17 UNK     1      -2.194  -2.117   3.298  1.00  0.00     0.049 C 
ENDROOT
BRANCH   3  13
HETATM   13  C7  UNK     1      -0.574   1.179  -1.865  1.00  0.00     0.316 C 
BRANCH  13  14
HETATM   14  N1  UNK     1       0.861   1.115  -1.581  1.00  0.00     0.092 N 
HETATM   15  C1  UNK     1       1.378  -0.213  -1.930  1.00  0.00     0.272 C 
HETATM   16  C3  UNK     1       2.900  -0.389  -1.954  1.00  0.00     0.030 C 
HETATM   17  C5  UNK     1       3.646   0.349  -0.848  1.00  0.00     0.002 C 
HETATM   18  C6  UNK     1       3.938   1.800  -1.222  1.00  0.00     0.002 C 
HETATM   19  C4  UNK     1       2.716   2.710  -1.303  1.00  0.00     0.030 C 
HETATM   20  C2  UNK     1       1.579   2.226  -2.207  1.00  0.00     0.272 C 
ENDBRANCH  13  14
ENDBRANCH   3  13
BRANCH   5  21
HETATM   21  O2  UNK     1      -2.604  -0.431  -3.036  1.00  0.00    -0.360 OA
HETATM   22  H21 UNK     1      -3.313  -1.046  -3.291  1.00  0.00     0.217 HD
ENDBRANCH   5  21
TORSDOF 3
