REMARK  6 active torsions:
REMARK  status: ('A' for Active; 'I' for Inactive)
REMARK    1  A    between atoms: C11_21  and  O2_5 
REMARK    2  A    between atoms: C16_26  and  O3_6 
REMARK       I    between atoms: C10_20  and  N1_10 
REMARK    3  A    between atoms: C3_13  and  N1_10 
REMARK    4  A    between atoms: C1_11  and  C4_14 
REMARK    5  A    between atoms: C16_26  and  C2_12 
REMARK    6  A    between atoms: C10_20  and  C6_16 
ROOT
HETATM    1  S1  UNK     1      -0.058   0.003   2.815  1.00  0.00    -0.082 SA
HETATM    2  C1  UNK     1      -2.227  -1.200   2.146  1.00  0.00     0.001 A 
HETATM    3  C2  UNK     1      -1.608  -0.796   0.928  1.00  0.00     0.085 A 
HETATM    4  C3  UNK     1      -0.441  -0.143   1.166  1.00  0.00     0.094 A 
HETATM    5  C8  UNK     1      -1.491  -0.828   3.249  1.00  0.00     0.065 A 
ENDROOT
BRANCH   4   6
HETATM    6  N1  UNK     1       0.481   0.418   0.277  1.00  0.00    -0.316 N 
HETATM    7  C10 UNK     1       1.656   1.071   0.622  1.00  0.00     0.262 C 
HETATM    8  O4  UNK     1       2.116   1.284   1.743  1.00  0.00    -0.267 OA
HETATM    9  H3  UNK     1       0.242   0.301  -0.704  1.00  0.00     0.169 HD
BRANCH   7  10
HETATM   10  C6  UNK     1       2.389   1.539  -0.561  1.00  0.00     0.108 A 
HETATM   11  C15 UNK     1       1.698   1.923  -1.812  1.00  0.00     0.304 A 
HETATM   12  O1  UNK     1       2.503   2.352  -2.864  1.00  0.00    -0.271 OA
HETATM   13  O5  UNK     1       0.478   1.869  -1.922  1.00  0.00    -0.259 OA
HETATM   14  C7  UNK     1       3.905   2.417  -2.749  1.00  0.00     0.123 A 
HETATM   15  C11 UNK     1       4.626   2.858  -3.857  1.00  0.00     0.102 A 
HETATM   16  C5  UNK     1       4.534   2.051  -1.564  1.00  0.00     0.002 A 
HETATM   17  C17 UNK     1       6.014   2.933  -3.773  1.00  0.00     0.040 A 
HETATM   18  C18 UNK     1       6.664   2.569  -2.592  1.00  0.00     0.004 A 
HETATM   19  C12 UNK     1       5.927   2.129  -1.489  1.00  0.00     0.014 A 
HETATM   20  C9  UNK     1       3.721   1.599  -0.445  1.00  0.00     0.037 A 
BRANCH  15  21
HETATM   21  O2  UNK     1       3.997   3.214  -5.009  1.00  0.00    -0.353 OA
HETATM   22  C22 UNK     1       3.786   2.188  -5.979  1.00  0.00     0.210 C 
ENDBRANCH  15  21
ENDBRANCH   7  10
ENDBRANCH   4   6
BRANCH   3  23
HETATM   23  C16 UNK     1      -2.127  -1.034  -0.396  1.00  0.00     0.296 C 
HETATM   24  O6  UNK     1      -1.561  -0.668  -1.436  1.00  0.00    -0.259 OA
BRANCH  23  25
HETATM   25  O3  UNK     1      -3.325  -1.714  -0.413  1.00  0.00    -0.322 OA
HETATM   26  C23 UNK     1      -3.898  -1.983  -1.697  1.00  0.00     0.213 C 
ENDBRANCH  23  25
ENDBRANCH   3  23
BRANCH   2  27
HETATM   27  C4  UNK     1      -3.469  -1.912   2.309  1.00  0.00    -0.003 A 
HETATM   28  C13 UNK     1      -4.688  -1.246   2.436  1.00  0.00     0.046 A 
HETATM   29 Cl1  UNK     1      -4.797   0.480   2.407  1.00  0.00    -0.083 Cl
HETATM   30  C19 UNK     1      -5.867  -1.975   2.591  1.00  0.00     0.048 A 
HETATM   31  C21 UNK     1      -5.827  -3.369   2.620  1.00  0.00     0.035 A 
HETATM   32  C20 UNK     1      -4.607  -4.034   2.493  1.00  0.00     0.025 A 
HETATM   33 Cl2  UNK     1      -7.281  -4.269   2.812  1.00  0.00    -0.084 Cl
HETATM   34  C14 UNK     1      -3.428  -3.306   2.338  1.00  0.00     0.016 A 
ENDBRANCH   2  27
TORSDOF 6
