REMARK  2 active torsions:
REMARK  status: ('A' for Active; 'I' for Inactive)
REMARK    1  A    between atoms: C15_20  and  O4_4 
REMARK       I    between atoms: C8_13  and  N1_5 
REMARK    2  A    between atoms: C8_13  and  C9_14 
ROOT
HETATM    1  O2  UNK     1       1.995   0.118  -0.136  1.00  0.00    -0.271 OA
HETATM    2  O3  UNK     1       0.835  -1.408   1.109  1.00  0.00    -0.259 OA
HETATM    3  C9  UNK     1      -0.255  -0.559  -0.816  1.00  0.00     0.108 A 
HETATM    4  C10 UNK     1      -0.206   0.252  -1.880  1.00  0.00     0.037 A 
HETATM    5  C11 UNK     1       0.977   1.060  -2.133  1.00  0.00     0.002 A 
HETATM    6  C12 UNK     1       0.876  -0.666   0.133  1.00  0.00     0.304 A 
HETATM    7  C13 UNK     1       2.051   0.973  -1.253  1.00  0.00     0.123 A 
HETATM    8  C14 UNK     1       1.070   1.920  -3.229  1.00  0.00     0.014 A 
HETATM    9  C15 UNK     1       3.213   1.720  -1.439  1.00  0.00     0.102 A 
HETATM   10  C16 UNK     1       2.230   2.675  -3.429  1.00  0.00     0.004 A 
HETATM   11  C17 UNK     1       3.298   2.575  -2.535  1.00  0.00     0.040 A 
ENDROOT
BRANCH   3  12
HETATM   12  C8  UNK     1      -1.499  -1.338  -0.645  1.00  0.00     0.259 C 
HETATM   13  O1  UNK     1      -1.547  -2.447  -1.181  1.00  0.00    -0.267 OA
HETATM   14  N1  UNK     1      -2.536  -0.772   0.107  1.00  0.00    -0.348 N 
HETATM   15  C6  UNK     1      -3.769  -1.553   0.269  1.00  0.00     0.126 C 
HETATM   16  C7  UNK     1      -2.537   0.606   0.624  1.00  0.00     0.126 C 
HETATM   17  C4  UNK     1      -4.423  -1.510   1.649  1.00  0.00     0.020 C 
HETATM   18  C2  UNK     1      -3.591  -2.112   2.779  1.00  0.00     0.002 C 
HETATM   19  C1  UNK     1      -2.238  -1.457   3.066  1.00  0.00     0.000 C 
HETATM   20  C3  UNK     1      -2.272   0.071   3.154  1.00  0.00     0.002 C 
HETATM   21  C5  UNK     1      -1.728   0.784   1.912  1.00  0.00     0.020 C 
ENDBRANCH   3  12
BRANCH   9  22
HETATM   22  O4  UNK     1       4.257   1.625  -0.572  1.00  0.00    -0.353 OA
HETATM   23  C18 UNK     1       4.262   2.521   0.539  1.00  0.00     0.210 C 
ENDBRANCH   9  22
TORSDOF 2
