REMARK  6 active torsions:
REMARK  status: ('A' for Active; 'I' for Inactive)
REMARK    1  A    between atoms: C17_25  and  O3_3 
REMARK    2  A    between atoms: C18_26  and  O4_4 
REMARK    3  A    between atoms: C1_9  and  N1_8 
REMARK       I    between atoms: C10_18  and  N1_8 
REMARK    4  A    between atoms: C10_18  and  C3_11 
REMARK    5  A    between atoms: C18_26  and  C8_16 
REMARK    6  A    between atoms: C17_25  and  C9_17 
ROOT
HETATM    1  O2  UNK     1       1.390   0.908   1.156  1.00  0.00    -0.267 OA
HETATM    2  N1  UNK     1      -0.089   0.176  -0.524  1.00  0.00    -0.323 N 
HETATM    3  C10 UNK     1       1.045   0.798  -0.019  1.00  0.00     0.262 C 
HETATM    4  H4  UNK     1      -0.220   0.152  -1.532  1.00  0.00     0.169 HD
ENDROOT
BRANCH   2   5
HETATM    5  C1  UNK     1      -1.113  -0.477   0.205  1.00  0.00     0.036 A 
HETATM    6  C6  UNK     1      -2.175  -1.043  -0.479  1.00  0.00     0.047 A 
HETATM    7  C8  UNK     1      -3.184  -1.686   0.239  1.00  0.00     0.042 A 
HETATM    8  C11 UNK     1      -3.115  -1.753   1.630  1.00  0.00     0.035 A 
HETATM    9  C9  UNK     1      -2.037  -1.178   2.304  1.00  0.00     0.042 A 
HETATM   10  C7  UNK     1      -1.029  -0.535   1.586  1.00  0.00     0.047 A 
BRANCH   7  11
HETATM   11  C18 UNK     1      -4.307  -2.287  -0.463  1.00  0.00     0.293 C 
HETATM   12  O7  UNK     1      -4.247  -2.756  -1.607  1.00  0.00    -0.259 OA
BRANCH  11  13
HETATM   13  O4  UNK     1      -5.443  -2.271   0.299  1.00  0.00    -0.323 OA
HETATM   14  C20 UNK     1      -6.621  -2.838  -0.284  1.00  0.00     0.213 C 
ENDBRANCH  11  13
ENDBRANCH   7  11
BRANCH   9  15
HETATM   15  C17 UNK     1      -1.965  -1.248   3.755  1.00  0.00     0.293 C 
HETATM   16  O6  UNK     1      -0.910  -1.276   4.403  1.00  0.00    -0.259 OA
BRANCH  15  17
HETATM   17  O3  UNK     1      -3.211  -1.279   4.320  1.00  0.00    -0.323 OA
HETATM   18  C19 UNK     1      -3.272  -1.348   5.749  1.00  0.00     0.213 C 
ENDBRANCH  15  17
ENDBRANCH   9  15
ENDBRANCH   2   5
BRANCH   3  19
HETATM   19  C3  UNK     1       1.883   1.367  -1.082  1.00  0.00     0.108 A 
HETATM   20  C13 UNK     1       1.311   1.858  -2.355  1.00  0.00     0.304 A 
HETATM   21  O1  UNK     1       2.208   2.377  -3.285  1.00  0.00    -0.274 OA
HETATM   22  O5  UNK     1       0.107   1.815  -2.585  1.00  0.00    -0.259 OA
HETATM   23  C4  UNK     1       3.592   2.432  -3.030  1.00  0.00     0.089 A 
HETATM   24  C14 UNK     1       4.412   2.969  -4.022  1.00  0.00     0.038 A 
HETATM   25  C2  UNK     1       4.109   1.964  -1.827  1.00  0.00    -0.001 A 
HETATM   26  C16 UNK     1       5.785   3.037  -3.799  1.00  0.00     0.003 A 
HETATM   27  C15 UNK     1       6.322   2.572  -2.597  1.00  0.00     0.001 A 
HETATM   28  C12 UNK     1       5.488   2.036  -1.612  1.00  0.00     0.014 A 
HETATM   29  C5  UNK     1       3.197   1.417  -0.834  1.00  0.00     0.037 A 
ENDBRANCH   3  19
TORSDOF 6
