REMARK  5 active torsions:
REMARK  status: ('A' for Active; 'I' for Inactive)
REMARK    1  A    between atoms: C1_8  and  N1_5 
REMARK    2  A    between atoms: C2_9  and  N1_5 
REMARK    3  A    between atoms: C3_10  and  N1_5 
REMARK    4  A    between atoms: C10_17  and  C14_21 
REMARK    5  A    between atoms: C15_22  and  C16_23 
ROOT
HETATM    1  O1  UNK     1       2.246   1.732   0.649  1.00  0.00    -0.274 OA
HETATM    2  O3  UNK     1       1.292   1.328   2.682  1.00  0.00    -0.259 OA
HETATM    3  C1  UNK     1       3.356   1.927  -2.847  1.00  0.00     0.032 A 
HETATM    4  C4  UNK     1       1.405   0.606  -1.331  1.00  0.00    -0.001 A 
HETATM    5  C5  UNK     1       2.300   1.487  -0.736  1.00  0.00     0.091 A 
HETATM    6  C6  UNK     1       3.277   2.152  -1.474  1.00  0.00     0.067 A 
HETATM    7  C7  UNK     1       2.465   1.046  -3.463  1.00  0.00     0.030 A 
HETATM    8  C8  UNK     1       1.491   0.386  -2.708  1.00  0.00     0.016 A 
HETATM    9  C9  UNK     1       0.409  -0.052  -0.501  1.00  0.00     0.036 A 
HETATM   10  C10 UNK     1       0.355   0.179   0.819  1.00  0.00     0.095 A 
HETATM   11  C13 UNK     1       1.311   1.112   1.475  1.00  0.00     0.303 A 
ENDROOT
BRANCH  10  12
HETATM   12  C14 UNK     1      -0.642  -0.480   1.605  1.00  0.00     0.209 A 
HETATM   13  O2  UNK     1      -1.855  -0.827   1.081  1.00  0.00    -0.268 OA
HETATM   14  C15 UNK     1      -2.455  -1.408   2.156  1.00  0.00     0.203 A 
HETATM   15  N3  UNK     1      -1.703  -1.424   3.232  1.00  0.00    -0.121 NA
HETATM   16  N2  UNK     1      -0.515  -0.816   2.873  1.00  0.00    -0.121 NA
BRANCH  14  17
HETATM   17  C16 UNK     1      -3.785  -1.900   1.943  1.00  0.00     0.019 A 
HETATM   18  C17 UNK     1      -4.330  -2.858   2.804  1.00  0.00     0.017 A 
HETATM   19  C19 UNK     1      -5.624  -3.336   2.598  1.00  0.00     0.020 A 
HETATM   20  C21 UNK     1      -6.382  -2.857   1.529  1.00  0.00     0.011 A 
HETATM   21 Br1  UNK     1      -8.135  -3.505   1.249  1.00  0.00    -0.051 Br
HETATM   22  C20 UNK     1      -5.845  -1.902   0.666  1.00  0.00     0.020 A 
HETATM   23  C18 UNK     1      -4.551  -1.425   0.872  1.00  0.00     0.017 A 
ENDBRANCH  14  17
ENDBRANCH  10  12
BRANCH   3  24
HETATM   24  N1  UNK     1       4.336   2.589  -3.615  1.00  0.00    -0.382 N 
BRANCH  24  25
HETATM   25  C2  UNK     1       5.257   3.517  -2.988  1.00  0.00     0.118 C 
HETATM   26  C11 UNK     1       6.489   2.780  -2.500  1.00  0.00     0.026 C 
ENDBRANCH  24  25
BRANCH  24  27
HETATM   27  C3  UNK     1       4.427   2.361  -5.043  1.00  0.00     0.118 C 
HETATM   28  C12 UNK     1       3.537   3.339  -5.786  1.00  0.00     0.026 C 
ENDBRANCH  24  27
ENDBRANCH   3  24
TORSDOF 5
