REMARK  4 active torsions:
REMARK  status: ('A' for Active; 'I' for Inactive)
REMARK    1  A    between atoms: C16_22  and  O2_4 
REMARK    2  A    between atoms: C19_25  and  O3_5 
REMARK    3  A    between atoms: C22_28  and  O4_6 
REMARK    4  A    between atoms: C12_18  and  C3_9 
ROOT
HETATM    1 Cl1  UNK     1       4.237   1.434  -3.558  1.00  0.00    -0.081 Cl
HETATM    2  O1  UNK     1      -1.120   1.211  -1.168  1.00  0.00    -0.334 OA
HETATM    3  C1  UNK     1       1.160   0.931   0.678  1.00  0.00    -0.004 C 
HETATM    4  C2  UNK     1      -0.173   1.573   1.123  1.00  0.00     0.039 C 
HETATM    5  C3  UNK     1      -1.394   1.188   0.245  1.00  0.00     0.102 C 
HETATM    6  C4  UNK     1      -0.189   3.110   1.096  1.00  0.00     0.009 C 
HETATM    7  C5  UNK     1       2.330   1.473   1.539  1.00  0.00     0.015 C 
HETATM    8  C6  UNK     1       1.200  -0.579   1.014  1.00  0.00     0.015 C 
HETATM    9  C7  UNK     1      -2.398   2.364   0.456  1.00  0.00     0.044 C 
HETATM   10  C8  UNK     1      -1.663   3.430   1.267  1.00  0.00     0.004 C 
HETATM   11  C9  UNK     1       1.307   1.130  -0.824  1.00  0.00    -0.014 A 
HETATM   12  C10 UNK     1       3.315   0.319   1.757  1.00  0.00     0.001 C 
HETATM   13  C11 UNK     1       2.677  -0.922   1.151  1.00  0.00     0.001 C 
HETATM   14  C13 UNK     1       0.164   1.229  -1.627  1.00  0.00     0.080 A 
HETATM   15  C14 UNK     1       2.560   1.201  -1.460  1.00  0.00     0.037 A 
HETATM   16  C15 UNK     1       0.275   1.377  -3.017  1.00  0.00     0.075 A 
HETATM   17  C18 UNK     1       2.668   1.354  -2.844  1.00  0.00     0.067 A 
HETATM   18  C19 UNK     1       1.524   1.439  -3.625  1.00  0.00     0.090 A 
ENDROOT
BRANCH   5  19
HETATM   19  C12 UNK     1      -2.045  -0.142   0.634  1.00  0.00     0.012 A 
HETATM   20  C16 UNK     1      -2.515  -0.358   1.933  1.00  0.00     0.077 A 
HETATM   21  C20 UNK     1      -3.107  -1.575   2.271  1.00  0.00     0.075 A 
HETATM   22  C22 UNK     1      -3.231  -2.581   1.312  1.00  0.00     0.090 A 
HETATM   23  C21 UNK     1      -2.764  -2.369   0.014  1.00  0.00     0.068 A 
HETATM   24  C17 UNK     1      -2.173  -1.152  -0.324  1.00  0.00     0.039 A 
HETATM   25 Cl2  UNK     1      -2.906  -3.595  -1.191  1.00  0.00    -0.081 Cl
BRANCH  20  26
HETATM   26  O2  UNK     1      -2.402   0.613   2.882  1.00  0.00    -0.360 OA
HETATM   27  H20 UNK     1      -2.778   0.287   3.717  1.00  0.00     0.217 HD
ENDBRANCH  20  26
BRANCH  22  28
HETATM   28  O4  UNK     1      -3.813  -3.760   1.670  1.00  0.00    -0.359 OA
HETATM   29  H22 UNK     1      -4.071  -3.718   2.607  1.00  0.00     0.217 HD
ENDBRANCH  22  28
ENDBRANCH   5  19
BRANCH  18  30
HETATM   30  O3  UNK     1       1.593   1.588  -4.977  1.00  0.00    -0.359 OA
HETATM   31  H21 UNK     1       2.531   1.614  -5.233  1.00  0.00     0.217 HD
ENDBRANCH  18  30
TORSDOF 4
