REMARK  3 active torsions:
REMARK  status: ('A' for Active; 'I' for Inactive)
REMARK    1  A    between atoms: C1_5  and  N1_4 
REMARK       I    between atoms: C5_9  and  N1_4 
REMARK    2  A    between atoms: C1_5  and  C2_6 
REMARK    3  A    between atoms: C5_9  and  C6_10 
ROOT
HETATM    1  C1  UNK     1      -2.728  -0.944   1.710  1.00  0.00     0.092 C 
HETATM    2  C3  UNK     1      -2.701  -0.042   2.954  1.00  0.00     0.053 C 
HETATM    3  C7  UNK     1      -4.077  -0.889   1.108  1.00  0.00    -0.086 C 
HETATM    4  C16 UNK     1      -5.173  -0.841   0.620  1.00  0.00     0.015 C 
ENDROOT
BRANCH   1   5
HETATM    5  N1  UNK     1      -1.761  -0.442   0.760  1.00  0.00    -0.337 N 
HETATM    6  C5  UNK     1      -0.407  -0.366   1.031  1.00  0.00     0.259 C 
HETATM    7  O2  UNK     1       0.145  -0.702   2.077  1.00  0.00    -0.267 OA
HETATM    8  H3  UNK     1      -2.112  -0.099  -0.130  1.00  0.00     0.164 HD
BRANCH   6   9
HETATM    9  C6  UNK     1       0.370   0.175  -0.091  1.00  0.00     0.108 A 
HETATM   10  C11 UNK     1      -0.050  -0.011  -1.499  1.00  0.00     0.304 A 
HETATM   11  O1  UNK     1       0.770   0.549  -2.474  1.00  0.00    -0.274 OA
HETATM   12  O3  UNK     1      -1.068  -0.626  -1.796  1.00  0.00    -0.259 OA
HETATM   13  C10 UNK     1       1.941   1.259  -2.144  1.00  0.00     0.089 A 
HETATM   14  C8  UNK     1       2.317   1.422  -0.814  1.00  0.00    -0.001 A 
HETATM   15  C13 UNK     1       2.697   1.784  -3.190  1.00  0.00     0.038 A 
HETATM   16  C12 UNK     1       3.485   2.132  -0.526  1.00  0.00     0.014 A 
HETATM   17  C9  UNK     1       1.481   0.848   0.229  1.00  0.00     0.037 A 
HETATM   18  C14 UNK     1       4.254   2.664  -1.565  1.00  0.00     0.001 A 
HETATM   19  C15 UNK     1       3.861   2.491  -2.894  1.00  0.00     0.003 A 
ENDBRANCH   6   9
ENDBRANCH   1   5
BRANCH   1  20
HETATM   20  C2  UNK     1      -2.374  -2.390   2.128  1.00  0.00     0.040 C 
HETATM   21  C4  UNK     1      -2.317  -3.393   0.978  1.00  0.00     0.009 C 
ENDBRANCH   1  20
TORSDOF 3
