REMARK  2 active torsions:
REMARK  status: ('A' for Active; 'I' for Inactive)
REMARK    1  A    between atoms: C8_14  and  N1_6 
REMARK    2  A    between atoms: C10_16  and  C4_10 
ROOT
HETATM    1  O1  UNK     1       0.965   0.552   0.389  1.00  0.00    -0.305 OA
HETATM    2  O2  UNK     1      -1.766  -0.392  -2.485  1.00  0.00    -0.287 OA
HETATM    3  C1  UNK     1      -1.197  -0.392  -0.190  1.00  0.00     0.050 A 
HETATM    4  C2  UNK     1      -0.220  -0.042   0.741  1.00  0.00     0.090 A 
HETATM    5  C3  UNK     1      -0.953  -0.114  -1.614  1.00  0.00     0.187 A 
HETATM    6  C4  UNK     1       1.198   0.814  -0.952  1.00  0.00     0.163 A 
HETATM    7  C5  UNK     1      -2.386  -0.995   0.226  1.00  0.00     0.047 A 
HETATM    8  C6  UNK     1       0.337   0.525  -1.939  1.00  0.00     0.098 A 
HETATM    9  C7  UNK     1      -0.427  -0.294   2.097  1.00  0.00     0.040 A 
HETATM   10  C8  UNK     1      -2.591  -1.246   1.584  1.00  0.00     0.026 A 
HETATM   11  C9  UNK     1      -1.614  -0.897   2.517  1.00  0.00     0.032 A 
ENDROOT
BRANCH   6  12
HETATM   12  C10 UNK     1       2.521   1.462  -1.213  1.00  0.00     0.439 C 
HETATM   13  F1  UNK     1       2.695   1.693  -2.531  1.00  0.00    -0.164 F 
HETATM   14  F2  UNK     1       2.619   2.644  -0.570  1.00  0.00    -0.164 F 
HETATM   15  F3  UNK     1       3.538   0.680  -0.794  1.00  0.00    -0.164 F 
ENDBRANCH   6  12
BRANCH  10  16
HETATM   16  N1  UNK     1      -3.788  -1.856   2.014  1.00  0.00    -0.399 N 
HETATM   17  H5  UNK     1      -3.938  -2.038   2.998  1.00  0.00     0.156 HD
HETATM   18  H6  UNK     1      -4.498  -2.110   1.340  1.00  0.00     0.156 HD
ENDBRANCH  10  16
TORSDOF 2
