REMARK  5 active torsions:
REMARK  status: ('A' for Active; 'I' for Inactive)
REMARK    1  A    between atoms: C10_16  and  O2_2 
REMARK    2  A    between atoms: C4_10  and  O2_2 
REMARK    3  A    between atoms: C16_22  and  O3_3 
REMARK    4  A    between atoms: C7_13  and  O3_3 
REMARK    5  A    between atoms: C13_19  and  O5_5 
ROOT
HETATM    1  N1  UNK     1       5.200   2.669  -5.637  1.00  0.00    -0.195 NA
HETATM    2  C16 UNK     1       4.433   1.767  -3.296  1.00  0.00     0.299 C 
HETATM    3  C18 UNK     1       4.860   2.270  -4.601  1.00  0.00     0.085 C 
ENDROOT
BRANCH   2   4
HETATM    4  O3  UNK     1       3.619   2.732  -2.632  1.00  0.00    -0.337 OA
BRANCH   4   5
HETATM    5  C7  UNK     1       2.681   2.259  -1.765  1.00  0.00     0.072 A 
HETATM    6  C6  UNK     1       2.906   1.066  -1.078  1.00  0.00     0.075 A 
HETATM    7  C2  UNK     1       1.943   0.586  -0.190  1.00  0.00     0.092 A 
HETATM    8  C1  UNK     1       0.758   1.298   0.009  1.00  0.00     0.051 A 
HETATM    9  O1  UNK     1       2.220  -0.594   0.458  1.00  0.00    -0.319 OA
HETATM   10  C3  UNK     1      -0.245   0.770   0.952  1.00  0.00     0.220 A 
HETATM   11  C5  UNK     1       0.531   2.493  -0.678  1.00  0.00     0.021 A 
HETATM   12  O4  UNK     1      -1.302   1.347   1.168  1.00  0.00    -0.284 OA
HETATM   13  C4  UNK     1       0.103  -0.503   1.621  1.00  0.00     0.149 A 
HETATM   14  C9  UNK     1       1.276  -1.074   1.332  1.00  0.00     0.184 A 
HETATM   15  C8  UNK     1       1.496   2.970  -1.566  1.00  0.00     0.038 A 
BRANCH  13  16
HETATM   16  O2  UNK     1      -0.780  -1.062   2.515  1.00  0.00    -0.305 OA
BRANCH  16  17
HETATM   17  C10 UNK     1      -2.021  -1.390   2.041  1.00  0.00     0.076 A 
HETATM   18  C12 UNK     1      -3.152  -1.063   2.782  1.00  0.00     0.040 A 
HETATM   19  C15 UNK     1      -4.417  -1.397   2.298  1.00  0.00     0.039 A 
HETATM   20  C13 UNK     1      -4.545  -2.058   1.077  1.00  0.00     0.068 A 
HETATM   21  C14 UNK     1      -3.407  -2.384   0.338  1.00  0.00     0.039 A 
HETATM   22  C11 UNK     1      -2.142  -2.050   0.821  1.00  0.00     0.040 A 
BRANCH  20  23
HETATM   23  O5  UNK     1      -5.779  -2.383   0.605  1.00  0.00    -0.356 OA
HETATM   24  C17 UNK     1      -5.838  -3.058  -0.651  1.00  0.00     0.210 C 
ENDBRANCH  20  23
ENDBRANCH  16  17
ENDBRANCH  13  16
ENDBRANCH   4   5
ENDBRANCH   2   4
TORSDOF 5
