REMARK  7 active torsions:
REMARK  status: ('A' for Active; 'I' for Inactive)
REMARK    1  A    between atoms: C1_9  and  O1_2 
REMARK    2  A    between atoms: C24_32  and  O6_7 
REMARK    3  A    between atoms: C6_14  and  N1_8 
REMARK    4  A    between atoms: C1_9  and  C5_13 
REMARK    5  A    between atoms: C5_13  and  C9_17 
REMARK    6  A    between atoms: C10_18  and  C6_14 
REMARK    7  A    between atoms: C13_21  and  C9_17 
ROOT
HETATM    1  O2  UNK     1       0.114   2.720   0.410  1.00  0.00    -0.269 OA
HETATM    2  N1  UNK     1       1.994   2.153  -0.899  1.00  0.00    -0.310 N 
HETATM    3  C1  UNK     1       1.801   1.132   1.229  1.00  0.00     0.175 A 
HETATM    4  C2  UNK     1       3.048   0.699   0.511  1.00  0.00     0.013 A 
HETATM    5  C3  UNK     1       3.114   1.326  -0.734  1.00  0.00     0.047 A 
HETATM    6  C4  UNK     1       1.154   2.106   0.223  1.00  0.00     0.264 A 
HETATM    7  C7  UNK     1       4.044  -0.171   0.920  1.00  0.00     0.013 A 
HETATM    8  C8  UNK     1       4.166   1.105  -1.607  1.00  0.00     0.030 A 
HETATM    9  C11 UNK     1       5.113  -0.406   0.052  1.00  0.00     0.001 A 
HETATM   10  C12 UNK     1       5.173   0.226  -1.202  1.00  0.00     0.002 A 
ENDROOT
BRANCH   3  11
HETATM   11  O1  UNK     1       2.143   1.857   2.395  1.00  0.00    -0.375 OA
HETATM   12  H7  UNK     1       1.339   2.257   2.763  1.00  0.00     0.211 HD
ENDBRANCH   3  11
BRANCH   3  13
HETATM   13  C5  UNK     1       0.863  -0.019   1.562  1.00  0.00     0.137 C 
BRANCH  13  14
HETATM   14  C9  UNK     1      -0.389   0.448   2.274  1.00  0.00     0.169 C 
HETATM   15  O3  UNK     1      -0.429   1.423   3.019  1.00  0.00    -0.292 OA
BRANCH  14  16
HETATM   16  C13 UNK     1      -1.612  -0.344   2.032  1.00  0.00     0.086 A 
HETATM   17  C16 UNK     1      -1.433  -1.645   1.774  1.00  0.00     0.035 A 
HETATM   18  C18 UNK     1      -2.577  -2.507   1.523  1.00  0.00     0.002 A 
HETATM   19  C19 UNK     1      -3.854  -1.956   1.555  1.00  0.00     0.123 A 
HETATM   20  C23 UNK     1      -2.437  -3.870   1.251  1.00  0.00     0.014 A 
HETATM   21  C24 UNK     1      -4.992  -2.727   1.323  1.00  0.00     0.102 A 
HETATM   22  O4  UNK     1      -4.036  -0.586   1.827  1.00  0.00    -0.271 OA
HETATM   23  C26 UNK     1      -4.843  -4.085   1.052  1.00  0.00     0.040 A 
HETATM   24  C25 UNK     1      -3.569  -4.656   1.016  1.00  0.00     0.004 A 
HETATM   25  C17 UNK     1      -2.961   0.263   2.072  1.00  0.00     0.302 A 
HETATM   26  O5  UNK     1      -3.129   1.455   2.308  1.00  0.00    -0.259 OA
BRANCH  21  27
HETATM   27  O6  UNK     1      -6.234  -2.176   1.357  1.00  0.00    -0.353 OA
HETATM   28  C27 UNK     1      -6.749  -1.656   0.131  1.00  0.00     0.210 C 
ENDBRANCH  21  27
ENDBRANCH  14  16
ENDBRANCH  13  14
ENDBRANCH   3  13
BRANCH   2  29
HETATM   29  C6  UNK     1       1.764   2.949  -2.081  1.00  0.00     0.172 C 
BRANCH  29  30
HETATM   30  C10 UNK     1       1.652   2.102  -3.316  1.00  0.00    -0.018 A 
HETATM   31  C14 UNK     1       2.307   2.447  -4.494  1.00  0.00     0.042 A 
HETATM   32  C20 UNK     1       2.177   1.636  -5.622  1.00  0.00     0.024 A 
HETATM   33 Cl1  UNK     1       3.283   3.866  -4.603  1.00  0.00    -0.084 Cl
HETATM   34  C22 UNK     1       1.393   0.483  -5.565  1.00  0.00     0.002 A 
HETATM   35  C21 UNK     1       0.739   0.142  -4.381  1.00  0.00     0.001 A 
HETATM   36  C15 UNK     1       0.869   0.953  -3.254  1.00  0.00     0.010 A 
ENDBRANCH  29  30
ENDBRANCH   2  29
TORSDOF 7
