REMARK  0 active torsions:
REMARK  status: ('A' for Active; 'I' for Inactive)
ROOT
HETATM    1 Cl1  UNK     1       0.332  -0.060   3.133  1.00  0.00    -0.081 Cl
HETATM    2 Cl2  UNK     1      -3.614  -1.516  -0.221  1.00  0.00    -0.084 Cl
HETATM    3  O1  UNK     1       1.692   0.856   0.693  1.00  0.00    -0.320 OA
HETATM    4  O2  UNK     1       0.332   0.662  -3.149  1.00  0.00    -0.287 OA
HETATM    5  C1  UNK     1      -0.066   0.213  -0.859  1.00  0.00     0.051 A 
HETATM    6  C2  UNK     1       0.458   0.310   0.431  1.00  0.00     0.111 A 
HETATM    7  C3  UNK     1      -1.327  -0.351  -1.068  1.00  0.00     0.042 A 
HETATM    8  C4  UNK     1      -0.276  -0.159   1.520  1.00  0.00     0.070 A 
HETATM    9  C5  UNK     1       0.730   0.716  -1.994  1.00  0.00     0.186 A 
HETATM   10  C6  UNK     1      -2.059  -0.819   0.024  1.00  0.00     0.036 A 
HETATM   11  C7  UNK     1      -1.536  -0.723   1.315  1.00  0.00     0.050 A 
HETATM   12  C8  UNK     1       2.046   1.292  -1.658  1.00  0.00     0.080 A 
HETATM   13  C9  UNK     1       2.420   1.319  -0.376  1.00  0.00     0.146 A 
ENDROOT
TORSDOF 0
