REMARK  8 active torsions:
REMARK  status: ('A' for Active; 'I' for Inactive)
REMARK    1  A    between atoms: C19_27  and  O2_3 
REMARK    2  A    between atoms: C24_32  and  O2_3 
REMARK    3  A    between atoms: C16_24  and  O3_4 
REMARK       I    between atoms: C14_22  and  N1_8 
REMARK    4  A    between atoms: C7_15  and  N1_8 
REMARK    5  A    between atoms: C1_9  and  C2_10 
REMARK    6  A    between atoms: C1_9  and  C3_11 
REMARK    7  A    between atoms: C16_24  and  C6_14 
REMARK    8  A    between atoms: C10_18  and  C14_22 
ROOT
HETATM    1  O4  UNK     1      -0.907   0.273  -2.271  1.00  0.00    -0.267 OA
HETATM    2  N1  UNK     1      -0.232   0.522  -0.024  1.00  0.00    -0.316 N 
HETATM    3  C14 UNK     1      -0.093   0.586  -1.403  1.00  0.00     0.262 C 
HETATM    4  H8  UNK     1       0.529   0.839   0.572  1.00  0.00     0.169 HD
ENDROOT
BRANCH   2   5
HETATM    5  C7  UNK     1      -1.360   0.076   0.672  1.00  0.00     0.093 A 
HETATM    6  C6  UNK     1      -1.589  -0.023   2.007  1.00  0.00     0.074 A 
HETATM    7  C5  UNK     1      -2.892  -0.536   2.268  1.00  0.00     0.035 A 
HETATM    8  C2  UNK     1      -3.586  -0.800   1.107  1.00  0.00    -0.006 A 
HETATM    9  S1  UNK     1      -2.667  -0.430  -0.289  1.00  0.00    -0.075 SA
BRANCH   6  10
HETATM   10  C16 UNK     1      -0.630   0.346   3.017  1.00  0.00     0.295 C 
HETATM   11  O5  UNK     1       0.501   0.791   2.768  1.00  0.00    -0.259 OA
BRANCH  10  12
HETATM   12  O3  UNK     1      -1.077   0.161   4.308  1.00  0.00    -0.322 OA
HETATM   13  C25 UNK     1      -0.172   0.508   5.363  1.00  0.00     0.213 C 
ENDBRANCH  10  12
ENDBRANCH   6  10
BRANCH   8  14
HETATM   14  C1  UNK     1      -4.956  -1.335   0.955  1.00  0.00     0.054 C 
HETATM   15  C4  UNK     1      -6.018  -0.335   1.490  1.00  0.00     0.020 C 
BRANCH  14  16
HETATM   16  C3  UNK     1      -5.127  -2.766   1.504  1.00  0.00    -0.050 A 
HETATM   17  C9  UNK     1      -4.729  -3.813   0.715  1.00  0.00     0.008 A 
HETATM   18  C13 UNK     1      -4.884  -5.108   1.212  1.00  0.00     0.001 A 
HETATM   19  C18 UNK     1      -5.430  -5.308   2.479  1.00  0.00     0.000 A 
HETATM   20  C12 UNK     1      -5.823  -4.214   3.250  1.00  0.00     0.001 A 
HETATM   21  C8  UNK     1      -5.668  -2.919   2.754  1.00  0.00     0.008 A 
ENDBRANCH  14  16
ENDBRANCH   8  14
ENDBRANCH   2   5
BRANCH   3  22
HETATM   22  C10 UNK     1       1.222   1.104  -1.798  1.00  0.00     0.108 A 
HETATM   23  C17 UNK     1       1.271   1.775  -2.954  1.00  0.00     0.037 A 
HETATM   24  C11 UNK     1       2.530   2.327  -3.429  1.00  0.00     0.002 A 
HETATM   25  C15 UNK     1       3.677   2.143  -2.664  1.00  0.00     0.123 A 
HETATM   26  C21 UNK     1       2.628   3.036  -4.629  1.00  0.00     0.014 A 
HETATM   27  C19 UNK     1       4.914   2.645  -3.062  1.00  0.00     0.103 A 
HETATM   28  O1  UNK     1       3.620   1.434  -1.448  1.00  0.00    -0.271 OA
HETATM   29  C22 UNK     1       5.002   3.350  -4.261  1.00  0.00     0.040 A 
HETATM   30  C23 UNK     1       3.862   3.545  -5.043  1.00  0.00     0.004 A 
HETATM   31  C20 UNK     1       2.429   0.896  -0.967  1.00  0.00     0.304 A 
HETATM   32  O6  UNK     1       2.389   0.281   0.094  1.00  0.00    -0.259 OA
BRANCH  27  33
HETATM   33  O2  UNK     1       6.028   2.457  -2.305  1.00  0.00    -0.349 OA
BRANCH  33  34
HETATM   34  C24 UNK     1       7.277   2.381  -2.991  1.00  0.00     0.171 C 
HETATM   35  C26 UNK     1       8.220   1.500  -2.201  1.00  0.00     0.034 C 
ENDBRANCH  33  34
ENDBRANCH  27  33
ENDBRANCH   3  22
TORSDOF 8
