REMARK  4 active torsions:
REMARK  status: ('A' for Active; 'I' for Inactive)
REMARK    1  A    between atoms: C14_22  and  O4_5 
REMARK    2  A    between atoms: C1_9  and  C10_18 
REMARK    3  A    between atoms: C11_19  and  C4_12 
REMARK    4  A    between atoms: C14_22  and  C8_16 
ROOT
HETATM    1  O2  UNK     1      -2.669   2.164   0.719  1.00  0.00    -0.293 OA
HETATM    2  N1  UNK     1      -0.990  -2.090   1.923  1.00  0.00    -0.362 N 
HETATM    3  C1  UNK     1      -3.850  -1.155  -0.331  1.00  0.00     0.056 C 
HETATM    4  C2  UNK     1      -1.711   0.056   1.229  1.00  0.00     0.024 C 
HETATM    5  C3  UNK     1      -3.173  -1.940   0.805  1.00  0.00     0.069 C 
HETATM    6  C4  UNK     1      -0.414   0.682   1.731  1.00  0.00     0.104 C 
HETATM    7  C5  UNK     1      -1.927  -1.272   1.322  1.00  0.00     0.021 C 
HETATM    8  C6  UNK     1      -4.033   0.306   0.096  1.00  0.00     0.095 C 
HETATM    9  C7  UNK     1      -2.780   0.938   0.671  1.00  0.00     0.159 C 
HETATM   10  C8  UNK     1       0.471  -0.314   2.486  1.00  0.00     0.052 C 
HETATM   11  C9  UNK     1       0.164  -1.631   2.540  1.00  0.00     0.018 C 
HETATM   12  C12 UNK     1       0.956  -2.691   3.256  1.00  0.00     0.069 C 
HETATM   13  H7  UNK     1      -1.197  -3.080   1.987  1.00  0.00     0.165 HD
ENDROOT
BRANCH   6  14
HETATM   14  C11 UNK     1       0.346   1.288   0.581  1.00  0.00     0.029 A 
HETATM   15  C13 UNK     1       0.815   0.394  -0.508  1.00  0.00     0.194 A 
HETATM   16  O5  UNK     1       0.603  -0.811  -0.498  1.00  0.00    -0.287 OA
HETATM   17  C17 UNK     1       1.555   1.039  -1.609  1.00  0.00     0.050 A 
HETATM   18  C19 UNK     1       1.768   2.417  -1.568  1.00  0.00     0.089 A 
HETATM   19  C21 UNK     1       2.038   0.284  -2.680  1.00  0.00     0.042 A 
HETATM   20  O3  UNK     1       1.315   3.207  -0.540  1.00  0.00    -0.321 OA
HETATM   21  C22 UNK     1       2.465   3.048  -2.598  1.00  0.00     0.040 A 
HETATM   22  C16 UNK     1       0.628   2.593   0.478  1.00  0.00     0.154 A 
HETATM   23  C24 UNK     1       2.949   2.296  -3.669  1.00  0.00     0.026 A 
HETATM   24  C23 UNK     1       2.736   0.917  -3.710  1.00  0.00     0.035 A 
HETATM   25 Cl1  UNK     1       3.335  -0.004  -5.035  1.00  0.00    -0.084 Cl
ENDBRANCH   6  14
BRANCH  10  26
HETATM   26  C14 UNK     1       1.663   0.244   3.146  1.00  0.00     0.291 C 
HETATM   27  O6  UNK     1       1.660   0.658   4.290  1.00  0.00    -0.260 OA
BRANCH  26  28
HETATM   28  O4  UNK     1       2.695   0.202   2.270  1.00  0.00    -0.323 OA
HETATM   29  C25 UNK     1       3.935   0.713   2.770  1.00  0.00     0.213 C 
ENDBRANCH  26  28
ENDBRANCH  10  26
BRANCH   3  30
HETATM   30  C10 UNK     1      -3.156  -1.390  -1.671  1.00  0.00     0.057 A 
HETATM   31  O1  UNK     1      -2.217  -0.479  -2.014  1.00  0.00    -0.327 OA
HETATM   32  C20 UNK     1      -1.734  -0.872  -3.221  1.00  0.00     0.142 A 
HETATM   33  C18 UNK     1      -2.361  -2.022  -3.641  1.00  0.00     0.027 A 
HETATM   34  C15 UNK     1      -3.289  -2.357  -2.626  1.00  0.00     0.035 A 
ENDBRANCH   3  30
TORSDOF 4
