REMARK  2 active torsions:
REMARK  status: ('A' for Active; 'I' for Inactive)
REMARK    1  A    between atoms: C3_8  and  O2_2 
REMARK    2  A    between atoms: C4_9  and  N1_5 
ROOT
HETATM    1  O1  UNK     1      -0.597   0.088  -1.900  1.00  0.00    -0.308 OA
HETATM    2  C1  UNK     1       0.980   0.618  -0.122  1.00  0.00     0.034 A 
HETATM    3  C2  UNK     1       0.606   0.599  -1.471  1.00  0.00     0.089 A 
HETATM    4  C3  UNK     1       0.051   0.070   0.877  1.00  0.00     0.114 A 
HETATM    5  C4  UNK     1      -1.117  -0.424   0.428  1.00  0.00     0.169 A 
HETATM    6  C5  UNK     1      -1.502  -0.443  -0.974  1.00  0.00     0.102 A 
HETATM    7  C6  UNK     1       2.229   1.160   0.217  1.00  0.00     0.017 A 
HETATM    8  C7  UNK     1       1.452   1.106  -2.461  1.00  0.00     0.038 A 
HETATM    9  C8  UNK     1       3.076   1.668  -0.771  1.00  0.00     0.001 A 
HETATM   10  C9  UNK     1       2.688   1.641  -2.109  1.00  0.00     0.003 A 
HETATM   11  C10 UNK     1      -2.654  -0.926  -1.462  1.00  0.00     0.054 C 
ENDROOT
BRANCH   5  12
HETATM   12  N1  UNK     1      -2.004  -0.955   1.417  1.00  0.00    -0.110 N 
HETATM   13  O3  UNK     1      -2.815  -0.170   1.918  1.00  0.00    -0.532 OA
HETATM   14  O4  UNK     1      -1.886  -2.154   1.687  1.00  0.00    -0.532 OA
ENDBRANCH   5  12
BRANCH   4  15
HETATM   15  O2  UNK     1       0.492   0.130   2.179  1.00  0.00    -0.357 OA
HETATM   16  H7  UNK     1      -0.184  -0.251   2.763  1.00  0.00     0.217 HD
ENDBRANCH   4  15
TORSDOF 2
