REMARK  3 active torsions:
REMARK  status: ('A' for Active; 'I' for Inactive)
REMARK    1  A    between atoms: C4_9  and  N1_5 
REMARK       I    between atoms: C6_11  and  N1_5 
REMARK    2  A    between atoms: C2_7  and  C6_11 
REMARK    3  A    between atoms: C4_9  and  C7_12 
ROOT
HETATM    1  O1  UNK     1       0.881   0.707  -2.524  1.00  0.00    -0.274 OA
HETATM    2  O3  UNK     1      -0.892  -0.533  -1.789  1.00  0.00    -0.259 OA
HETATM    3  C1  UNK     1       2.503   1.549  -0.920  1.00  0.00    -0.001 A 
HETATM    4  C2  UNK     1       0.625   0.234  -0.138  1.00  0.00     0.108 A 
HETATM    5  C3  UNK     1       2.055   1.428  -2.232  1.00  0.00     0.089 A 
HETATM    6  C5  UNK     1       1.740   0.918   0.145  1.00  0.00     0.037 A 
HETATM    7  C8  UNK     1       3.672   2.272  -0.671  1.00  0.00     0.014 A 
HETATM    8  C9  UNK     1       0.130   0.092  -1.526  1.00  0.00     0.304 A 
HETATM    9  C10 UNK     1       2.740   2.009  -3.298  1.00  0.00     0.038 A 
HETATM   10  C11 UNK     1       4.370   2.860  -1.730  1.00  0.00     0.001 A 
HETATM   11  C12 UNK     1       3.905   2.729  -3.040  1.00  0.00     0.003 A 
ENDROOT
BRANCH   4  12
HETATM   12  C6  UNK     1      -0.076  -0.365   1.004  1.00  0.00     0.258 C 
HETATM   13  O2  UNK     1      -0.027   0.153   2.117  1.00  0.00    -0.267 OA
HETATM   14  N1  UNK     1      -0.754  -1.524   0.671  1.00  0.00    -0.352 N 
HETATM   15  H4  UNK     1      -0.719  -1.882  -0.278  1.00  0.00     0.163 HD
BRANCH  14  16
HETATM   16  C4  UNK     1      -1.515  -2.294   1.628  1.00  0.00     0.169 C 
BRANCH  16  17
HETATM   17  C7  UNK     1      -2.957  -1.876   1.666  1.00  0.00     0.000 A 
HETATM   18  C13 UNK     1      -3.859  -1.893   0.643  1.00  0.00     0.017 A 
HETATM   19  C14 UNK     1      -5.133  -1.420   1.068  1.00  0.00     0.008 A 
HETATM   20  C15 UNK     1      -5.137  -1.065   2.399  1.00  0.00     0.050 A 
HETATM   21  S1  UNK     1      -3.607  -1.303   3.131  1.00  0.00    -0.105 SA
ENDBRANCH  16  17
ENDBRANCH  14  16
ENDBRANCH   4  12
TORSDOF 3
