REMARK  7 active torsions:
REMARK  status: ('A' for Active; 'I' for Inactive)
REMARK    1  A    between atoms: C2_8  and  N1_4 
REMARK    2  A    between atoms: C12_18  and  N2_5 
REMARK    3  A    between atoms: C3_9  and  N2_5 
REMARK    4  A    between atoms: C12_18  and  N3_6 
REMARK    5  A    between atoms: C6_12  and  N3_6 
REMARK    6  A    between atoms: C1_7  and  C2_8 
REMARK    7  A    between atoms: C1_7  and  C3_9 
ROOT
HETATM    1  O1  UNK     1      -3.554  -1.733   0.168  1.00  0.00    -0.275 OA
HETATM    2  O2  UNK     1      -5.633  -2.608   0.542  1.00  0.00    -0.260 OA
HETATM    3  C4  UNK     1      -2.193  -1.033   2.073  1.00  0.00     0.004 A 
HETATM    4  C5  UNK     1      -2.366  -1.189   0.696  1.00  0.00     0.092 A 
HETATM    5  C6  UNK     1      -0.190  -0.278   0.237  1.00  0.00     0.036 A 
HETATM    6  C7  UNK     1      -3.280  -1.449   2.970  1.00  0.00    -0.043 A 
HETATM    7  C10 UNK     1      -1.384  -0.820  -0.225  1.00  0.00     0.067 A 
HETATM    8  C11 UNK     1      -0.983  -0.485   2.518  1.00  0.00     0.017 A 
HETATM    9  C13 UNK     1       0.011  -0.111   1.606  1.00  0.00     0.030 A 
HETATM   10  C14 UNK     1      -4.399  -1.963   2.440  1.00  0.00     0.090 A 
HETATM   11  C15 UNK     1      -3.125  -1.294   4.455  1.00  0.00     0.049 C 
HETATM   12  C16 UNK     1      -4.596  -2.134   0.990  1.00  0.00     0.288 A 
ENDROOT
BRANCH   5  13
HETATM   13  N3  UNK     1       0.805   0.096  -0.666  1.00  0.00    -0.333 N 
HETATM   14  H17 UNK     1       1.708   0.196  -0.213  1.00  0.00     0.168 HD
BRANCH  13  15
HETATM   15  C12 UNK     1       0.759   0.643  -1.961  1.00  0.00     0.172 C 
HETATM   16  S1  UNK     1      -0.602   1.073  -2.847  1.00  0.00    -0.041 SA
BRANCH  15  17
HETATM   17  N2  UNK     1       1.993   0.883  -2.550  1.00  0.00    -0.367 N 
HETATM   18  H7  UNK     1       1.979   1.292  -3.480  1.00  0.00     0.161 HD
BRANCH  17  19
HETATM   19  C3  UNK     1       3.301   0.632  -1.975  1.00  0.00     0.123 C 
BRANCH  19  20
HETATM   20  C1  UNK     1       3.799   1.796  -1.121  1.00  0.00     0.050 C 
BRANCH  20  21
HETATM   21  C2  UNK     1       3.975   3.111  -1.887  1.00  0.00     0.273 C 
BRANCH  21  22
HETATM   22  N1  UNK     1       4.927   2.981  -2.983  1.00  0.00     0.080 N 
HETATM   23  C8  UNK     1       6.246   2.598  -2.477  1.00  0.00     0.309 C 
HETATM   24  C9  UNK     1       5.017   4.231  -3.739  1.00  0.00     0.309 C 
ENDBRANCH  21  22
ENDBRANCH  20  21
ENDBRANCH  19  20
ENDBRANCH  17  19
ENDBRANCH  15  17
ENDBRANCH  13  15
ENDBRANCH   5  13
TORSDOF 7
