REMARK  4 active torsions:
REMARK  status: ('A' for Active; 'I' for Inactive)
REMARK    1  A    between atoms: C17_22  and  O2_2 
REMARK    2  A    between atoms: C6_11  and  O2_2 
REMARK    3  A    between atoms: C5_10  and  N1_5 
REMARK       I    between atoms: C7_12  and  N1_5 
REMARK    4  A    between atoms: C2_7  and  C7_12 
ROOT
HETATM    1  O3  UNK     1       2.314   0.115   1.670  1.00  0.00    -0.267 OA
HETATM    2  N1  UNK     1       0.080   0.192   0.928  1.00  0.00    -0.320 N 
HETATM    3  C7  UNK     1       1.457   0.333   0.816  1.00  0.00     0.262 C 
HETATM    4  H2  UNK     1      -0.500   0.434   0.128  1.00  0.00     0.169 HD
ENDROOT
BRANCH   2   5
HETATM    5  C5  UNK     1      -0.655  -0.237   2.060  1.00  0.00     0.069 A 
HETATM    6  C11 UNK     1       0.036  -0.565   3.215  1.00  0.00     0.032 A 
HETATM    7  C15 UNK     1      -0.674  -0.990   4.338  1.00  0.00     0.002 A 
HETATM    8  C16 UNK     1      -2.065  -1.080   4.291  1.00  0.00     0.003 A 
HETATM    9  C12 UNK     1      -2.746  -0.746   3.120  1.00  0.00     0.039 A 
HETATM   10  C6  UNK     1      -2.036  -0.321   1.997  1.00  0.00     0.102 A 
BRANCH  10  11
HETATM   11  O2  UNK     1      -2.720   0.002   0.863  1.00  0.00    -0.309 OA
BRANCH  11  12
HETATM   12  C17 UNK     1      -3.494  -0.985   0.278  1.00  0.00     0.076 A 
HETATM   13  C18 UNK     1      -2.969  -2.256   0.132  1.00  0.00     0.037 A 
HETATM   14  C20 UNK     1      -3.748  -3.251  -0.459  1.00  0.00     0.003 A 
HETATM   15  C22 UNK     1      -5.040  -2.957  -0.895  1.00  0.00     0.000 A 
HETATM   16  C21 UNK     1      -5.553  -1.669  -0.740  1.00  0.00     0.003 A 
HETATM   17  C19 UNK     1      -4.773  -0.675  -0.149  1.00  0.00     0.037 A 
ENDBRANCH  11  12
ENDBRANCH  10  11
ENDBRANCH   2   5
BRANCH   3  18
HETATM   18  C2  UNK     1       1.859   0.800  -0.516  1.00  0.00     0.108 A 
HETATM   19  C4  UNK     1       2.975   1.536  -0.573  1.00  0.00     0.037 A 
HETATM   20  C1  UNK     1       3.453   2.046  -1.848  1.00  0.00    -0.001 A 
HETATM   21  C3  UNK     1       2.733   1.756  -3.002  1.00  0.00     0.089 A 
HETATM   22  C8  UNK     1       4.613   2.818  -1.954  1.00  0.00     0.014 A 
HETATM   23  C10 UNK     1       3.137   2.214  -4.254  1.00  0.00     0.038 A 
HETATM   24  O1  UNK     1       1.558   0.981  -2.936  1.00  0.00    -0.274 OA
HETATM   25  C14 UNK     1       4.294   2.983  -4.351  1.00  0.00     0.003 A 
HETATM   26  C13 UNK     1       5.031   3.285  -3.204  1.00  0.00     0.001 A 
HETATM   27  C9  UNK     1       1.076   0.479  -1.731  1.00  0.00     0.304 A 
HETATM   28  O4  UNK     1       0.052  -0.194  -1.683  1.00  0.00    -0.259 OA
ENDBRANCH   3  18
TORSDOF 4
