REMARK  4 active torsions:
REMARK  status: ('A' for Active; 'I' for Inactive)
REMARK    1  A    between atoms: C18_27  and  O5_5 
REMARK    2  A    between atoms: C9_18  and  N1_7 
REMARK    3  A    between atoms: C10_19  and  N2_8 
REMARK    4  A    between atoms: C18_27  and  C9_18 
ROOT
HETATM    1  O1  UNK     1      -2.727  -0.741  -1.000  1.00  0.00    -0.291 OA
HETATM    2  O2  UNK     1      -1.181  -1.303   2.838  1.00  0.00    -0.274 OA
HETATM    3  O3  UNK     1       1.320  -1.643  -1.069  1.00  0.00    -0.271 OA
HETATM    4  O4  UNK     1       0.750  -0.267   2.252  1.00  0.00    -0.259 OA
HETATM    5  N1  UNK     1       2.276   0.421  -0.436  1.00  0.00    -0.307 N 
HETATM    6  N3  UNK     1       0.424   1.501  -3.853  1.00  0.00    -0.191 NA
HETATM    7  C1  UNK     1      -0.102   0.302  -0.499  1.00  0.00     0.147 A 
HETATM    8  C2  UNK     1       0.392   1.660  -0.043  1.00  0.00    -0.003 A 
HETATM    9  C3  UNK     1      -0.924  -0.429   0.551  1.00  0.00     0.080 A 
HETATM   10  C4  UNK     1       1.229  -0.476  -0.716  1.00  0.00     0.248 A 
HETATM   11  C5  UNK     1       1.790   1.676  -0.038  1.00  0.00     0.046 A 
HETATM   12  C6  UNK     1      -0.797   0.377  -1.859  1.00  0.00     0.100 A 
HETATM   13  C7  UNK     1      -2.150  -0.888   0.246  1.00  0.00     0.105 A 
HETATM   14  C8  UNK     1      -0.333   2.782   0.324  1.00  0.00     0.011 A 
HETATM   15  C10 UNK     1      -2.038  -0.130  -2.041  1.00  0.00     0.160 A 
HETATM   16  C11 UNK     1       2.502   2.804   0.330  1.00  0.00     0.030 A 
HETATM   17  C12 UNK     1      -0.369  -0.643   1.921  1.00  0.00     0.299 A 
HETATM   18  C13 UNK     1      -2.975  -1.587   1.230  1.00  0.00     0.033 A 
HETATM   19  C14 UNK     1       0.372   3.928   0.699  1.00  0.00     0.001 A 
HETATM   20  C15 UNK     1       1.777   3.938   0.702  1.00  0.00     0.002 A 
HETATM   21  C16 UNK     1      -2.463  -1.773   2.507  1.00  0.00     0.092 A 
HETATM   22  C17 UNK     1      -0.122   0.998  -2.961  1.00  0.00     0.101 C 
HETATM   23  C19 UNK     1      -4.258  -2.079   0.958  1.00  0.00     0.017 A 
HETATM   24  C20 UNK     1      -3.181  -2.427   3.509  1.00  0.00     0.038 A 
HETATM   25  C21 UNK     1      -4.993  -2.737   1.950  1.00  0.00     0.001 A 
HETATM   26  C22 UNK     1      -4.454  -2.910   3.224  1.00  0.00     0.003 A 
ENDROOT
BRANCH  15  27
HETATM   27  N2  UNK     1      -2.736  -0.104  -3.217  1.00  0.00    -0.379 N 
HETATM   28  H8  UNK     1      -2.342   0.315  -4.049  1.00  0.00     0.158 HD
HETATM   29  H9  UNK     1      -3.661  -0.513  -3.243  1.00  0.00     0.158 HD
ENDBRANCH  15  27
BRANCH   5  30
HETATM   30  C9  UNK     1       3.677   0.092  -0.544  1.00  0.00     0.243 C 
BRANCH  30  31
HETATM   31  C18 UNK     1       4.306   0.583  -1.827  1.00  0.00     0.276 C 
HETATM   32  O6  UNK     1       5.491   0.399  -2.085  1.00  0.00    -0.263 OA
BRANCH  31  33
HETATM   33  O5  UNK     1       3.417   1.233  -2.627  1.00  0.00    -0.325 OA
HETATM   34  C23 UNK     1       3.939   1.729  -3.863  1.00  0.00     0.213 C 
ENDBRANCH  31  33
ENDBRANCH  30  31
ENDBRANCH   5  30
TORSDOF 4
