REMARK  3 active torsions:
REMARK  status: ('A' for Active; 'I' for Inactive)
REMARK    1  A    between atoms: C1_5  and  N1_4 
REMARK       I    between atoms: C8_12  and  N1_4 
REMARK    2  A    between atoms: C1_5  and  C2_6 
REMARK    3  A    between atoms: C6_10  and  C8_12 
ROOT
HETATM    1  C1  UNK     1      -3.588  -2.014   1.014  1.00  0.00     0.092 C 
HETATM    2  C4  UNK     1      -3.742  -2.835  -0.276  1.00  0.00     0.053 C 
HETATM    3  C14 UNK     1      -3.655  -2.928   2.174  1.00  0.00    -0.086 C 
HETATM    4  C20 UNK     1      -3.709  -3.674   3.114  1.00  0.00     0.015 C 
ENDROOT
BRANCH   1   5
HETATM    5  N1  UNK     1      -2.297  -1.366   0.993  1.00  0.00    -0.337 N 
HETATM    6  C8  UNK     1      -1.929  -0.450   0.024  1.00  0.00     0.259 C 
HETATM    7  O2  UNK     1      -2.621  -0.072  -0.919  1.00  0.00    -0.267 OA
HETATM    8  H3  UNK     1      -1.625  -1.632   1.708  1.00  0.00     0.164 HD
BRANCH   6   9
HETATM    9  C6  UNK     1      -0.570   0.072   0.219  1.00  0.00     0.108 A 
HETATM   10  C10 UNK     1       0.094   0.429  -0.887  1.00  0.00     0.038 A 
HETATM   11  C3  UNK     1       1.457   0.965  -0.826  1.00  0.00     0.010 A 
HETATM   12  C5  UNK     1       2.214   1.364  -1.965  1.00  0.00    -0.013 A 
HETATM   13  C7  UNK     1       2.028   1.083   0.443  1.00  0.00     0.090 A 
HETATM   14  C16 UNK     1       1.748   1.295  -3.302  1.00  0.00     0.013 A 
HETATM   15  C9  UNK     1       3.530   1.868  -1.765  1.00  0.00    -0.025 A 
HETATM   16  C18 UNK     1       2.537   1.701  -4.381  1.00  0.00     0.001 A 
HETATM   17  C19 UNK     1       3.816   2.189  -4.162  1.00  0.00     0.001 A 
HETATM   18  C17 UNK     1       4.309   2.271  -2.862  1.00  0.00     0.012 A 
HETATM   19  C13 UNK     1       4.058   1.966  -0.469  1.00  0.00     0.015 A 
HETATM   20  C12 UNK     1       3.313   1.576   0.636  1.00  0.00     0.039 A 
HETATM   21  O1  UNK     1       1.324   0.705   1.606  1.00  0.00    -0.274 OA
HETATM   22  C15 UNK     1       0.033   0.197   1.559  1.00  0.00     0.304 A 
HETATM   23  O3  UNK     1      -0.567  -0.128   2.578  1.00  0.00    -0.259 OA
ENDBRANCH   6   9
ENDBRANCH   1   5
BRANCH   1  24
HETATM   24  C2  UNK     1      -4.720  -0.962   1.080  1.00  0.00     0.040 C 
HETATM   25  C11 UNK     1      -4.665  -0.039   2.296  1.00  0.00     0.009 C 
ENDBRANCH   1  24
TORSDOF 3
