REMARK  3 active torsions:
REMARK  status: ('A' for Active; 'I' for Inactive)
REMARK    1  A    between atoms: C1_5  and  N1_4 
REMARK       I    between atoms: C9_13  and  N1_4 
REMARK    2  A    between atoms: C2_6  and  C4_8 
REMARK    3  A    between atoms: C7_11  and  C9_13 
ROOT
HETATM    1  O2  UNK     1      -0.278  -1.771  -1.096  1.00  0.00    -0.267 OA
HETATM    2  N1  UNK     1      -1.245  -0.222   0.391  1.00  0.00    -0.322 N 
HETATM    3  C9  UNK     1      -0.294  -0.694  -0.504  1.00  0.00     0.262 C 
HETATM    4  H4  UNK     1      -1.184   0.745   0.701  1.00  0.00     0.169 HD
ENDROOT
BRANCH   3   5
HETATM    5  C7  UNK     1       0.792   0.271  -0.717  1.00  0.00     0.108 A 
HETATM    6  C13 UNK     1       1.379   0.244  -1.919  1.00  0.00     0.037 A 
HETATM    7  C10 UNK     1       2.465   1.162  -2.225  1.00  0.00    -0.001 A 
HETATM    8  C14 UNK     1       2.881   2.062  -1.250  1.00  0.00     0.089 A 
HETATM    9  C16 UNK     1       3.106   1.170  -3.467  1.00  0.00     0.014 A 
HETATM   10  O1  UNK     1       2.259   2.085   0.014  1.00  0.00    -0.274 OA
HETATM   11  C17 UNK     1       3.916   2.967  -1.479  1.00  0.00     0.038 A 
HETATM   12  C15 UNK     1       1.217   1.220   0.336  1.00  0.00     0.304 A 
HETATM   13  O3  UNK     1       0.683   1.246   1.440  1.00  0.00    -0.259 OA
HETATM   14  C19 UNK     1       4.549   2.968  -2.719  1.00  0.00     0.003 A 
HETATM   15  C18 UNK     1       4.146   2.072  -3.711  1.00  0.00     0.001 A 
ENDBRANCH   3   5
BRANCH   2  16
HETATM   16  C1  UNK     1      -2.420  -0.880   0.828  1.00  0.00     0.047 A 
HETATM   17  C2  UNK     1      -2.370  -1.688   1.954  1.00  0.00    -0.031 A 
HETATM   18  C5  UNK     1      -3.528  -2.335   2.385  1.00  0.00     0.009 A 
HETATM   19  C8  UNK     1      -4.723  -2.166   1.685  1.00  0.00     0.001 A 
HETATM   20  C6  UNK     1      -4.759  -1.349   0.555  1.00  0.00     0.009 A 
HETATM   21  C3  UNK     1      -3.601  -0.703   0.124  1.00  0.00    -0.035 A 
HETATM   22  C11 UNK     1      -3.673   0.166  -1.091  1.00  0.00     0.050 C 
BRANCH  17  23
HETATM   23  C4  UNK     1      -1.105  -1.890   2.724  1.00  0.00     0.036 C 
HETATM   24  C12 UNK     1      -0.934  -0.857   3.834  1.00  0.00     0.010 C 
ENDBRANCH  17  23
ENDBRANCH   2  16
TORSDOF 3
