REMARK  3 active torsions:
REMARK  status: ('A' for Active; 'I' for Inactive)
REMARK    1  A    between atoms: C1_8  and  N1_6 
REMARK       I    between atoms: C4_11  and  N1_6 
REMARK    2  A    between atoms: C12_19  and  N2_7 
REMARK    3  A    between atoms: C4_11  and  C5_12 
ROOT
HETATM    1  O1  UNK     1      -1.024   0.019  -1.902  1.00  0.00    -0.274 OA
HETATM    2  O3  UNK     1       0.728   1.045  -2.949  1.00  0.00    -0.259 OA
HETATM    3  C5  UNK     1       0.909   0.763  -0.604  1.00  0.00     0.108 A 
HETATM    4  C6  UNK     1       0.356   0.313   0.529  1.00  0.00     0.037 A 
HETATM    5  C7  UNK     1      -0.952  -0.324   0.503  1.00  0.00     0.001 A 
HETATM    6  C8  UNK     1      -1.612  -0.456  -0.714  1.00  0.00     0.089 A 
HETATM    7  C9  UNK     1       0.225   0.633  -1.910  1.00  0.00     0.304 A 
HETATM    8  C10 UNK     1      -1.567  -0.808   1.660  1.00  0.00     0.050 A 
HETATM    9  C11 UNK     1      -2.866  -1.057  -0.807  1.00  0.00     0.041 A 
HETATM   10  C12 UNK     1      -2.825  -1.413   1.583  1.00  0.00     0.103 A 
HETATM   11  C13 UNK     1      -3.473  -1.537   0.352  1.00  0.00     0.039 A 
ENDROOT
BRANCH   3  12
HETATM   12  C4  UNK     1       2.230   1.392  -0.475  1.00  0.00     0.258 C 
HETATM   13  O2  UNK     1       2.550   1.983   0.554  1.00  0.00    -0.267 OA
HETATM   14  N1  UNK     1       3.011   1.236  -1.606  1.00  0.00    -0.352 N 
HETATM   15  H6  UNK     1       2.672   0.699  -2.399  1.00  0.00     0.163 HD
BRANCH  14  16
HETATM   16  C1  UNK     1       4.350   1.770  -1.718  1.00  0.00     0.084 A 
HETATM   17  C2  UNK     1       4.937   2.062  -3.055  1.00  0.00     0.027 A 
HETATM   18  C3  UNK     1       4.564   3.185  -2.132  1.00  0.00     0.027 A 
ENDBRANCH  14  16
ENDBRANCH   3  12
BRANCH  10  19
HETATM   19  N2  UNK     1      -3.448  -1.903   2.761  1.00  0.00    -0.116 N 
HETATM   20  O4  UNK     1      -4.577  -2.443   2.672  1.00  0.00    -0.532 OA
HETATM   21  O5  UNK     1      -2.851  -1.784   3.859  1.00  0.00    -0.532 OA
ENDBRANCH  10  19
TORSDOF 3
