REMARK  4 active torsions:
REMARK  status: ('A' for Active; 'I' for Inactive)
REMARK    1  A    between atoms: C5_9  and  O1_1 
REMARK    2  A    between atoms: C6_10  and  O1_1 
REMARK    3  A    between atoms: C11_15  and  O3_3 
REMARK    4  A    between atoms: C20_24  and  O3_3 
ROOT
HETATM    1  O2  UNK     1      -0.179  -2.098   1.731  1.00  0.00    -0.319 OA
HETATM    2  O4  UNK     1      -0.459   1.822   0.623  1.00  0.00    -0.284 OA
HETATM    3  C1  UNK     1      -1.565  -0.228   1.027  1.00  0.00     0.051 A 
HETATM    4  C2  UNK     1      -1.403  -1.560   1.413  1.00  0.00     0.092 A 
HETATM    5  C6  UNK     1       0.912   0.017   1.307  1.00  0.00     0.149 A 
HETATM    6  C7  UNK     1      -0.380   0.647   0.954  1.00  0.00     0.220 A 
HETATM    7  C9  UNK     1      -2.835   0.265   0.715  1.00  0.00     0.021 A 
HETATM    8  C10 UNK     1      -2.510  -2.405   1.489  1.00  0.00     0.075 A 
HETATM    9  C11 UNK     1      -3.778  -1.915   1.178  1.00  0.00     0.071 A 
HETATM   10  C14 UNK     1      -3.940  -0.583   0.792  1.00  0.00     0.038 A 
HETATM   11  C17 UNK     1       0.916  -1.272   1.659  1.00  0.00     0.184 A 
ENDROOT
BRANCH   5  12
HETATM   12  O1  UNK     1       2.057   0.761   1.266  1.00  0.00    -0.305 OA
BRANCH  12  13
HETATM   13  C5  UNK     1       2.417   1.317   0.077  1.00  0.00     0.077 A 
HETATM   14  C13 UNK     1       2.844   2.641   0.029  1.00  0.00     0.038 A 
HETATM   15  C12 UNK     1       3.213   3.213  -1.189  1.00  0.00     0.015 A 
HETATM   16  C4  UNK     1       3.161   2.465  -2.377  1.00  0.00    -0.026 A 
HETATM   17  C16 UNK     1       3.530   3.023  -3.612  1.00  0.00     0.012 A 
HETATM   18  C3  UNK     1       2.728   1.118  -2.328  1.00  0.00    -0.023 A 
HETATM   19  C19 UNK     1       3.472   2.265  -4.781  1.00  0.00     0.001 A 
HETATM   20  C18 UNK     1       3.045   0.941  -4.733  1.00  0.00     0.001 A 
HETATM   21  C15 UNK     1       2.675   0.370  -3.515  1.00  0.00     0.012 A 
HETATM   22  C8  UNK     1       2.359   0.560  -1.093  1.00  0.00     0.049 A 
ENDBRANCH  12  13
ENDBRANCH   5  12
BRANCH   9  23
HETATM   23  O3  UNK     1      -4.861  -2.737   1.250  1.00  0.00    -0.351 OA
BRANCH  23  24
HETATM   24  C20 UNK     1      -6.113  -2.134   1.575  1.00  0.00     0.171 C 
HETATM   25  C21 UNK     1      -6.975  -3.146   2.299  1.00  0.00     0.034 C 
ENDBRANCH  23  24
ENDBRANCH   9  23
TORSDOF 4
