REMARK  5 active torsions:
REMARK  status: ('A' for Active; 'I' for Inactive)
REMARK    1  A    between atoms: C10_17  and  O3_3 
REMARK    2  A    between atoms: C19_26  and  O3_3 
REMARK    3  A    between atoms: C7_14  and  N1_6 
REMARK    4  A    between atoms: C1_8  and  C5_12 
REMARK    5  A    between atoms: C10_17  and  C3_10 
ROOT
HETATM    1  O1  UNK     1       0.315  -0.323  -2.279  1.00  0.00    -0.292 OA
HETATM    2  O2  UNK     1       2.083   2.572   0.171  1.00  0.00    -0.274 OA
HETATM    3  O4  UNK     1       0.428   2.284   1.713  1.00  0.00    -0.259 OA
HETATM    4  C1  UNK     1      -0.905   0.177   0.272  1.00  0.00     0.105 C 
HETATM    5  C2  UNK     1       0.332   0.904  -0.221  1.00  0.00     0.066 A 
HETATM    6  C3  UNK     1      -1.544  -0.655  -0.827  1.00  0.00     0.081 C 
HETATM    7  C4  UNK     1       0.861   0.616  -1.420  1.00  0.00     0.104 A 
HETATM    8  C6  UNK     1       2.070   1.284  -1.893  1.00  0.00     0.033 A 
HETATM    9  C7  UNK     1      -0.938  -0.879  -2.013  1.00  0.00     0.155 C 
HETATM   10  C8  UNK     1       0.926   1.961   0.639  1.00  0.00     0.298 A 
HETATM   11  C9  UNK     1       2.654   2.247  -1.074  1.00  0.00     0.092 A 
HETATM   12  C13 UNK     1       2.678   1.008  -3.124  1.00  0.00     0.017 A 
HETATM   13  C14 UNK     1       3.812   2.931  -1.443  1.00  0.00     0.038 A 
HETATM   14  C15 UNK     1       3.840   1.686  -3.508  1.00  0.00     0.001 A 
HETATM   15  C17 UNK     1       4.406   2.645  -2.668  1.00  0.00     0.003 A 
ENDROOT
BRANCH   4  16
HETATM   16  C5  UNK     1      -0.567  -0.690   1.449  1.00  0.00    -0.027 A 
HETATM   17  C11 UNK     1      -1.157  -0.466   2.681  1.00  0.00     0.011 A 
HETATM   18  C16 UNK     1      -0.825  -1.287   3.753  1.00  0.00     0.020 A 
HETATM   19  C18 UNK     1       0.091  -2.303   3.533  1.00  0.00     0.116 A 
HETATM   20  N2  UNK     1       0.681  -2.544   2.340  1.00  0.00    -0.273 NA
HETATM   21  C12 UNK     1       0.334  -1.726   1.322  1.00  0.00     0.124 A 
ENDBRANCH   4  16
BRANCH   6  22
HETATM   22  C10 UNK     1      -2.888  -1.190  -0.546  1.00  0.00     0.294 C 
HETATM   23  O5  UNK     1      -3.311  -2.221  -1.034  1.00  0.00    -0.259 OA
BRANCH  22  24
HETATM   24  O3  UNK     1      -3.511  -0.349   0.313  1.00  0.00    -0.318 OA
BRANCH  24  25
HETATM   25  C19 UNK     1      -4.837  -0.736   0.685  1.00  0.00     0.174 C 
HETATM   26  C20 UNK     1      -5.402   0.292   1.642  1.00  0.00     0.034 C 
ENDBRANCH  24  25
ENDBRANCH  22  24
ENDBRANCH   6  22
BRANCH   9  27
HETATM   27  N1  UNK     1      -1.430  -1.623  -3.047  1.00  0.00    -0.379 N 
HETATM   28  H6  UNK     1      -0.878  -1.715  -3.891  1.00  0.00     0.158 HD
HETATM   29  H7  UNK     1      -2.332  -2.075  -2.975  1.00  0.00     0.158 HD
ENDBRANCH   9  27
TORSDOF 5
