REMARK  3 active torsions:
REMARK  status: ('A' for Active; 'I' for Inactive)
REMARK       I    between atoms: C11_15  and  N1_4 
REMARK    1  A    between atoms: C3_7  and  N1_4 
REMARK    2  A    between atoms: C1_5  and  C2_6 
REMARK    3  A    between atoms: C11_15  and  C12_16 
ROOT
HETATM    1  O2  UNK     1      -0.005  -1.763  -0.927  1.00  0.00    -0.267 OA
HETATM    2  N1  UNK     1      -1.243  -0.069   0.142  1.00  0.00    -0.322 N 
HETATM    3  C11 UNK     1      -0.158  -0.607  -0.536  1.00  0.00     0.262 C 
HETATM    4  H9  UNK     1      -1.279   0.938   0.282  1.00  0.00     0.169 HD
ENDROOT
BRANCH   3   5
HETATM    5  C12 UNK     1       0.892   0.390  -0.780  1.00  0.00     0.108 A 
HETATM    6  C14 UNK     1       1.633   0.211  -1.880  1.00  0.00     0.037 A 
HETATM    7  C13 UNK     1       2.698   1.146  -2.206  1.00  0.00    -0.001 A 
HETATM    8  C15 UNK     1       2.931   2.224  -1.358  1.00  0.00     0.089 A 
HETATM    9  C17 UNK     1       3.496   0.998  -3.344  1.00  0.00     0.014 A 
HETATM   10  O1  UNK     1       2.147   2.407  -0.202  1.00  0.00    -0.274 OA
HETATM   11  C18 UNK     1       3.936   3.155  -1.613  1.00  0.00     0.038 A 
HETATM   12  C16 UNK     1       1.121   1.529   0.136  1.00  0.00     0.304 A 
HETATM   13  O3  UNK     1       0.445   1.696   1.146  1.00  0.00    -0.259 OA
HETATM   14  C20 UNK     1       4.727   3.000  -2.750  1.00  0.00     0.003 A 
HETATM   15  C19 UNK     1       4.508   1.925  -3.613  1.00  0.00     0.001 A 
ENDBRANCH   3   5
BRANCH   2  16
HETATM   16  C3  UNK     1      -2.429  -0.733   0.541  1.00  0.00     0.047 A 
HETATM   17  C2  UNK     1      -2.482  -1.340   1.786  1.00  0.00    -0.027 A 
HETATM   18  C7  UNK     1      -3.650  -1.995   2.179  1.00  0.00     0.010 A 
HETATM   19  C9  UNK     1      -4.749  -2.035   1.321  1.00  0.00     0.001 A 
HETATM   20  C8  UNK     1      -4.681  -1.420   0.071  1.00  0.00     0.009 A 
HETATM   21  C4  UNK     1      -3.514  -0.766  -0.322  1.00  0.00    -0.035 A 
HETATM   22  C10 UNK     1      -3.472  -0.117  -1.667  1.00  0.00     0.050 C 
BRANCH  17  23
HETATM   23  C1  UNK     1      -1.321  -1.315   2.727  1.00  0.00     0.013 C 
HETATM   24  C5  UNK     1      -0.784  -2.725   3.032  1.00  0.00     0.015 C 
HETATM   25  C6  UNK     1      -1.647  -0.581   4.040  1.00  0.00     0.015 C 
ENDBRANCH  17  23
ENDBRANCH   2  16
TORSDOF 3
