REMARK  2 active torsions:
REMARK  status: ('A' for Active; 'I' for Inactive)
REMARK    1  A    between atoms: C4_8  and  O2_2 
REMARK    2  A    between atoms: C6_10  and  O3_3 
ROOT
HETATM    1  O1  UNK     1      -1.210  -0.489   1.675  1.00  0.00    -0.275 OA
HETATM    2  O4  UNK     1      -3.226  -1.388   2.288  1.00  0.00    -0.260 OA
HETATM    3  C1  UNK     1      -0.696  -0.240  -0.691  1.00  0.00     0.001 A 
HETATM    4  C2  UNK     1      -0.334  -0.091   0.645  1.00  0.00     0.092 A 
HETATM    5  C3  UNK     1       0.200   0.167  -1.682  1.00  0.00     0.054 A 
HETATM    6  C4  UNK     1       1.437   0.712  -1.325  1.00  0.00     0.102 A 
HETATM    7  C5  UNK     1       0.895   0.451   1.016  1.00  0.00     0.077 A 
HETATM    8  C6  UNK     1       1.783   0.854   0.020  1.00  0.00     0.101 A 
HETATM    9  C7  UNK     1      -1.993  -0.813  -1.005  1.00  0.00     0.020 A 
HETATM   10  C8  UNK     1      -2.818  -1.187  -0.024  1.00  0.00     0.083 A 
HETATM   11  C9  UNK     1      -2.458  -1.039   1.398  1.00  0.00     0.288 A 
ENDROOT
BRANCH   6  12
HETATM   12  O2  UNK     1       2.300   1.103  -2.304  1.00  0.00    -0.353 OA
HETATM   13  C10 UNK     1       2.197   2.450  -2.759  1.00  0.00     0.210 C 
ENDBRANCH   6  12
BRANCH   8  14
HETATM   14  O3  UNK     1       2.988   1.384   0.371  1.00  0.00    -0.358 OA
HETATM   15  H5  UNK     1       3.492   1.569  -0.439  1.00  0.00     0.217 HD
ENDBRANCH   8  14
TORSDOF 2
