REMARK  6 active torsions:
REMARK  status: ('A' for Active; 'I' for Inactive)
REMARK    1  A    between atoms: C19_27  and  O5_5 
REMARK    2  A    between atoms: C22_30  and  O6_6 
REMARK       I    between atoms: C12_20  and  N2_8 
REMARK    3  A    between atoms: C24_32  and  N2_8 
REMARK    4  A    between atoms: C1_9  and  C9_17 
REMARK    5  A    between atoms: C11_19  and  C4_12 
REMARK    6  A    between atoms: C12_20  and  C8_16 
ROOT
HETATM    1  O1  UNK     1       0.343  -2.922  -0.004  1.00  0.00    -0.293 OA
HETATM    2  N1  UNK     1      -1.984   0.927  -1.493  1.00  0.00    -0.362 N 
HETATM    3  C1  UNK     1      -2.645  -1.417   1.370  1.00  0.00     0.031 C 
HETATM    4  C2  UNK     1      -3.039  -0.518   0.189  1.00  0.00     0.067 C 
HETATM    5  C3  UNK     1      -0.729  -0.930  -0.724  1.00  0.00     0.024 C 
HETATM    6  C4  UNK     1       0.454  -0.522  -1.597  1.00  0.00     0.104 C 
HETATM    7  C5  UNK     1      -1.859  -0.192  -0.692  1.00  0.00     0.021 C 
HETATM    8  C6  UNK     1      -1.860  -2.630   0.868  1.00  0.00     0.093 C 
HETATM    9  C7  UNK     1      -0.653  -2.203   0.059  1.00  0.00     0.159 C 
HETATM   10  C8  UNK     1       0.124   0.642  -2.532  1.00  0.00     0.045 C 
HETATM   11  C10 UNK     1      -1.042   1.321  -2.430  1.00  0.00     0.018 C 
HETATM   12  C15 UNK     1      -1.436   2.508  -3.267  1.00  0.00     0.069 C 
HETATM   13  H7  UNK     1      -2.849   1.452  -1.443  1.00  0.00     0.165 HD
ENDROOT
BRANCH   6  14
HETATM   14  C11 UNK     1       1.641  -0.178  -0.738  1.00  0.00     0.029 A 
HETATM   15  C16 UNK     1       1.527   0.963   0.205  1.00  0.00     0.194 A 
HETATM   16  O4  UNK     1       0.504   1.627   0.303  1.00  0.00    -0.287 OA
HETATM   17  C18 UNK     1       2.719   1.258   1.021  1.00  0.00     0.049 A 
HETATM   18  C21 UNK     1       3.859   0.468   0.867  1.00  0.00     0.089 A 
HETATM   19  C23 UNK     1       2.713   2.312   1.938  1.00  0.00     0.025 A 
HETATM   20  O2  UNK     1       3.921  -0.579  -0.018  1.00  0.00    -0.321 OA
HETATM   21  C25 UNK     1       4.999   0.728   1.629  1.00  0.00     0.039 A 
HETATM   22  C17 UNK     1       2.804  -0.841  -0.771  1.00  0.00     0.154 A 
HETATM   23  C27 UNK     1       4.994   1.780   2.545  1.00  0.00     0.009 A 
HETATM   24  C26 UNK     1       3.854   2.570   2.700  1.00  0.00    -0.061 A 
HETATM   25  C30 UNK     1       3.855   3.693   3.682  1.00  0.00     0.048 C 
ENDBRANCH   6  14
BRANCH  10  26
HETATM   26  C12 UNK     1       1.115   0.949  -3.577  1.00  0.00     0.255 C 
HETATM   27  O3  UNK     1       1.055   0.369  -4.657  1.00  0.00    -0.268 OA
HETATM   28  N2  UNK     1       2.027   1.906  -3.161  1.00  0.00    -0.323 N 
HETATM   29  H15 UNK     1       1.907   2.279  -2.223  1.00  0.00     0.169 HD
BRANCH  28  30
HETATM   30  C24 UNK     1       3.112   2.439  -3.899  1.00  0.00     0.041 A 
HETATM   31  C28 UNK     1       3.937   3.396  -3.333  1.00  0.00    -0.035 A 
HETATM   32  C32 UNK     1       5.000   3.909  -4.076  1.00  0.00     0.009 A 
HETATM   33  C34 UNK     1       3.721   3.899  -1.942  1.00  0.00     0.050 C 
HETATM   34  C36 UNK     1       5.223   3.457  -5.377  1.00  0.00     0.001 A 
HETATM   35  C35 UNK     1       4.384   2.492  -5.934  1.00  0.00     0.002 A 
HETATM   36  C29 UNK     1       3.321   1.979  -5.190  1.00  0.00     0.030 A 
ENDBRANCH  28  30
ENDBRANCH  10  26
BRANCH   3  37
HETATM   37  C9  UNK     1      -3.847  -1.816   2.204  1.00  0.00    -0.050 A 
HETATM   38  C13 UNK     1      -4.869  -2.571   1.632  1.00  0.00     0.047 A 
HETATM   39  C19 UNK     1      -5.975  -2.938   2.399  1.00  0.00     0.102 A 
HETATM   40  C22 UNK     1      -6.057  -2.549   3.736  1.00  0.00     0.101 A 
HETATM   41  C20 UNK     1      -5.033  -1.794   4.306  1.00  0.00     0.040 A 
HETATM   42  C14 UNK     1      -3.927  -1.427   3.540  1.00  0.00     0.010 A 
BRANCH  39  43
HETATM   43  O5  UNK     1      -6.970  -3.675   1.831  1.00  0.00    -0.353 OA
HETATM   44  C31 UNK     1      -6.850  -5.095   1.907  1.00  0.00     0.210 C 
ENDBRANCH  39  43
BRANCH  40  45
HETATM   45  O6  UNK     1      -7.131  -2.902   4.495  1.00  0.00    -0.353 OA
HETATM   46  C33 UNK     1      -8.238  -2.002   4.509  1.00  0.00     0.210 C 
ENDBRANCH  40  45
ENDBRANCH   3  37
TORSDOF 6
