REMARK  3 active torsions:
REMARK  status: ('A' for Active; 'I' for Inactive)
REMARK    1  A    between atoms: C12_16  and  O2_2 
REMARK    2  A    between atoms: C5_9  and  O2_2 
REMARK    3  A    between atoms: C12_16  and  C13_17 
ROOT
HETATM    1  O1  UNK     1      -2.321  -0.833  -0.631  1.00  0.00    -0.274 OA
HETATM    2  O3  UNK     1      -4.499  -1.481  -0.374  1.00  0.00    -0.260 OA
HETATM    3  C1  UNK     1      -0.928  -0.513   1.350  1.00  0.00     0.005 A 
HETATM    4  C2  UNK     1      -1.088  -0.499  -0.036  1.00  0.00     0.099 A 
HETATM    5  C3  UNK     1      -0.049  -0.156  -0.903  1.00  0.00     0.006 A 
HETATM    6  C4  UNK     1      -2.077  -0.887   2.187  1.00  0.00    -0.043 A 
HETATM    7  C5  UNK     1       1.192   0.183  -0.374  1.00  0.00     0.078 A 
HETATM    8  C6  UNK     1       0.329  -0.169   1.863  1.00  0.00     0.017 A 
HETATM    9  C7  UNK     1       1.381   0.177   1.007  1.00  0.00     0.038 A 
HETATM   10  C8  UNK     1      -0.260  -0.153  -2.382  1.00  0.00     0.054 C 
HETATM   11  C9  UNK     1      -3.238  -1.200   1.594  1.00  0.00     0.090 A 
HETATM   12  C10 UNK     1      -1.937  -0.912   3.681  1.00  0.00     0.049 C 
HETATM   13  C11 UNK     1      -3.422  -1.189   0.133  1.00  0.00     0.288 A 
ENDROOT
BRANCH   7  14
HETATM   14  O2  UNK     1       2.231   0.521  -1.187  1.00  0.00    -0.343 OA
BRANCH  14  15
HETATM   15  C12 UNK     1       2.789   1.823  -1.019  1.00  0.00     0.253 C 
BRANCH  15  16
HETATM   16  C13 UNK     1       3.367   2.330  -2.323  1.00  0.00     0.146 C 
HETATM   17  O4  UNK     1       3.325   1.673  -3.362  1.00  0.00    -0.296 OA
HETATM   18  C14 UNK     1       4.003   3.694  -2.285  1.00  0.00     0.093 C 
ENDBRANCH  15  16
ENDBRANCH  14  15
ENDBRANCH   7  14
TORSDOF 3
