REMARK  6 active torsions:
REMARK  status: ('A' for Active; 'I' for Inactive)
REMARK    1  A    between atoms: C11_20  and  O2_4 
REMARK    2  A    between atoms: C14_23  and  O3_5 
REMARK    3  A    between atoms: C3_12  and  N1_9 
REMARK       I    between atoms: C9_18  and  N1_9 
REMARK    4  A    between atoms: C1_10  and  C8_17 
REMARK    5  A    between atoms: C14_23  and  C2_11 
REMARK    6  A    between atoms: C5_14  and  C9_18 
ROOT
HETATM    1  O4  UNK     1      -0.755  -0.261  -2.912  1.00  0.00    -0.267 OA
HETATM    2  N1  UNK     1      -0.636  -0.238  -0.556  1.00  0.00    -0.316 N 
HETATM    3  C9  UNK     1      -0.191  -0.007  -1.850  1.00  0.00     0.262 C 
HETATM    4  H2  UNK     1      -0.059   0.046   0.231  1.00  0.00     0.169 HD
ENDROOT
BRANCH   2   5
HETATM    5  C3  UNK     1      -1.854  -0.823  -0.195  1.00  0.00     0.094 A 
HETATM    6  C2  UNK     1      -2.375  -1.089   1.031  1.00  0.00     0.085 A 
HETATM    7  C1  UNK     1      -3.659  -1.697   0.922  1.00  0.00     0.007 A 
HETATM    8  C10 UNK     1      -4.044  -1.862  -0.390  1.00  0.00     0.065 A 
HETATM    9  S1  UNK     1      -2.861  -1.283  -1.485  1.00  0.00    -0.082 SA
BRANCH   6  10
HETATM   10  C14 UNK     1      -1.692  -0.782   2.264  1.00  0.00     0.296 C 
HETATM   11  O6  UNK     1      -1.830  -1.432   3.310  1.00  0.00    -0.259 OA
BRANCH  10  12
HETATM   12  O3  UNK     1      -0.859   0.313   2.183  1.00  0.00    -0.322 OA
HETATM   13  C21 UNK     1      -0.149   0.674   3.373  1.00  0.00     0.213 C 
ENDBRANCH  10  12
ENDBRANCH   6  10
BRANCH   7  14
HETATM   14  C8  UNK     1      -4.515  -2.121   2.048  1.00  0.00     0.016 A 
HETATM   15  C17 UNK     1      -4.477  -3.370   2.626  1.00  0.00     0.020 A 
HETATM   16  C18 UNK     1      -5.415  -3.494   3.691  1.00  0.00     0.008 A 
HETATM   17  C19 UNK     1      -6.133  -2.335   3.886  1.00  0.00     0.050 A 
HETATM   18  S2  UNK     1      -5.675  -1.103   2.788  1.00  0.00    -0.101 SA
ENDBRANCH   7  14
ENDBRANCH   2   5
BRANCH   3  19
HETATM   19  C5  UNK     1       1.135   0.624  -1.868  1.00  0.00     0.108 A 
HETATM   20  C13 UNK     1       2.132   0.387  -0.799  1.00  0.00     0.304 A 
HETATM   21  O1  UNK     1       3.354   1.041  -0.929  1.00  0.00    -0.271 OA
HETATM   22  O5  UNK     1       1.898  -0.348   0.154  1.00  0.00    -0.259 OA
HETATM   23  C6  UNK     1       3.632   1.888  -2.019  1.00  0.00     0.123 A 
HETATM   24  C11 UNK     1       4.883   2.500  -2.061  1.00  0.00     0.102 A 
HETATM   25  C4  UNK     1       2.680   2.097  -3.012  1.00  0.00     0.002 A 
HETATM   26  C15 UNK     1       5.187   3.343  -3.128  1.00  0.00     0.040 A 
HETATM   27  C16 UNK     1       4.244   3.565  -4.134  1.00  0.00     0.004 A 
HETATM   28  C12 UNK     1       2.993   2.945  -4.078  1.00  0.00     0.014 A 
HETATM   29  C7  UNK     1       1.393   1.427  -2.906  1.00  0.00     0.037 A 
BRANCH  24  30
HETATM   30  O2  UNK     1       5.804   2.286  -1.084  1.00  0.00    -0.353 OA
HETATM   31  C20 UNK     1       5.783   3.172   0.034  1.00  0.00     0.210 C 
ENDBRANCH  24  30
ENDBRANCH   3  19
TORSDOF 6
