REMARK  5 active torsions:
REMARK  status: ('A' for Active; 'I' for Inactive)
REMARK    1  A    between atoms: C10_17  and  O2_3 
REMARK    2  A    between atoms: C20_27  and  O2_3 
REMARK    3  A    between atoms: C4_11  and  N1_7 
REMARK       I    between atoms: C9_16  and  N1_7 
REMARK    4  A    between atoms: C10_17  and  C2_9 
REMARK    5  A    between atoms: C7_14  and  C9_16 
ROOT
HETATM    1  O3  UNK     1      -0.757  -0.102  -2.581  1.00  0.00    -0.267 OA
HETATM    2  N1  UNK     1      -0.426  -0.181  -0.246  1.00  0.00    -0.316 N 
HETATM    3  C9  UNK     1      -0.087   0.081  -1.566  1.00  0.00     0.262 C 
HETATM    4  H2  UNK     1       0.232   0.044   0.494  1.00  0.00     0.169 HD
ENDROOT
BRANCH   2   5
HETATM    5  C4  UNK     1      -1.635  -0.722   0.202  1.00  0.00     0.094 A 
HETATM    6  C2  UNK     1      -2.056  -1.012   1.458  1.00  0.00     0.085 A 
HETATM    7  C1  UNK     1      -3.382  -1.559   1.467  1.00  0.00     0.000 A 
HETATM    8  C3  UNK     1      -3.900  -1.653   0.171  1.00  0.00     0.018 A 
HETATM    9  C5  UNK     1      -4.192  -1.993   2.544  1.00  0.00     0.014 A 
HETATM   10  S1  UNK     1      -2.771  -1.079  -0.999  1.00  0.00    -0.071 SA
HETATM   11  C6  UNK     1      -5.190  -2.163  -0.072  1.00  0.00     0.020 A 
HETATM   12  C14 UNK     1      -5.965  -2.582   1.012  1.00  0.00     0.001 A 
HETATM   13  C12 UNK     1      -5.473  -2.499   2.307  1.00  0.00     0.001 A 
BRANCH   6  14
HETATM   14  C10 UNK     1      -1.244  -0.785   2.629  1.00  0.00     0.297 C 
HETATM   15  O4  UNK     1      -1.315  -1.467   3.661  1.00  0.00    -0.259 OA
BRANCH  14  16
HETATM   16  O2  UNK     1      -0.369   0.272   2.505  1.00  0.00    -0.318 OA
BRANCH  16  17
HETATM   17  C20 UNK     1       0.468   0.553   3.633  1.00  0.00     0.174 C 
HETATM   18  C21 UNK     1       1.352   1.738   3.307  1.00  0.00     0.034 C 
ENDBRANCH  16  17
ENDBRANCH  14  16
ENDBRANCH   6  14
ENDBRANCH   2   5
BRANCH   3  19
HETATM   19  C7  UNK     1       1.261   0.649  -1.682  1.00  0.00     0.108 A 
HETATM   20  C11 UNK     1       1.466   1.481  -2.710  1.00  0.00     0.037 A 
HETATM   21  C8  UNK     1       2.771   2.093  -2.909  1.00  0.00    -0.001 A 
HETATM   22  C13 UNK     1       3.796   1.800  -2.015  1.00  0.00     0.089 A 
HETATM   23  C16 UNK     1       3.030   2.967  -3.968  1.00  0.00     0.014 A 
HETATM   24  O1  UNK     1       3.573   0.924  -0.935  1.00  0.00    -0.274 OA
HETATM   25  C17 UNK     1       5.067   2.353  -2.149  1.00  0.00     0.038 A 
HETATM   26  C15 UNK     1       2.336   0.323  -0.719  1.00  0.00     0.304 A 
HETATM   27  O5  UNK     1       2.153  -0.440   0.224  1.00  0.00    -0.259 OA
HETATM   28  C19 UNK     1       5.317   3.223  -3.208  1.00  0.00     0.003 A 
HETATM   29  C18 UNK     1       4.301   3.530  -4.116  1.00  0.00     0.001 A 
ENDBRANCH   3  19
TORSDOF 5
