REMARK  3 active torsions:
REMARK  status: ('A' for Active; 'I' for Inactive)
REMARK    1  A    between atoms: C7_11  and  O2_2 
REMARK    2  A    between atoms: C15_19  and  O4_4 
REMARK    3  A    between atoms: C1_5  and  C3_7 
ROOT
HETATM    1  O1  UNK     1       0.691  -1.456   1.694  1.00  0.00    -0.309 OA
HETATM    2  O3  UNK     1       0.493  -3.463  -1.846  1.00  0.00    -0.287 OA
HETATM    3  C1  UNK     1       0.381  -0.809   0.507  1.00  0.00     0.093 A 
HETATM    4  C2  UNK     1       0.896  -3.550   0.481  1.00  0.00     0.048 A 
HETATM    5  C4  UNK     1       0.946  -2.803   1.657  1.00  0.00     0.090 A 
HETATM    6  C5  UNK     1       0.296  -1.419  -0.686  1.00  0.00     0.094 A 
HETATM    7  C6  UNK     1       0.557  -2.870  -0.778  1.00  0.00     0.187 A 
HETATM    8  C9  UNK     1       1.164  -4.921   0.503  1.00  0.00     0.018 A 
HETATM    9  C10 UNK     1       1.263  -3.425   2.865  1.00  0.00     0.038 A 
HETATM   10  C12 UNK     1       1.482  -5.540   1.712  1.00  0.00     0.001 A 
HETATM   11  C14 UNK     1       1.532  -4.794   2.891  1.00  0.00     0.003 A 
ENDROOT
BRANCH   3  12
HETATM   12  C3  UNK     1       0.121   0.636   0.661  1.00  0.00     0.031 A 
HETATM   13  C7  UNK     1      -1.163   1.118   0.937  1.00  0.00     0.081 A 
HETATM   14  C11 UNK     1      -1.383   2.488   1.079  1.00  0.00     0.074 A 
HETATM   15  C15 UNK     1      -0.322   3.382   0.946  1.00  0.00     0.068 A 
HETATM   16  C13 UNK     1       0.961   2.907   0.671  1.00  0.00     0.037 A 
HETATM   17  C8  UNK     1       1.181   1.537   0.529  1.00  0.00     0.020 A 
BRANCH  13  18
HETATM   18  O2  UNK     1      -2.218   0.265   1.072  1.00  0.00    -0.360 OA
HETATM   19  H9  UNK     1      -3.022   0.779   1.260  1.00  0.00     0.217 HD
ENDBRANCH  13  18
BRANCH  15  20
HETATM   20  O4  UNK     1      -0.537   4.719   1.084  1.00  0.00    -0.361 OA
HETATM   21  H10 UNK     1      -1.479   4.870   1.271  1.00  0.00     0.217 HD
ENDBRANCH  15  20
ENDBRANCH   3  12
TORSDOF 3
