REMARK  1 active torsions:
REMARK  status: ('A' for Active; 'I' for Inactive)
REMARK    1  A    between atoms: C2_5  and  C4_7 
ROOT
HETATM    1  O1  UNK     1      -0.379   0.541   0.840  1.00  0.00    -0.309 OA
HETATM    2  O2  UNK     1      -2.756  -1.980  -1.302  1.00  0.00    -0.287 OA
HETATM    3  C1  UNK     1      -2.278  -0.973   0.781  1.00  0.00     0.048 A 
HETATM    4  C2  UNK     1      -0.168   0.314  -0.511  1.00  0.00     0.090 A 
HETATM    5  C3  UNK     1      -1.425  -0.100   1.455  1.00  0.00     0.090 A 
HETATM    6  C5  UNK     1      -2.051  -1.223  -0.650  1.00  0.00     0.187 A 
HETATM    7  C6  UNK     1      -0.914  -0.508  -1.265  1.00  0.00     0.093 A 
HETATM    8  C7  UNK     1      -3.327  -1.598   1.458  1.00  0.00     0.018 A 
HETATM    9  C8  UNK     1      -1.618   0.154   2.813  1.00  0.00     0.038 A 
HETATM   10  C11 UNK     1      -3.518  -1.342   2.817  1.00  0.00     0.001 A 
HETATM   11  C12 UNK     1      -2.665  -0.468   3.493  1.00  0.00     0.003 A 
ENDROOT
BRANCH   4  12
HETATM   12  C4  UNK     1       0.985   1.048  -1.069  1.00  0.00    -0.002 A 
HETATM   13  C10 UNK     1       1.349   2.290  -0.542  1.00  0.00     0.017 A 
HETATM   14  C14 UNK     1       2.438   2.984  -1.070  1.00  0.00     0.043 A 
HETATM   15  C15 UNK     1       3.167   2.438  -2.127  1.00  0.00     0.116 A 
HETATM   16  C13 UNK     1       2.807   1.199  -2.655  1.00  0.00     0.043 A 
HETATM   17  F1  UNK     1       4.212   3.104  -2.634  1.00  0.00    -0.206 F 
HETATM   18  C9  UNK     1       1.718   0.505  -2.128  1.00  0.00     0.017 A 
ENDBRANCH   4  12
TORSDOF 1
