REMARK  4 active torsions:
REMARK  status: ('A' for Active; 'I' for Inactive)
REMARK       I    between atoms: C19_25  and  N1_6 
REMARK    1  A    between atoms: C1_7  and  C2_8 
REMARK    2  A    between atoms: C11_17  and  C12_18 
REMARK    3  A    between atoms: C12_18  and  C15_21 
REMARK    4  A    between atoms: C15_21  and  C19_25 
ROOT
HETATM    1  O1  UNK     1       2.918   3.405  -3.456  1.00  0.00    -0.321 OA
HETATM    2  O2  UNK     1      -0.944   0.593  -2.821  1.00  0.00    -0.274 OA
HETATM    3  O5  UNK     1      -2.764  -0.722  -2.494  1.00  0.00    -0.259 OA
HETATM    4  C2  UNK     1       4.130   2.580  -1.750  1.00  0.00    -0.015 A 
HETATM    5  C3  UNK     1       2.892   1.885  -1.786  1.00  0.00     0.008 A 
HETATM    6  C4  UNK     1       0.999   0.396  -1.368  1.00  0.00     0.005 A 
HETATM    7  C5  UNK     1       2.185   2.430  -2.850  1.00  0.00     0.088 A 
HETATM    8  C9  UNK     1       2.291   0.855  -1.033  1.00  0.00     0.029 A 
HETATM    9  C10 UNK     1       0.303  -0.678  -0.625  1.00  0.00    -0.037 A 
HETATM   10  C11 UNK     1      -0.953  -1.027  -0.978  1.00  0.00     0.025 A 
HETATM   11  C13 UNK     1       0.352   0.997  -2.447  1.00  0.00     0.093 A 
HETATM   12  C14 UNK     1       4.095   3.489  -2.782  1.00  0.00     0.151 A 
HETATM   13  C16 UNK     1       0.910   2.022  -3.223  1.00  0.00     0.076 A 
HETATM   14  C22 UNK     1      -1.637  -0.391  -2.139  1.00  0.00     0.295 A 
HETATM   15  C23 UNK     1       1.066  -1.341   0.495  1.00  0.00     0.050 C 
ENDROOT
BRANCH  10  16
HETATM   16  C12 UNK     1      -1.794  -2.056  -0.265  1.00  0.00     0.055 C 
BRANCH  16  17
HETATM   17  C15 UNK     1      -2.626  -1.438   0.845  1.00  0.00     0.108 C 
BRANCH  17  18
HETATM   18  C19 UNK     1      -3.490  -2.474   1.518  1.00  0.00     0.220 C 
HETATM   19  O4  UNK     1      -3.441  -3.645   1.134  1.00  0.00    -0.273 OA
HETATM   20  N1  UNK     1      -4.302  -2.026   2.557  1.00  0.00    -0.348 N 
HETATM   21  C17 UNK     1      -5.169  -2.966   3.268  1.00  0.00     0.152 C 
HETATM   22  C18 UNK     1      -4.480  -0.625   2.954  1.00  0.00     0.152 C 
HETATM   23  C20 UNK     1      -5.077  -2.741   4.770  1.00  0.00     0.187 C 
HETATM   24  O3  UNK     1      -5.368  -1.376   5.084  1.00  0.00    -0.388 OA
HETATM   25  C21 UNK     1      -4.422  -0.496   4.471  1.00  0.00     0.187 C 
ENDBRANCH  17  18
ENDBRANCH  16  17
ENDBRANCH  10  16
BRANCH   4  26
HETATM   26  C1  UNK     1       5.239   2.375  -0.800  1.00  0.00    -0.021 C 
HETATM   27  C6  UNK     1       5.807   0.913  -0.847  1.00  0.00     0.019 C 
HETATM   28  C7  UNK     1       4.893   2.611   0.717  1.00  0.00     0.019 C 
HETATM   29  C8  UNK     1       6.450   3.335  -1.077  1.00  0.00     0.019 C 
ENDBRANCH   4  26
TORSDOF 4
