REMARK  2 active torsions:
REMARK  status: ('A' for Active; 'I' for Inactive)
REMARK    1  A    between atoms: C7_11  and  O2_3 
REMARK    2  A    between atoms: C1_5  and  C3_7 
ROOT
HETATM    1 Cl1  UNK     1      -4.946  -2.485   2.065  1.00  0.00    -0.084 Cl
HETATM    2  O1  UNK     1      -0.201  -0.453  -0.755  1.00  0.00    -0.309 OA
HETATM    3  O3  UNK     1      -0.640   0.530   3.174  1.00  0.00    -0.287 OA
HETATM    4  C1  UNK     1       0.725   0.340  -0.095  1.00  0.00     0.093 A 
HETATM    5  C2  UNK     1      -1.505  -0.603   1.289  1.00  0.00     0.050 A 
HETATM    6  C4  UNK     1      -1.293  -0.903  -0.055  1.00  0.00     0.090 A 
HETATM    7  C5  UNK     1       0.635   0.691   1.197  1.00  0.00     0.094 A 
HETATM    8  C6  UNK     1      -0.519   0.231   1.994  1.00  0.00     0.187 A 
HETATM    9  C8  UNK     1      -2.634  -1.089   1.952  1.00  0.00     0.042 A 
HETATM   10  C9  UNK     1      -2.211  -1.693  -0.747  1.00  0.00     0.040 A 
HETATM   11  C12 UNK     1      -3.551  -1.879   1.258  1.00  0.00     0.035 A 
HETATM   12  C13 UNK     1      -3.340  -2.181  -0.088  1.00  0.00     0.026 A 
ENDROOT
BRANCH   4  13
HETATM   13  C3  UNK     1       1.861   0.763  -0.939  1.00  0.00     0.031 A 
HETATM   14  C10 UNK     1       2.996  -0.051  -1.012  1.00  0.00     0.017 A 
HETATM   15  C14 UNK     1       4.082   0.328  -1.801  1.00  0.00     0.001 A 
HETATM   16  C15 UNK     1       4.038   1.521  -2.522  1.00  0.00     0.003 A 
HETATM   17  C11 UNK     1       2.908   2.336  -2.453  1.00  0.00     0.038 A 
HETATM   18  C7  UNK     1       1.822   1.958  -1.663  1.00  0.00     0.081 A 
BRANCH  18  19
HETATM   19  O2  UNK     1       0.730   2.773  -1.614  1.00  0.00    -0.355 OA
HETATM   20  C16 UNK     1      -0.293   2.544  -2.580  1.00  0.00     0.210 C 
ENDBRANCH  18  19
ENDBRANCH   4  13
TORSDOF 2
