REMARK  1 active torsions:
REMARK  status: ('A' for Active; 'I' for Inactive)
REMARK    1  A    between atoms: C3_8  and  C8_13 
ROOT
HETATM    1  O1  UNK     1       0.704   0.411   0.532  1.00  0.00    -0.309 OA
HETATM    2  O2  UNK     1      -2.044  -0.545  -2.321  1.00  0.00    -0.287 OA
HETATM    3  C1  UNK     1      -1.462  -0.536  -0.030  1.00  0.00     0.048 A 
HETATM    4  C2  UNK     1      -0.479  -0.182   0.894  1.00  0.00     0.090 A 
HETATM    5  C3  UNK     1       0.927   0.670  -0.810  1.00  0.00     0.111 A 
HETATM    6  C4  UNK     1      -1.227  -0.262  -1.456  1.00  0.00     0.187 A 
HETATM    7  C5  UNK     1       0.060   0.378  -1.791  1.00  0.00     0.093 A 
HETATM    8  C6  UNK     1      -2.648  -1.138   0.396  1.00  0.00     0.018 A 
HETATM    9  C7  UNK     1      -0.679  -0.430   2.252  1.00  0.00     0.038 A 
HETATM   10  C9  UNK     1      -2.845  -1.384   1.755  1.00  0.00     0.001 A 
HETATM   11  C10 UNK     1      -1.863  -1.031   2.682  1.00  0.00     0.003 A 
ENDROOT
BRANCH   5  12
HETATM   12  C8  UNK     1       2.248   1.320  -1.081  1.00  0.00     0.237 C 
HETATM   13 Cl1  UNK     1       1.963   2.897  -1.857  1.00  0.00    -0.076 Cl
HETATM   14 Cl2  UNK     1       3.128   1.554   0.449  1.00  0.00    -0.076 Cl
HETATM   15 Cl3  UNK     1       3.214   0.286  -2.162  1.00  0.00    -0.076 Cl
ENDBRANCH   5  12
TORSDOF 1
