REMARK  1 active torsions:
REMARK  status: ('A' for Active; 'I' for Inactive)
REMARK    1  A    between atoms: C3_7  and  C4_8 
ROOT
HETATM    1 Cl1  UNK     1       1.512  -6.800   0.366  1.00  0.00    -0.084 Cl
HETATM    2  O1  UNK     1       0.400  -1.030   0.117  1.00  0.00    -0.309 OA
HETATM    3  O2  UNK     1       0.782  -2.732   3.799  1.00  0.00    -0.287 OA
HETATM    4  C1  UNK     1       0.800  -3.018   1.453  1.00  0.00     0.050 A 
HETATM    5  C2  UNK     1       0.659  -2.372   0.226  1.00  0.00     0.090 A 
HETATM    6  C3  UNK     1       0.267  -0.286   1.280  1.00  0.00     0.090 A 
HETATM    7  C5  UNK     1       0.667  -2.231   2.689  1.00  0.00     0.187 A 
HETATM    8  C6  UNK     1       0.387  -0.791   2.518  1.00  0.00     0.093 A 
HETATM    9  C7  UNK     1       1.064  -4.389   1.504  1.00  0.00     0.042 A 
HETATM   10  C8  UNK     1       0.782  -3.096  -0.961  1.00  0.00     0.040 A 
HETATM   11  C11 UNK     1       1.187  -5.110   0.316  1.00  0.00     0.035 A 
HETATM   12  C12 UNK     1       1.046  -4.465  -0.914  1.00  0.00     0.026 A 
ENDROOT
BRANCH   6  13
HETATM   13  C4  UNK     1      -0.003   1.147   1.048  1.00  0.00     0.001 A 
HETATM   14  C10 UNK     1       0.454   2.104   1.958  1.00  0.00     0.014 A 
HETATM   15  C14 UNK     1       0.199   3.458   1.739  1.00  0.00     0.004 A 
HETATM   16  C15 UNK     1      -0.514   3.859   0.610  1.00  0.00     0.042 A 
HETATM   17  C13 UNK     1      -0.973   2.907  -0.301  1.00  0.00     0.117 A 
HETATM   18  F1  UNK     1      -1.657   3.293  -1.386  1.00  0.00    -0.206 F 
HETATM   19  C9  UNK     1      -0.718   1.553  -0.082  1.00  0.00     0.056 A 
ENDBRANCH   6  13
TORSDOF 1
