REMARK  3 active torsions:
REMARK  status: ('A' for Active; 'I' for Inactive)
REMARK    1  A    between atoms: C7_11  and  O2_2 
REMARK    2  A    between atoms: C15_19  and  O4_4 
REMARK    3  A    between atoms: C3_7  and  C4_8 
ROOT
HETATM    1  O1  UNK     1      -0.246   0.836   0.725  1.00  0.00    -0.309 OA
HETATM    2  O3  UNK     1      -2.323  -2.173  -1.074  1.00  0.00    -0.287 OA
HETATM    3  C1  UNK     1      -2.027  -0.812   0.835  1.00  0.00     0.081 A 
HETATM    4  C2  UNK     1      -1.277   0.223   1.391  1.00  0.00     0.093 A 
HETATM    5  C3  UNK     1       0.067   0.399  -0.554  1.00  0.00     0.090 A 
HETATM    6  C5  UNK     1      -1.704  -1.272  -0.524  1.00  0.00     0.190 A 
HETATM    7  C6  UNK     1      -0.585  -0.583  -1.197  1.00  0.00     0.094 A 
HETATM    8  C7  UNK     1      -3.067  -1.399   1.560  1.00  0.00     0.082 A 
HETATM    9  C8  UNK     1      -1.563   0.679   2.678  1.00  0.00     0.038 A 
HETATM   10  C11 UNK     1      -3.351  -0.942   2.848  1.00  0.00     0.037 A 
HETATM   11  C12 UNK     1      -2.601   0.095   3.405  1.00  0.00     0.006 A 
ENDROOT
BRANCH   5  12
HETATM   12  C4  UNK     1       1.187   1.129  -1.180  1.00  0.00    -0.002 A 
HETATM   13  C10 UNK     1       2.214   1.650  -0.389  1.00  0.00     0.017 A 
HETATM   14  C14 UNK     1       3.273   2.339  -0.981  1.00  0.00     0.037 A 
HETATM   15  C15 UNK     1       3.308   2.509  -2.365  1.00  0.00     0.065 A 
HETATM   16  C13 UNK     1       2.284   1.990  -3.157  1.00  0.00     0.037 A 
HETATM   17  C9  UNK     1       1.225   1.301  -2.566  1.00  0.00     0.017 A 
BRANCH  15  18
HETATM   18  O4  UNK     1       4.341   3.181  -2.942  1.00  0.00    -0.361 OA
HETATM   19  H10 UNK     1       4.203   3.204  -3.905  1.00  0.00     0.217 HD
ENDBRANCH  15  18
ENDBRANCH   5  12
BRANCH   8  20
HETATM   20  O2  UNK     1      -3.828  -2.413   1.062  1.00  0.00    -0.360 OA
HETATM   21  H9  UNK     1      -3.539  -2.646   0.166  1.00  0.00     0.217 HD
ENDBRANCH   8  20
TORSDOF 3
