REMARK  2 active torsions:
REMARK  status: ('A' for Active; 'I' for Inactive)
REMARK    1  A    between atoms: C2_7  and  N1_4 
REMARK       I    between atoms: C8_13  and  N1_4 
REMARK    2  A    between atoms: C8_13  and  C9_14 
ROOT
HETATM    1  O1  UNK     1      -3.139  -1.519   2.570  1.00  0.00    -0.275 OA
HETATM    2  O3  UNK     1      -5.149  -2.575   2.865  1.00  0.00    -0.260 OA
HETATM    3  C1  UNK     1      -2.352  -1.083   0.308  1.00  0.00     0.000 A 
HETATM    4  C2  UNK     1      -0.226   0.034   0.009  1.00  0.00     0.035 A 
HETATM    5  C3  UNK     1      -2.169  -1.002   1.686  1.00  0.00     0.089 A 
HETATM    6  C4  UNK     1      -1.369  -0.558  -0.535  1.00  0.00     0.043 A 
HETATM    7  C5  UNK     1      -0.060   0.106   1.394  1.00  0.00     0.032 A 
HETATM    8  C6  UNK     1      -1.035  -0.414   2.242  1.00  0.00     0.040 A 
HETATM    9  C7  UNK     1      -3.559  -1.709  -0.203  1.00  0.00     0.020 A 
HETATM   10  C10 UNK     1      -4.472  -2.197   0.640  1.00  0.00     0.083 A 
HETATM   11  C11 UNK     1      -4.302  -2.123   2.103  1.00  0.00     0.288 A 
ENDROOT
BRANCH   4  12
HETATM   12  N1  UNK     1       0.754   0.557  -0.835  1.00  0.00    -0.323 N 
HETATM   13  C8  UNK     1       1.956   1.182  -0.478  1.00  0.00     0.257 C 
HETATM   14  O2  UNK     1       2.370   1.386   0.658  1.00  0.00    -0.267 OA
HETATM   15  H4  UNK     1       0.560   0.421  -1.823  1.00  0.00     0.169 HD
BRANCH  13  16
HETATM   16  C9  UNK     1       2.786   1.662  -1.614  1.00  0.00     0.049 A 
HETATM   17  C12 UNK     1       2.187   1.999  -2.803  1.00  0.00     0.020 A 
HETATM   18  C14 UNK     1       2.990   2.445  -3.847  1.00  0.00     0.020 A 
HETATM   19  C15 UNK     1       4.355   2.525  -3.628  1.00  0.00     0.116 A 
HETATM   20  N2  UNK     1       4.955   2.196  -2.461  1.00  0.00    -0.272 NA
HETATM   21  C13 UNK     1       4.143   1.767  -1.469  1.00  0.00     0.133 A 
ENDBRANCH  13  16
ENDBRANCH   4  12
TORSDOF 2
