REMARK  6 active torsions:
REMARK  status: ('A' for Active; 'I' for Inactive)
REMARK    1  A    between atoms: C14_20  and  O2_2 
REMARK    2  A    between atoms: C7_13  and  O2_2 
REMARK    3  A    between atoms: C4_10  and  N1_6 
REMARK       I    between atoms: C6_12  and  N1_6 
REMARK    4  A    between atoms: C2_8  and  C6_12 
REMARK    5  A    between atoms: C4_10  and  C7_13 
REMARK    6  A    between atoms: C13_19  and  C14_20 
ROOT
HETATM    1  O3  UNK     1       0.052  -1.736  -1.034  1.00  0.00    -0.267 OA
HETATM    2  N1  UNK     1      -1.170  -0.374  -2.478  1.00  0.00    -0.355 N 
HETATM    3  C6  UNK     1      -0.073  -0.716  -1.708  1.00  0.00     0.257 C 
HETATM    4  H6  UNK     1      -1.191   0.512  -2.973  1.00  0.00     0.162 HD
ENDROOT
BRANCH   2   5
HETATM    5  C4  UNK     1      -2.346  -1.206  -2.587  1.00  0.00     0.149 C 
BRANCH   5   6
HETATM    6  C7  UNK     1      -3.371  -0.865  -1.521  1.00  0.00     0.198 C 
BRANCH   6   7
HETATM    7  O2  UNK     1      -2.810  -1.095  -0.235  1.00  0.00    -0.316 OA
BRANCH   7   8
HETATM    8  C14 UNK     1      -3.620  -0.830   0.827  1.00  0.00     0.293 C 
HETATM    9  O5  UNK     1      -4.768  -0.419   0.769  1.00  0.00    -0.259 OA
BRANCH   8  10
HETATM   10  C13 UNK     1      -2.918  -1.108   2.106  1.00  0.00     0.039 A 
HETATM   11  C15 UNK     1      -3.659  -1.509   3.199  1.00  0.00     0.017 A 
HETATM   12  C17 UNK     1      -3.000  -1.771   4.400  1.00  0.00     0.001 A 
HETATM   13  C19 UNK     1      -1.615  -1.626   4.482  1.00  0.00     0.000 A 
HETATM   14  C18 UNK     1      -0.889  -1.220   3.363  1.00  0.00     0.001 A 
HETATM   15  C16 UNK     1      -1.548  -0.958   2.161  1.00  0.00     0.017 A 
ENDBRANCH   8  10
ENDBRANCH   7   8
ENDBRANCH   6   7
ENDBRANCH   5   6
ENDBRANCH   2   5
BRANCH   3  16
HETATM   16  C2  UNK     1       0.997   0.288  -1.761  1.00  0.00     0.108 A 
HETATM   17  C5  UNK     1       1.761   0.396  -0.668  1.00  0.00     0.037 A 
HETATM   18  C1  UNK     1       2.846   1.363  -0.624  1.00  0.00    -0.001 A 
HETATM   19  C3  UNK     1       3.074   2.170  -1.735  1.00  0.00     0.089 A 
HETATM   20  C8  UNK     1       3.669   1.510   0.496  1.00  0.00     0.014 A 
HETATM   21  C10 UNK     1       4.097   3.116  -1.757  1.00  0.00     0.038 A 
HETATM   22  O1  UNK     1       2.267   2.051  -2.883  1.00  0.00    -0.274 OA
HETATM   23  C12 UNK     1       4.912   3.256  -0.636  1.00  0.00     0.003 A 
HETATM   24  C11 UNK     1       4.699   2.455   0.488  1.00  0.00     0.001 A 
HETATM   25  C9  UNK     1       1.221   1.135  -2.954  1.00  0.00     0.304 A 
HETATM   26  O4  UNK     1       0.522   1.040  -3.957  1.00  0.00    -0.259 OA
ENDBRANCH   3  16
TORSDOF 6
