REMARK  6 active torsions:
REMARK  status: ('A' for Active; 'I' for Inactive)
REMARK    1  A    between atoms: C5_12  and  N1_5 
REMARK    2  A    between atoms: C6_13  and  N2_6 
REMARK    3  A    between atoms: C18_25  and  N3_7 
REMARK       I    between atoms: C9_16  and  N3_7 
REMARK    4  A    between atoms: C5_12  and  C7_14 
REMARK    5  A    between atoms: C6_13  and  C9_16 
REMARK    6  A    between atoms: C13_20  and  C17_24 
ROOT
HETATM    1  N1  UNK     1       1.024  -0.309  -1.658  1.00  0.00     0.096 N 
HETATM    2  N2  UNK     1      -1.664  -1.291  -1.248  1.00  0.00     0.100 N 
HETATM    3  C1  UNK     1       0.594  -0.831  -0.356  1.00  0.00     0.303 C 
HETATM    4  C2  UNK     1       0.275  -0.955  -2.743  1.00  0.00     0.303 C 
HETATM    5  C3  UNK     1      -0.915  -0.643  -0.164  1.00  0.00     0.303 C 
HETATM    6  C4  UNK     1      -1.234  -0.768  -2.551  1.00  0.00     0.303 C 
ENDROOT
BRANCH   1   7
HETATM    7  C5  UNK     1       2.463  -0.491  -1.841  1.00  0.00     0.312 C 
BRANCH   7   8
HETATM    8  C7  UNK     1       3.258   0.509  -1.076  1.00  0.00    -0.011 A 
HETATM    9  C10 UNK     1       3.652   0.265   0.181  1.00  0.00     0.092 A 
HETATM   10  C14 UNK     1       4.439   1.222   0.977  1.00  0.00     0.288 A 
HETATM   11  O1  UNK     1       4.768   2.421   0.363  1.00  0.00    -0.275 OA
HETATM   12  O3  UNK     1       4.784   0.963   2.125  1.00  0.00    -0.260 OA
HETATM   13  C11 UNK     1       4.368   2.706  -0.958  1.00  0.00     0.090 A 
HETATM   14  C8  UNK     1       3.622   1.789  -1.700  1.00  0.00     0.007 A 
HETATM   15  C15 UNK     1       4.755   3.943  -1.475  1.00  0.00     0.039 A 
HETATM   16  C12 UNK     1       3.263   2.148  -3.006  1.00  0.00     0.022 A 
HETATM   17  C13 UNK     1       3.644   3.385  -3.538  1.00  0.00    -0.058 A 
HETATM   18  C16 UNK     1       4.389   4.281  -2.773  1.00  0.00     0.010 A 
BRANCH  17  19
HETATM   19  C17 UNK     1       3.250   3.747  -4.931  1.00  0.00     0.034 C 
HETATM   20  C19 UNK     1       1.904   4.465  -4.985  1.00  0.00     0.010 C 
ENDBRANCH  17  19
ENDBRANCH   7   8
ENDBRANCH   1   7
BRANCH   2  21
HETATM   21  C6  UNK     1      -3.103  -1.111  -1.066  1.00  0.00     0.375 C 
BRANCH  21  22
HETATM   22  C9  UNK     1      -3.599  -2.063   0.009  1.00  0.00     0.250 C 
HETATM   23  O2  UNK     1      -3.487  -3.281  -0.085  1.00  0.00    -0.271 OA
HETATM   24  N3  UNK     1      -4.165  -1.348   1.062  1.00  0.00    -0.326 N 
HETATM   25  H16 UNK     1      -4.177  -0.333   0.997  1.00  0.00     0.169 HD
BRANCH  24  26
HETATM   26  C18 UNK     1      -4.738  -1.866   2.248  1.00  0.00     0.036 A 
HETATM   27  C20 UNK     1      -5.263  -0.999   3.206  1.00  0.00     0.048 A 
HETATM   28  C22 UNK     1      -5.828  -1.510   4.374  1.00  0.00     0.013 A 
HETATM   29 Br1  UNK     1      -6.538  -0.336   5.674  1.00  0.00    -0.051 Br
HETATM   30  C24 UNK     1      -5.868  -2.889   4.585  1.00  0.00     0.019 A 
HETATM   31  C23 UNK     1      -5.343  -3.756   3.627  1.00  0.00     0.004 A 
HETATM   32  C21 UNK     1      -4.778  -3.245   2.458  1.00  0.00     0.029 A 
ENDBRANCH  24  26
ENDBRANCH  21  22
ENDBRANCH   2  21
TORSDOF 6
