REMARK  3 active torsions:
REMARK  status: ('A' for Active; 'I' for Inactive)
REMARK       I    between atoms: C8_10  and  N1_2 
REMARK    1  A    between atoms: C8_10  and  C9_11 
REMARK    2  A    between atoms: C10_12  and  C9_11 
REMARK    3  A    between atoms: C11_13  and  C12_14 
ROOT
HETATM    1  C9  UNK     1      -0.679  -0.274  -1.145  1.00  0.00     0.043 C 
HETATM    2  C11 UNK     1      -0.399   0.564  -2.159  1.00  0.00     0.029 C 
ENDROOT
BRANCH   1   3
HETATM    3  C10 UNK     1      -1.997  -0.860  -0.864  1.00  0.00    -0.021 A 
HETATM    4  C13 UNK     1      -3.143  -0.156  -1.205  1.00  0.00     0.012 A 
HETATM    5  C15 UNK     1      -4.394  -0.711  -0.937  1.00  0.00     0.001 A 
HETATM    6  C19 UNK     1      -4.486  -1.964  -0.331  1.00  0.00     0.000 A 
HETATM    7  C16 UNK     1      -3.327  -2.662   0.007  1.00  0.00     0.001 A 
HETATM    8  C14 UNK     1      -2.075  -2.107  -0.261  1.00  0.00     0.012 A 
ENDBRANCH   1   3
BRANCH   1   9
HETATM    9  C8  UNK     1       0.465  -0.604  -0.272  1.00  0.00     0.254 C 
HETATM   10  O1  UNK     1       1.145  -1.587  -0.571  1.00  0.00    -0.267 OA
HETATM   11  N1  UNK     1       0.695   0.212   0.832  1.00  0.00    -0.347 N 
HETATM   12  C4  UNK     1       1.817  -0.087   1.726  1.00  0.00     0.130 C 
HETATM   13  C5  UNK     1      -0.064   1.415   1.204  1.00  0.00     0.130 C 
HETATM   14  C1  UNK     1       1.327  -0.270   3.169  1.00  0.00    -0.000 C 
HETATM   15  C3  UNK     1       0.499   0.947   3.619  1.00  0.00     0.011 C 
HETATM   16  C6  UNK     1       2.504  -0.502   4.113  1.00  0.00     0.011 C 
HETATM   17  C2  UNK     1      -0.623   1.302   2.628  1.00  0.00    -0.000 C 
HETATM   18  C7  UNK     1      -1.780   0.302   2.695  1.00  0.00     0.011 C 
ENDBRANCH   1   9
BRANCH   2  19
HETATM   19  C12 UNK     1       0.917   1.154  -2.448  1.00  0.00    -0.035 A 
HETATM   20  C17 UNK     1       1.255   2.375  -1.883  1.00  0.00     0.011 A 
HETATM   21  C20 UNK     1       2.503   2.935  -2.158  1.00  0.00     0.001 A 
HETATM   22  C22 UNK     1       3.397   2.268  -2.996  1.00  0.00     0.000 A 
HETATM   23  C21 UNK     1       3.044   1.041  -3.558  1.00  0.00     0.001 A 
HETATM   24  C18 UNK     1       1.797   0.481  -3.283  1.00  0.00     0.011 A 
ENDBRANCH   2  19
TORSDOF 3
