REMARK  5 active torsions:
REMARK  status: ('A' for Active; 'I' for Inactive)
REMARK    1  A    between atoms: C16_23  and  O2_3 
REMARK    2  A    between atoms: C5_12  and  O2_3 
REMARK    3  A    between atoms: C7_14  and  O3_4 
REMARK    4  A    between atoms: C11_18  and  O4_5 
REMARK    5  A    between atoms: C1_8  and  C2_9 
ROOT
HETATM    1 Cl1  UNK     1      -5.832  -2.450   1.880  1.00  0.00    -0.084 Cl
HETATM    2  O1  UNK     1      -1.135  -0.383  -0.990  1.00  0.00    -0.306 OA
HETATM    3  O5  UNK     1      -0.940  -0.605   3.074  1.00  0.00    -0.284 OA
HETATM    4  C1  UNK     1       0.003   0.003  -0.298  1.00  0.00     0.127 A 
HETATM    5  C3  UNK     1      -2.200  -0.962   1.113  1.00  0.00     0.052 A 
HETATM    6  C4  UNK     1      -2.204  -0.858  -0.276  1.00  0.00     0.090 A 
HETATM    7  C5  UNK     1       0.132  -0.037   1.040  1.00  0.00     0.164 A 
HETATM    8  C6  UNK     1      -1.000  -0.542   1.854  1.00  0.00     0.221 A 
HETATM    9  C9  UNK     1      -3.320  -1.454   1.787  1.00  0.00     0.042 A 
HETATM   10  C10 UNK     1      -3.331  -1.247  -1.002  1.00  0.00     0.040 A 
HETATM   11  C14 UNK     1      -4.446  -1.843   1.060  1.00  0.00     0.035 A 
HETATM   12  C15 UNK     1      -4.451  -1.740  -0.332  1.00  0.00     0.026 A 
ENDROOT
BRANCH   4  13
HETATM   13  C2  UNK     1       1.074   0.495  -1.183  1.00  0.00     0.037 A 
HETATM   14  C7  UNK     1       2.328  -0.117  -1.204  1.00  0.00     0.081 A 
HETATM   15  C12 UNK     1       3.327   0.367  -2.048  1.00  0.00     0.040 A 
HETATM   16  C13 UNK     1       3.072   1.462  -2.873  1.00  0.00     0.039 A 
HETATM   17  C11 UNK     1       1.819   2.074  -2.853  1.00  0.00     0.069 A 
HETATM   18  C8  UNK     1       0.820   1.591  -2.008  1.00  0.00     0.054 A 
BRANCH  14  19
HETATM   19  O3  UNK     1       2.603  -1.190  -0.408  1.00  0.00    -0.355 OA
HETATM   20  C17 UNK     1       2.337  -2.482  -0.948  1.00  0.00     0.210 C 
ENDBRANCH  14  19
BRANCH  17  21
HETATM   21  O4  UNK     1       1.571   3.143  -3.658  1.00  0.00    -0.356 OA
HETATM   22  C18 UNK     1       2.638   3.586  -4.496  1.00  0.00     0.210 C 
ENDBRANCH  17  21
ENDBRANCH   4  13
BRANCH   7  23
HETATM   23  O2  UNK     1       1.266   0.385   1.700  1.00  0.00    -0.272 OA
BRANCH  23  24
HETATM   24  C16 UNK     1       1.250   1.712   2.049  1.00  0.00     0.260 C 
HETATM   25  O6  UNK     1       0.355   2.523   1.847  1.00  0.00    -0.265 OA
HETATM   26  C19 UNK     1       2.530   2.048   2.756  1.00  0.00     0.126 C 
ENDBRANCH  23  24
ENDBRANCH   7  23
TORSDOF 5
