REMARK  2 active torsions:
REMARK  status: ('A' for Active; 'I' for Inactive)
REMARK    1  A    between atoms: C1_5  and  N1_4 
REMARK       I    between atoms: C11_15  and  N1_4 
REMARK    2  A    between atoms: C11_15  and  C12_16 
ROOT
HETATM    1  O1  UNK     1       0.047   0.995   1.457  1.00  0.00    -0.267 OA
HETATM    2  N1  UNK     1      -0.895  -0.423  -0.135  1.00  0.00    -0.347 N 
HETATM    3  C11 UNK     1       0.001   0.518   0.328  1.00  0.00     0.258 C 
HETATM    4  H16 UNK     1      -0.814  -0.776  -1.084  1.00  0.00     0.163 HD
ENDROOT
BRANCH   3   5
HETATM    5  C12 UNK     1       0.968   0.935  -0.703  1.00  0.00     0.108 A 
HETATM    6  C14 UNK     1       0.627   0.942  -2.143  1.00  0.00     0.304 A 
HETATM    7  O2  UNK     1       1.625   1.356  -3.021  1.00  0.00    -0.274 OA
HETATM    8  O3  UNK     1      -0.479   0.600  -2.549  1.00  0.00    -0.259 OA
HETATM    9  C16 UNK     1       2.898   1.751  -2.566  1.00  0.00     0.089 A 
HETATM   10  C15 UNK     1       3.198   1.738  -1.207  1.00  0.00    -0.001 A 
HETATM   11  C18 UNK     1       3.831   2.151  -3.520  1.00  0.00     0.038 A 
HETATM   12  C13 UNK     1       2.176   1.309  -0.265  1.00  0.00     0.037 A 
HETATM   13  C17 UNK     1       4.472   2.136  -0.795  1.00  0.00     0.014 A 
HETATM   14  C19 UNK     1       5.419   2.540  -1.740  1.00  0.00     0.001 A 
HETATM   15  C20 UNK     1       5.099   2.547  -3.100  1.00  0.00     0.003 A 
ENDBRANCH   3   5
BRANCH   2  16
HETATM   16  C1  UNK     1      -1.938  -0.986   0.695  1.00  0.00     0.034 C 
HETATM   17  C5  UNK     1      -2.771  -2.006  -0.112  1.00  0.00     0.035 C 
HETATM   18  C2  UNK     1      -3.883  -2.605   0.767  1.00  0.00    -0.012 C 
HETATM   19  C8  UNK     1      -3.246  -3.309   1.977  1.00  0.00     0.009 C 
HETATM   20  C9  UNK     1      -4.799  -1.473   1.264  1.00  0.00     0.009 C 
HETATM   21  C3  UNK     1      -2.425  -2.303   2.802  1.00  0.00    -0.012 C 
HETATM   22  C10 UNK     1      -3.349  -1.173   3.288  1.00  0.00     0.009 C 
HETATM   23  C6  UNK     1      -1.319  -1.705   1.914  1.00  0.00     0.035 C 
HETATM   24  C4  UNK     1      -3.986  -0.457   2.084  1.00  0.00    -0.012 C 
HETATM   25  C7  UNK     1      -2.874   0.134   1.200  1.00  0.00     0.035 C 
ENDBRANCH   2  16
TORSDOF 2
