REMARK  4 active torsions:
REMARK  status: ('A' for Active; 'I' for Inactive)
REMARK    1  A    between atoms: C1_7  and  O1_1 
REMARK    2  A    between atoms: C16_22  and  O1_1 
REMARK    3  A    between atoms: C15_21  and  C6_12 
REMARK    4  A    between atoms: C16_22  and  C9_15 
ROOT
HETATM    1  O2  UNK     1      -1.788   0.869   2.964  1.00  0.00    -0.293 OA
HETATM    2  N1  UNK     1      -3.021  -2.233  -0.395  1.00  0.00    -0.362 N 
HETATM    3  C6  UNK     1      -1.540   0.114   0.191  1.00  0.00     0.104 C 
HETATM    4  C7  UNK     1      -2.288  -0.693   1.247  1.00  0.00     0.024 C 
HETATM    5  C8  UNK     1      -2.957  -1.818   0.920  1.00  0.00     0.020 C 
HETATM    6  C9  UNK     1      -1.809  -0.380  -1.234  1.00  0.00     0.052 C 
HETATM    7  C10 UNK     1      -3.669  -2.680   1.930  1.00  0.00     0.058 C 
HETATM    8  C11 UNK     1      -3.148  -2.457   3.344  1.00  0.00     0.014 C 
HETATM    9  C12 UNK     1      -2.508  -1.516  -1.466  1.00  0.00     0.018 C 
HETATM   10  C13 UNK     1      -3.118  -0.977   3.682  1.00  0.00     0.084 C 
HETATM   11  C14 UNK     1      -2.329  -0.192   2.657  1.00  0.00     0.158 C 
HETATM   12  C17 UNK     1      -2.831  -2.101  -2.815  1.00  0.00     0.069 C 
HETATM   13  H17 UNK     1      -3.543  -3.077  -0.600  1.00  0.00     0.165 HD
ENDROOT
BRANCH   3  14
HETATM   14  C15 UNK     1      -0.063   0.100   0.477  1.00  0.00     0.029 A 
HETATM   15  C18 UNK     1       0.615   1.389   0.768  1.00  0.00     0.194 A 
HETATM   16  O5  UNK     1       0.012   2.453   0.781  1.00  0.00    -0.287 OA
HETATM   17  C20 UNK     1       2.063   1.318   1.041  1.00  0.00     0.048 A 
HETATM   18  C21 UNK     1       2.699   0.077   1.012  1.00  0.00     0.089 A 
HETATM   19  C22 UNK     1       2.791   2.476   1.325  1.00  0.00     0.018 A 
HETATM   20  O4  UNK     1       2.033  -1.091   0.739  1.00  0.00    -0.321 OA
HETATM   21  C23 UNK     1       4.068  -0.013   1.268  1.00  0.00     0.038 A 
HETATM   22  C19 UNK     1       0.686  -1.010   0.486  1.00  0.00     0.154 A 
HETATM   23  C25 UNK     1       4.797   1.142   1.552  1.00  0.00     0.003 A 
HETATM   24  C24 UNK     1       4.160   2.383   1.581  1.00  0.00     0.001 A 
ENDBRANCH   3  14
BRANCH   6  25
HETATM   25  C16 UNK     1      -1.273   0.456  -2.321  1.00  0.00     0.292 C 
HETATM   26  O3  UNK     1      -1.894   1.371  -2.829  1.00  0.00    -0.259 OA
BRANCH  25  27
HETATM   27  O1  UNK     1      -0.024   0.023  -2.616  1.00  0.00    -0.312 OA
BRANCH  27  28
HETATM   28  C1  UNK     1       0.628   0.735  -3.649  1.00  0.00     0.132 C 
HETATM   29  C3  UNK     1       0.857   2.190  -3.276  1.00  0.00     0.032 C 
HETATM   30  C5  UNK     1       1.992   2.635  -4.190  1.00  0.00     0.002 C 
HETATM   31  C4  UNK     1       2.746   1.361  -4.580  1.00  0.00     0.002 C 
HETATM   32  C2  UNK     1       2.042   0.219  -3.860  1.00  0.00     0.032 C 
ENDBRANCH  27  28
ENDBRANCH  25  27
ENDBRANCH   6  25
TORSDOF 4
