REMARK  4 active torsions:
REMARK  status: ('A' for Active; 'I' for Inactive)
REMARK    1  A    between atoms: C1_5  and  N1_4 
REMARK       I    between atoms: C4_8  and  N1_4 
REMARK    2  A    between atoms: C1_5  and  C2_6 
REMARK    3  A    between atoms: C1_5  and  C3_7 
REMARK    4  A    between atoms: C4_8  and  C9_13 
ROOT
HETATM    1  O2  UNK     1       1.484  -1.542   0.314  1.00  0.00    -0.267 OA
HETATM    2  N1  UNK     1      -0.537  -0.448  -0.081  1.00  0.00    -0.344 N 
HETATM    3  C4  UNK     1       0.826  -0.645  -0.210  1.00  0.00     0.258 C 
HETATM    4  H2  UNK     1      -0.974   0.358  -0.518  1.00  0.00     0.163 HD
ENDROOT
BRANCH   2   5
HETATM    5  C1  UNK     1      -1.384  -1.306   0.716  1.00  0.00     0.151 C 
BRANCH   5   6
HETATM    6  C2  UNK     1      -2.772  -1.457   0.121  1.00  0.00    -0.031 A 
HETATM    7  C5  UNK     1      -3.762  -0.566   0.491  1.00  0.00     0.009 A 
HETATM    8  C13 UNK     1      -5.038  -0.705  -0.056  1.00  0.00     0.001 A 
HETATM    9  C18 UNK     1      -5.300  -1.732  -0.961  1.00  0.00     0.000 A 
HETATM   10  C15 UNK     1      -4.287  -2.621  -1.321  1.00  0.00     0.001 A 
HETATM   11  C7  UNK     1      -3.011  -2.482  -0.774  1.00  0.00     0.009 A 
ENDBRANCH   5   6
BRANCH   5  12
HETATM   12  C3  UNK     1      -1.423  -0.886   2.174  1.00  0.00    -0.031 A 
HETATM   13  C6  UNK     1      -1.620  -1.849   3.145  1.00  0.00     0.009 A 
HETATM   14  C14 UNK     1      -1.656  -1.462   4.485  1.00  0.00     0.001 A 
HETATM   15  C19 UNK     1      -1.493  -0.120   4.828  1.00  0.00     0.000 A 
HETATM   16  C16 UNK     1      -1.295   0.836   3.832  1.00  0.00     0.001 A 
HETATM   17  C8  UNK     1      -1.259   0.449   2.492  1.00  0.00     0.009 A 
ENDBRANCH   5  12
ENDBRANCH   2   5
BRANCH   3  18
HETATM   18  C9  UNK     1       1.468   0.355  -1.073  1.00  0.00     0.108 A 
HETATM   19  C11 UNK     1       2.742   0.649  -0.790  1.00  0.00     0.037 A 
HETATM   20  C10 UNK     1       3.464   1.628  -1.589  1.00  0.00    -0.001 A 
HETATM   21  C12 UNK     1       2.807   2.248  -2.647  1.00  0.00     0.089 A 
HETATM   22  C20 UNK     1       4.794   1.966  -1.331  1.00  0.00     0.014 A 
HETATM   23  C21 UNK     1       3.440   3.194  -3.451  1.00  0.00     0.038 A 
HETATM   24  O1  UNK     1       1.465   1.934  -2.940  1.00  0.00    -0.274 OA
HETATM   25  C23 UNK     1       4.767   3.525  -3.186  1.00  0.00     0.003 A 
HETATM   26  C22 UNK     1       5.443   2.912  -2.128  1.00  0.00     0.001 A 
HETATM   27  C17 UNK     1       0.749   1.003  -2.193  1.00  0.00     0.304 A 
HETATM   28  O3  UNK     1      -0.419   0.735  -2.455  1.00  0.00    -0.259 OA
ENDBRANCH   3  18
TORSDOF 4
