REMARK  7 active torsions:
REMARK  status: ('A' for Active; 'I' for Inactive)
REMARK    1  A    between atoms: C2_10  and  N1_3 
REMARK    2  A    between atoms: C3_11  and  N1_3 
REMARK    3  A    between atoms: C8_16  and  N1_3 
REMARK    4  A    between atoms: C16_24  and  N2_4 
REMARK    5  A    between atoms: C5_13  and  N2_4 
REMARK    6  A    between atoms: C19_27  and  N6_8 
REMARK    7  A    between atoms: C12_20  and  C6_14 
ROOT
HETATM    1  O1  UNK     1      -0.638  -1.109   0.980  1.00  0.00    -0.274 OA
HETATM    2  O2  UNK     1      -1.283  -1.974   2.989  1.00  0.00    -0.259 OA
HETATM    3  C1  UNK     1      -2.310  -0.525  -0.681  1.00  0.00    -0.001 A 
HETATM    4  C4  UNK     1      -0.980  -0.597  -0.286  1.00  0.00     0.091 A 
HETATM    5  C5  UNK     1      -0.253   0.345  -2.371  1.00  0.00     0.052 A 
HETATM    6  C6  UNK     1      -3.022  -1.478   1.443  1.00  0.00     0.051 A 
HETATM    7  C7  UNK     1      -3.340  -0.993   0.233  1.00  0.00     0.032 A 
HETATM    8  C9  UNK     1       0.056  -0.169  -1.114  1.00  0.00     0.068 A 
HETATM    9  C10 UNK     1      -2.612  -0.009  -1.943  1.00  0.00     0.016 A 
HETATM   10  C11 UNK     1      -1.584   0.425  -2.786  1.00  0.00     0.031 A 
HETATM   11  C15 UNK     1      -1.602  -1.552   1.882  1.00  0.00     0.299 A 
ENDROOT
BRANCH   5  12
HETATM   12  N2  UNK     1       0.779   0.784  -3.227  1.00  0.00    -0.187 N 
HETATM   13  H9  UNK     1       0.523   0.814  -4.209  1.00  0.00     0.184 HD
BRANCH  12  14
HETATM   14  C16 UNK     1       2.051   1.337  -2.982  1.00  0.00     0.758 A 
HETATM   15  N3  UNK     1       2.403   1.501  -1.695  1.00  0.00     0.131 NA
HETATM   16  C8  UNK     1       3.626   2.033  -1.538  1.00  0.00     0.756 A 
HETATM   17  N4  UNK     1       4.474   2.393  -2.515  1.00  0.00     0.131 NA
HETATM   18  C19 UNK     1       3.991   2.173  -3.748  1.00  0.00     0.751 A 
HETATM   19  N5  UNK     1       2.793   1.650  -4.058  1.00  0.00     0.131 NA
BRANCH  16  20
HETATM   20  N1  UNK     1       4.064   2.236  -0.212  1.00  0.00    -0.214 N 
BRANCH  20  21
HETATM   21  C2  UNK     1       3.207   1.889   0.904  1.00  0.00     0.137 C 
HETATM   22  C13 UNK     1       3.436   0.446   1.309  1.00  0.00     0.027 C 
ENDBRANCH  20  21
BRANCH  20  23
HETATM   23  C3  UNK     1       5.369   2.806   0.050  1.00  0.00     0.137 C 
HETATM   24  C14 UNK     1       5.276   4.319   0.110  1.00  0.00     0.027 C 
ENDBRANCH  20  23
ENDBRANCH  16  20
BRANCH  18  25
HETATM   25  N6  UNK     1       4.827   2.527  -4.829  1.00  0.00    -0.230 N 
HETATM   26  H21 UNK     1       4.504   2.380  -5.776  1.00  0.00     0.174 HD
HETATM   27  H22 UNK     1       5.737   2.925  -4.644  1.00  0.00     0.174 HD
ENDBRANCH  18  25
ENDBRANCH  12  14
ENDBRANCH   5  12
BRANCH   6  28
HETATM   28  C12 UNK     1      -4.101  -1.955   2.328  1.00  0.00    -0.020 A 
HETATM   29  C17 UNK     1      -4.507  -3.288   2.275  1.00  0.00     0.012 A 
HETATM   30  C20 UNK     1      -5.528  -3.740   3.112  1.00  0.00     0.001 A 
HETATM   31  C22 UNK     1      -6.143  -2.858   4.001  1.00  0.00     0.000 A 
HETATM   32  C21 UNK     1      -5.736  -1.524   4.053  1.00  0.00     0.001 A 
HETATM   33  C18 UNK     1      -4.716  -1.073   3.217  1.00  0.00     0.012 A 
ENDBRANCH   6  28
TORSDOF 7
