REMARK  5 active torsions:
REMARK  status: ('A' for Active; 'I' for Inactive)
REMARK    1  A    between atoms: C15_22  and  O4_5 
REMARK    2  A    between atoms: C21_28  and  O4_5 
REMARK    3  A    between atoms: C9_16  and  N1_6 
REMARK    4  A    between atoms: C1_8  and  C3_10 
REMARK    5  A    between atoms: C11_18  and  C15_22 
ROOT
HETATM    1  O1  UNK     1       2.545  -1.129  -1.822  1.00  0.00    -0.269 OA
HETATM    2  O2  UNK     1       3.385  -0.180   0.149  1.00  0.00    -0.286 OA
HETATM    3  O3  UNK     1       1.515   3.352  -0.611  1.00  0.00    -0.287 OA
HETATM    4  N2  UNK     1       0.219   0.193  -5.829  1.00  0.00    -0.191 NA
HETATM    5  C1  UNK     1       1.059   1.223  -2.512  1.00  0.00     0.108 C 
HETATM    6  C2  UNK     1       1.922   1.104  -1.275  1.00  0.00     0.065 A 
HETATM    7  C4  UNK     1       1.249   0.043  -3.456  1.00  0.00     0.086 C 
HETATM    8  C5  UNK     1       2.599  -0.023  -0.982  1.00  0.00     0.204 A 
HETATM    9  C6  UNK     1       2.052   2.279  -0.372  1.00  0.00     0.197 A 
HETATM   10  C8  UNK     1       2.868   2.087   0.835  1.00  0.00     0.049 A 
HETATM   11  C9  UNK     1       1.953  -1.049  -3.081  1.00  0.00     0.162 C 
HETATM   12  C12 UNK     1       3.494   0.860   1.032  1.00  0.00     0.092 A 
HETATM   13  C16 UNK     1       3.019   3.115   1.769  1.00  0.00     0.018 A 
HETATM   14  C17 UNK     1       4.276   0.652   2.169  1.00  0.00     0.038 A 
HETATM   15  C18 UNK     1       0.680   0.126  -4.767  1.00  0.00     0.100 C 
HETATM   16  C19 UNK     1       3.800   2.904   2.905  1.00  0.00     0.001 A 
HETATM   17  C20 UNK     1       4.429   1.675   3.105  1.00  0.00     0.003 A 
ENDROOT
BRANCH   5  18
HETATM   18  C3  UNK     1      -0.387   1.356  -2.133  1.00  0.00    -0.043 A 
HETATM   19  C10 UNK     1      -1.086   2.506  -2.481  1.00  0.00     0.008 A 
HETATM   20  C13 UNK     1      -2.430   2.630  -2.129  1.00  0.00     0.001 A 
HETATM   21  C14 UNK     1      -3.066   1.603  -1.432  1.00  0.00     0.009 A 
HETATM   22  C11 UNK     1      -2.358   0.452  -1.087  1.00  0.00    -0.034 A 
HETATM   23  C7  UNK     1      -1.014   0.328  -1.439  1.00  0.00     0.017 A 
BRANCH  22  24
HETATM   24  C15 UNK     1      -3.039  -0.647  -0.342  1.00  0.00     0.214 C 
BRANCH  24  25
HETATM   25  O4  UNK     1      -2.899  -0.427   1.056  1.00  0.00    -0.347 OA
BRANCH  25  26
HETATM   26  C21 UNK     1      -3.439  -1.373   1.887  1.00  0.00     0.069 A 
HETATM   27  C22 UNK     1      -4.085  -2.478   1.343  1.00  0.00     0.038 A 
HETATM   28  C24 UNK     1      -4.637  -3.440   2.189  1.00  0.00     0.026 A 
HETATM   29  C26 UNK     1      -4.540  -3.292   3.572  1.00  0.00     0.034 A 
HETATM   30  C25 UNK     1      -3.890  -2.180   4.110  1.00  0.00     0.026 A 
HETATM   31 Cl1  UNK     1      -5.220  -4.479   4.615  1.00  0.00    -0.084 Cl
HETATM   32  C23 UNK     1      -3.338  -1.218   3.265  1.00  0.00     0.038 A 
ENDBRANCH  25  26
ENDBRANCH  24  25
ENDBRANCH  22  24
ENDBRANCH   5  18
BRANCH  11  33
HETATM   33  N1  UNK     1       2.160  -2.156  -3.858  1.00  0.00    -0.379 N 
HETATM   34  H10 UNK     1       1.777  -2.216  -4.792  1.00  0.00     0.158 HD
HETATM   35  H11 UNK     1       2.703  -2.922  -3.480  1.00  0.00     0.158 HD
ENDBRANCH  11  33
TORSDOF 5
