REMARK  5 active torsions:
REMARK  status: ('A' for Active; 'I' for Inactive)
REMARK    1  A    between atoms: C8_14  and  O2_2 
REMARK    2  A    between atoms: C1_7  and  N1_5 
REMARK    3  A    between atoms: C2_8  and  N2_6 
REMARK       I    between atoms: C7_13  and  N2_6 
REMARK    4  A    between atoms: C1_7  and  C2_8 
REMARK    5  A    between atoms: C4_10  and  C7_13 
ROOT
HETATM    1  O1  UNK     1       0.800   0.522  -1.992  1.00  0.00    -0.271 OA
HETATM    2  O4  UNK     1      -1.192  -0.500  -1.534  1.00  0.00    -0.259 OA
HETATM    3  C3  UNK     1       2.233   1.230  -0.160  1.00  0.00     0.002 A 
HETATM    4  C4  UNK     1       0.122   0.148   0.328  1.00  0.00     0.108 A 
HETATM    5  C5  UNK     1       1.986   1.121  -1.525  1.00  0.00     0.123 A 
HETATM    6  C6  UNK     1       1.247   0.716   0.777  1.00  0.00     0.037 A 
HETATM    7  C8  UNK     1       2.890   1.594  -2.475  1.00  0.00     0.102 A 
HETATM    8  C11 UNK     1       3.422   1.830   0.263  1.00  0.00     0.014 A 
HETATM    9  C12 UNK     1      -0.163   0.021  -1.119  1.00  0.00     0.304 A 
HETATM   10  C13 UNK     1       4.072   2.191  -2.044  1.00  0.00     0.040 A 
HETATM   11  C14 UNK     1       4.338   2.309  -0.678  1.00  0.00     0.004 A 
ENDROOT
BRANCH   4  12
HETATM   12  C7  UNK     1      -0.810  -0.341   1.351  1.00  0.00     0.257 C 
HETATM   13  O3  UNK     1      -0.878   0.199   2.454  1.00  0.00    -0.267 OA
HETATM   14  N2  UNK     1      -1.552  -1.429   0.928  1.00  0.00    -0.355 N 
HETATM   15  H5  UNK     1      -1.407  -1.817   0.000  1.00  0.00     0.162 HD
BRANCH  14  16
HETATM   16  C2  UNK     1      -2.533  -2.087   1.760  1.00  0.00     0.153 C 
BRANCH  16  17
HETATM   17  C1  UNK     1      -3.910  -1.462   1.587  1.00  0.00     0.291 C 
BRANCH  17  18
HETATM   18  N1  UNK     1      -4.889  -2.157   2.413  1.00  0.00     0.081 N 
HETATM   19  C10 UNK     1      -6.212  -1.549   2.268  1.00  0.00     0.309 C 
HETATM   20  C9  UNK     1      -4.943  -3.578   2.064  1.00  0.00     0.309 C 
ENDBRANCH  17  18
ENDBRANCH  16  17
ENDBRANCH  14  16
ENDBRANCH   4  12
BRANCH   7  21
HETATM   21  O2  UNK     1       2.635   1.479  -3.806  1.00  0.00    -0.353 OA
HETATM   22  C15 UNK     1       1.935   2.556  -4.429  1.00  0.00     0.210 C 
ENDBRANCH   7  21
TORSDOF 5
