REMARK  3 active torsions:
REMARK  status: ('A' for Active; 'I' for Inactive)
REMARK    1  A    between atoms: C5_8  and  O2_2 
REMARK    2  A    between atoms: C1_4  and  C2_5 
REMARK    3  A    between atoms: C2_5  and  C6_9 
ROOT
HETATM    1  O1  UNK     1      -0.671   0.176   1.353  1.00  0.00    -0.274 OA
HETATM    2  O3  UNK     1      -1.361  -0.371   3.467  1.00  0.00    -0.260 OA
HETATM    3  C1  UNK     1       0.069   0.750  -0.855  1.00  0.00     0.013 A 
HETATM    4  C3  UNK     1       0.389   0.471   0.472  1.00  0.00     0.099 A 
HETATM    5  C4  UNK     1       1.706   0.480   0.925  1.00  0.00    -0.001 A 
HETATM    6  C5  UNK     1       1.096   1.046  -1.749  1.00  0.00     0.077 A 
HETATM    7  C7  UNK     1       2.729   0.777   0.022  1.00  0.00     0.017 A 
HETATM    8  C8  UNK     1       2.422   1.059  -1.312  1.00  0.00     0.038 A 
HETATM    9  C9  UNK     1       1.967   0.180   2.323  1.00  0.00     0.020 A 
HETATM   10  C11 UNK     1       0.957  -0.099   3.151  1.00  0.00     0.083 A 
HETATM   11  C12 UNK     1      -0.445  -0.115   2.694  1.00  0.00     0.288 A 
ENDROOT
BRANCH   3  12
HETATM   12  C2  UNK     1      -1.351   0.736  -1.316  1.00  0.00     0.072 C 
BRANCH  12  13
HETATM   13  C6  UNK     1      -1.794  -0.620  -1.810  1.00  0.00    -0.020 C 
HETATM   14  C10 UNK     1      -2.812  -1.376  -1.357  1.00  0.00    -0.091 C 
HETATM   15  C13 UNK     1      -3.199  -2.723  -1.897  1.00  0.00     0.042 C 
HETATM   16  C14 UNK     1      -3.666  -0.898  -0.212  1.00  0.00     0.042 C 
ENDBRANCH  12  13
ENDBRANCH   3  12
BRANCH   6  17
HETATM   17  O2  UNK     1       0.825   1.323  -3.056  1.00  0.00    -0.355 OA
HETATM   18  C15 UNK     1       1.936   1.614  -3.900  1.00  0.00     0.210 C 
ENDBRANCH   6  17
TORSDOF 3
