REMARK  3 active torsions:
REMARK  status: ('A' for Active; 'I' for Inactive)
REMARK    1  A    between atoms: C1_5  and  N1_3 
REMARK    2  A    between atoms: C11_15  and  N2_4 
REMARK    3  A    between atoms: C11_15  and  C12_16 
ROOT
HETATM    1  O1  UNK     1      -4.254  -1.054  -0.025  1.00  0.00    -0.275 OA
HETATM    2  O2  UNK     1      -4.278  -1.333  -2.295  1.00  0.00    -0.260 OA
HETATM    3  C12 UNK     1      -1.480  -1.607  -0.086  1.00  0.00    -0.011 A 
HETATM    4  C13 UNK     1      -2.151  -1.316   1.189  1.00  0.00     0.012 A 
HETATM    5  C14 UNK     1      -2.203  -1.606  -1.214  1.00  0.00     0.092 A 
HETATM    6  C15 UNK     1      -3.520  -1.048   1.178  1.00  0.00     0.091 A 
HETATM    7  C16 UNK     1      -1.493  -1.290   2.426  1.00  0.00    -0.048 A 
HETATM    8  C17 UNK     1      -3.649  -1.325  -1.242  1.00  0.00     0.288 A 
HETATM    9  C18 UNK     1      -4.233  -0.761   2.344  1.00  0.00     0.045 A 
HETATM   10  C19 UNK     1      -2.194  -1.004   3.603  1.00  0.00     0.014 A 
HETATM   11  C20 UNK     1      -3.562  -0.740   3.562  1.00  0.00    -0.059 A 
HETATM   12  C21 UNK     1      -0.034  -1.551   2.621  1.00  0.00     0.049 C 
HETATM   13  C22 UNK     1      -4.304  -0.435   4.819  1.00  0.00     0.048 C 
ENDROOT
BRANCH   3  14
HETATM   14  C11 UNK     1      -0.029  -1.911  -0.188  1.00  0.00     0.312 C 
BRANCH  14  15
HETATM   15  N2  UNK     1       0.646  -0.630  -0.384  1.00  0.00     0.096 N 
HETATM   16  C10 UNK     1       0.494  -0.167  -1.769  1.00  0.00     0.303 C 
HETATM   17  C7  UNK     1       1.202   1.176  -1.976  1.00  0.00     0.303 C 
HETATM   18  N1  UNK     1       2.624   1.077  -1.623  1.00  0.00     0.096 N 
HETATM   19  C6  UNK     1       2.777   0.613  -0.239  1.00  0.00     0.303 C 
HETATM   20  C9  UNK     1       2.068  -0.730  -0.032  1.00  0.00     0.303 C 
BRANCH  18  21
HETATM   21  C1  UNK     1       3.297   2.360  -1.818  1.00  0.00     0.223 C 
HETATM   22  C2  UNK     1       4.792   2.214  -1.515  1.00  0.00     0.036 C 
HETATM   23  C4  UNK     1       5.544   3.517  -1.782  1.00  0.00     0.002 C 
HETATM   24  C8  UNK     1       5.311   4.020  -3.203  1.00  0.00     0.000 C 
HETATM   25  C5  UNK     1       3.823   4.157  -3.515  1.00  0.00     0.002 C 
HETATM   26  C3  UNK     1       3.070   2.855  -3.251  1.00  0.00     0.036 C 
ENDBRANCH  18  21
ENDBRANCH  14  15
ENDBRANCH   3  14
TORSDOF 3
