REMARK  2 active torsions:
REMARK  status: ('A' for Active; 'I' for Inactive)
REMARK       I    between atoms: C5_13  and  N1_7 
REMARK       I    between atoms: C6_14  and  N2_8 
REMARK    1  A    between atoms: C5_13  and  C7_15 
REMARK    2  A    between atoms: C6_14  and  C8_16 
ROOT
HETATM    1  O1  UNK     1       1.343   0.882  -4.518  1.00  0.00    -0.267 OA
HETATM    2  O2  UNK     1      -4.283  -1.285  -1.461  1.00  0.00    -0.267 OA
HETATM    3  N1  UNK     1       0.093   0.667  -2.568  1.00  0.00    -0.345 N 
HETATM    4  N2  UNK     1      -2.007  -0.819  -1.347  1.00  0.00    -0.345 N 
HETATM    5  C1  UNK     1      -0.049   0.683  -1.106  1.00  0.00     0.146 C 
HETATM    6  C2  UNK     1      -1.159   0.430  -3.292  1.00  0.00     0.146 C 
HETATM    7  C3  UNK     1      -0.767  -0.571  -0.599  1.00  0.00     0.146 C 
HETATM    8  C4  UNK     1      -1.839  -0.842  -2.802  1.00  0.00     0.146 C 
HETATM    9  C5  UNK     1       1.260   0.904  -3.288  1.00  0.00     0.260 C 
HETATM   10  C6  UNK     1      -3.262  -1.081  -0.803  1.00  0.00     0.260 C 
ENDROOT
BRANCH   9  11
HETATM   11  C7  UNK     1       2.488   1.209  -2.527  1.00  0.00     0.108 A 
HETATM   12  C11 UNK     1       3.417   0.148  -2.078  1.00  0.00     0.304 A 
HETATM   13  O3  UNK     1       4.541   0.561  -1.368  1.00  0.00    -0.274 OA
HETATM   14  O5  UNK     1       3.212  -1.037  -2.317  1.00  0.00    -0.259 OA
HETATM   15  C15 UNK     1       4.786   1.919  -1.088  1.00  0.00     0.089 A 
HETATM   16  C13 UNK     1       3.900   2.901  -1.520  1.00  0.00    -0.001 A 
HETATM   17  C19 UNK     1       5.939   2.235  -0.372  1.00  0.00     0.038 A 
HETATM   18  C9  UNK     1       2.715   2.501  -2.264  1.00  0.00     0.037 A 
HETATM   19  C17 UNK     1       4.177   4.237  -1.223  1.00  0.00     0.014 A 
HETATM   20  C21 UNK     1       5.329   4.570  -0.504  1.00  0.00     0.001 A 
HETATM   21  C23 UNK     1       6.208   3.571  -0.080  1.00  0.00     0.003 A 
ENDBRANCH   9  11
BRANCH  10  22
HETATM   22  C8  UNK     1      -3.378  -1.121   0.669  1.00  0.00     0.108 A 
HETATM   23  C10 UNK     1      -3.185  -2.314   1.244  1.00  0.00     0.037 A 
HETATM   24  C14 UNK     1      -3.279  -2.455   2.689  1.00  0.00    -0.001 A 
HETATM   25  C16 UNK     1      -3.572  -1.332   3.457  1.00  0.00     0.089 A 
HETATM   26  C18 UNK     1      -3.085  -3.680   3.332  1.00  0.00     0.014 A 
HETATM   27  O4  UNK     1      -3.774  -0.079   2.845  1.00  0.00    -0.274 OA
HETATM   28  C20 UNK     1      -3.677  -1.399   4.845  1.00  0.00     0.038 A 
HETATM   29  C12 UNK     1      -3.690   0.086   1.465  1.00  0.00     0.304 A 
HETATM   30  O6  UNK     1      -3.869   1.181   0.941  1.00  0.00    -0.259 OA
HETATM   31  C24 UNK     1      -3.483  -2.625   5.478  1.00  0.00     0.003 A 
HETATM   32  C22 UNK     1      -3.187  -3.762   4.724  1.00  0.00     0.001 A 
ENDBRANCH  10  22
TORSDOF 2
