REMARK  1 active torsions:
REMARK  status: ('A' for Active; 'I' for Inactive)
REMARK       I    between atoms: C8_13  and  N1_5 
REMARK    1  A    between atoms: C8_13  and  C9_14 
ROOT
HETATM    1 Cl1  UNK     1       4.931   3.766  -1.352  1.00  0.00    -0.084 Cl
HETATM    2  O2  UNK     1       0.581  -0.069  -2.429  1.00  0.00    -0.274 OA
HETATM    3  O3  UNK     1      -0.973  -1.568  -1.681  1.00  0.00    -0.259 OA
HETATM    4  C9  UNK     1       0.376  -0.526  -0.036  1.00  0.00     0.108 A 
HETATM    5  C10 UNK     1       1.360   0.338   0.241  1.00  0.00     0.037 A 
HETATM    6  C11 UNK     1       2.023   1.062  -0.832  1.00  0.00     0.001 A 
HETATM    7  C12 UNK     1      -0.072  -0.777  -1.424  1.00  0.00     0.304 A 
HETATM    8  C13 UNK     1       1.618   0.841  -2.144  1.00  0.00     0.089 A 
HETATM    9  C14 UNK     1       3.054   1.973  -0.589  1.00  0.00     0.038 A 
HETATM   10  C15 UNK     1       2.211   1.504  -3.217  1.00  0.00     0.040 A 
HETATM   11  C16 UNK     1       3.660   2.644  -1.656  1.00  0.00     0.035 A 
HETATM   12  C17 UNK     1       3.238   2.410  -2.966  1.00  0.00     0.026 A 
ENDROOT
BRANCH   4  13
HETATM   13  C8  UNK     1      -0.235  -1.213   1.121  1.00  0.00     0.259 C 
HETATM   14  O1  UNK     1       0.269  -2.282   1.472  1.00  0.00    -0.267 OA
HETATM   15  N1  UNK     1      -1.336  -0.611   1.743  1.00  0.00    -0.348 N 
HETATM   16  C6  UNK     1      -1.846   0.731   1.420  1.00  0.00     0.126 C 
HETATM   17  C7  UNK     1      -1.934  -1.300   2.893  1.00  0.00     0.126 C 
HETATM   18  C4  UNK     1      -2.737   0.770   0.174  1.00  0.00     0.020 C 
HETATM   19  C2  UNK     1      -4.076   0.033   0.279  1.00  0.00     0.002 C 
HETATM   20  C1  UNK     1      -3.946  -1.485   0.426  1.00  0.00     0.000 C 
HETATM   21  C3  UNK     1      -4.176  -2.013   1.843  1.00  0.00     0.002 C 
HETATM   22  C5  UNK     1      -3.459  -1.283   2.977  1.00  0.00     0.020 C 
ENDBRANCH   4  13
TORSDOF 1
