REMARK  4 active torsions:
REMARK  status: ('A' for Active; 'I' for Inactive)
REMARK    1  A    between atoms: C5_13  and  S1_2 
REMARK    2  A    between atoms: N1_7  and  S1_2 
REMARK    3  A    between atoms: N1_7  and  N2_8 
REMARK    4  A    between atoms: C13_21  and  C4_12 
ROOT
HETATM    1  N2  UNK     1       0.464   0.294  -1.889  1.00  0.00    -0.176 NA
HETATM    2  C13 UNK     1      -0.821   0.344  -2.017  1.00  0.00     0.156 C 
ENDROOT
BRANCH   2   3
HETATM    3  C4  UNK     1      -1.735  -0.152  -0.987  1.00  0.00     0.056 A 
HETATM    4  C3  UNK     1      -1.284  -0.753   0.287  1.00  0.00     0.198 A 
HETATM    5  C1  UNK     1      -2.350  -1.199   1.203  1.00  0.00     0.050 A 
HETATM    6  O2  UNK     1      -0.099  -0.875   0.566  1.00  0.00    -0.286 OA
HETATM    7  C2  UNK     1      -3.684  -1.031   0.825  1.00  0.00     0.089 A 
HETATM    8  C6  UNK     1      -2.035  -1.783   2.432  1.00  0.00     0.042 A 
HETATM    9  O1  UNK     1      -4.052  -0.464  -0.370  1.00  0.00    -0.321 OA
HETATM   10  C7  UNK     1      -4.708  -1.446   1.677  1.00  0.00     0.040 A 
HETATM   11  C8  UNK     1      -3.049  -0.054  -1.216  1.00  0.00     0.159 A 
HETATM   12  C12 UNK     1      -4.395  -2.029   2.905  1.00  0.00     0.026 A 
HETATM   13  C11 UNK     1      -3.062  -2.197   3.281  1.00  0.00     0.035 A 
HETATM   14 Cl1  UNK     1      -2.683  -2.919   4.798  1.00  0.00    -0.084 Cl
ENDBRANCH   2   3
BRANCH   1  15
HETATM   15  N1  UNK     1       1.171   0.847  -3.031  1.00  0.00    -0.200 N 
HETATM   16  H6  UNK     1       0.697   1.555  -3.605  1.00  0.00     0.202 HD
BRANCH  15  17
HETATM   17  S1  UNK     1       2.870   0.757  -2.984  1.00  0.00     0.277 S 
HETATM   18  O3  UNK     1       3.420   1.453  -4.132  1.00  0.00    -0.199 OA
HETATM   19  O4  UNK     1       3.262  -0.610  -2.698  1.00  0.00    -0.199 OA
BRANCH  17  20
HETATM   20  C5  UNK     1       3.240   1.740  -1.562  1.00  0.00     0.081 A 
HETATM   21  C10 UNK     1       3.452   3.098  -1.717  1.00  0.00     0.025 A 
HETATM   22  C15 UNK     1       3.744   3.874  -0.594  1.00  0.00     0.002 A 
HETATM   23  C16 UNK     1       3.819   3.278   0.665  1.00  0.00     0.000 A 
HETATM   24  C14 UNK     1       3.601   1.907   0.802  1.00  0.00     0.002 A 
HETATM   25  C9  UNK     1       3.309   1.132  -0.321  1.00  0.00     0.025 A 
ENDBRANCH  17  20
ENDBRANCH  15  17
ENDBRANCH   1  15
TORSDOF 4
