REMARK  1 active torsions:
REMARK  status: ('A' for Active; 'I' for Inactive)
REMARK    1  A    between atoms: C3_6  and  C4_7 
ROOT
HETATM    1 Br1  UNK     1      -4.527  -2.034   3.167  1.00  0.00    -0.051 Br
HETATM    2  O1  UNK     1       0.101   0.820   0.513  1.00  0.00    -0.309 OA
HETATM    3  O2  UNK     1      -2.166  -1.663  -1.788  1.00  0.00    -0.287 OA
HETATM    4  C1  UNK     1      -1.776  -0.711   0.340  1.00  0.00     0.049 A 
HETATM    5  C2  UNK     1      -0.959   0.150   1.070  1.00  0.00     0.090 A 
HETATM    6  C3  UNK     1       0.364   0.635  -0.836  1.00  0.00     0.090 A 
HETATM    7  C5  UNK     1      -1.494  -0.917  -1.089  1.00  0.00     0.187 A 
HETATM    8  C6  UNK     1      -0.345  -0.172  -1.640  1.00  0.00     0.093 A 
HETATM    9  C7  UNK     1      -2.843  -1.367   0.959  1.00  0.00     0.037 A 
HETATM   10  C8  UNK     1      -1.204   0.361   2.427  1.00  0.00     0.039 A 
HETATM   11  C11 UNK     1      -3.086  -1.154   2.317  1.00  0.00     0.012 A 
HETATM   12  C12 UNK     1      -2.269  -0.291   3.049  1.00  0.00     0.022 A 
ENDROOT
BRANCH   6  13
HETATM   13  C4  UNK     1       1.529   1.397  -1.329  1.00  0.00    -0.002 A 
HETATM   14  C10 UNK     1       1.856   2.627  -0.754  1.00  0.00     0.014 A 
HETATM   15  C14 UNK     1       2.955   3.349  -1.221  1.00  0.00     0.001 A 
HETATM   16  C15 UNK     1       3.729   2.844  -2.265  1.00  0.00     0.000 A 
HETATM   17  C13 UNK     1       3.405   1.616  -2.842  1.00  0.00     0.001 A 
HETATM   18  C9  UNK     1       2.307   0.894  -2.375  1.00  0.00     0.014 A 
ENDBRANCH   6  13
TORSDOF 1
