REMARK  2 active torsions:
REMARK  status: ('A' for Active; 'I' for Inactive)
REMARK       I    between atoms: C6_13  and  N1_7 
REMARK    1  A    between atoms: C9_16  and  N1_7 
REMARK    2  A    between atoms: C2_9  and  C6_13 
ROOT
HETATM    1 Br1  UNK     1       5.979   3.948  -1.476  1.00  0.00    -0.051 Br
HETATM    2  O1  UNK     1       1.154   0.523  -2.817  1.00  0.00    -0.274 OA
HETATM    3  O3  UNK     1      -0.622  -0.751  -2.150  1.00  0.00    -0.259 OA
HETATM    4  C1  UNK     1       2.600   1.535  -1.144  1.00  0.00     0.000 A 
HETATM    5  C2  UNK     1       0.718   0.184  -0.434  1.00  0.00     0.108 A 
HETATM    6  C3  UNK     1       2.269   1.314  -2.478  1.00  0.00     0.089 A 
HETATM    7  C4  UNK     1       1.776   0.935  -0.106  1.00  0.00     0.037 A 
HETATM    8  C5  UNK     1       3.713   2.325  -0.848  1.00  0.00     0.033 A 
HETATM    9  C7  UNK     1       0.347  -0.064  -1.846  1.00  0.00     0.304 A 
HETATM   10  C8  UNK     1       3.016   1.860  -3.519  1.00  0.00     0.039 A 
HETATM   11  C10 UNK     1       4.472   2.879  -1.883  1.00  0.00     0.011 A 
HETATM   12  C11 UNK     1       4.124   2.647  -3.215  1.00  0.00     0.022 A 
ENDROOT
BRANCH   5  13
HETATM   13  C6  UNK     1      -0.051  -0.377   0.683  1.00  0.00     0.262 C 
HETATM   14  O2  UNK     1       0.516  -0.642   1.741  1.00  0.00    -0.267 OA
HETATM   15  N1  UNK     1      -1.393  -0.540   0.366  1.00  0.00    -0.321 N 
HETATM   16  H4  UNK     1      -1.714  -0.251  -0.555  1.00  0.00     0.169 HD
BRANCH  15  17
HETATM   17  C9  UNK     1      -2.420  -1.053   1.195  1.00  0.00     0.057 A 
HETATM   18  C12 UNK     1      -3.722  -1.154   0.732  1.00  0.00     0.062 A 
HETATM   19 Cl1  UNK     1      -4.169  -0.671  -0.866  1.00  0.00    -0.082 Cl
HETATM   20  C14 UNK     1      -4.710  -1.662   1.575  1.00  0.00     0.050 A 
HETATM   21  C16 UNK     1      -4.383  -2.063   2.870  1.00  0.00     0.035 A 
HETATM   22  C15 UNK     1      -3.068  -1.955   3.323  1.00  0.00     0.026 A 
HETATM   23 Cl2  UNK     1      -5.602  -2.691   3.911  1.00  0.00    -0.084 Cl
HETATM   24  C13 UNK     1      -2.080  -1.447   2.480  1.00  0.00     0.033 A 
ENDBRANCH  15  17
ENDBRANCH   5  13
TORSDOF 2
