REMARK  5 active torsions:
REMARK  status: ('A' for Active; 'I' for Inactive)
REMARK    1  A    between atoms: C15_21  and  O2_3 
REMARK    2  A    between atoms: C5_11  and  O2_3 
REMARK    3  A    between atoms: C7_13  and  N1_6 
REMARK       I    between atoms: C8_14  and  N1_6 
REMARK    4  A    between atoms: C3_9  and  C8_14 
REMARK    5  A    between atoms: C11_17  and  C7_13 
ROOT
HETATM    1 Br1  UNK     1       5.577   2.332   1.092  1.00  0.00    -0.051 Br
HETATM    2  O1  UNK     1       0.718   0.719  -2.164  1.00  0.00    -0.271 OA
HETATM    3  O4  UNK     1      -1.506   0.213  -2.291  1.00  0.00    -0.259 OA
HETATM    4  C1  UNK     1       1.696   1.301  -0.015  1.00  0.00     0.003 A 
HETATM    5  C2  UNK     1       1.830   1.094  -1.384  1.00  0.00     0.123 A 
HETATM    6  C3  UNK     1      -0.664   0.768  -0.147  1.00  0.00     0.108 A 
HETATM    7  C4  UNK     1       0.389   1.124   0.599  1.00  0.00     0.037 A 
HETATM    8  C5  UNK     1       3.053   1.247  -2.033  1.00  0.00     0.104 A 
HETATM    9  C6  UNK     1       2.822   1.672   0.724  1.00  0.00     0.033 A 
HETATM   10  C9  UNK     1      -0.545   0.542  -1.605  1.00  0.00     0.304 A 
HETATM   11  C10 UNK     1       4.171   1.617  -1.289  1.00  0.00     0.058 A 
HETATM   12  C12 UNK     1       4.056   1.829   0.087  1.00  0.00     0.014 A 
ENDROOT
BRANCH   6  13
HETATM   13  C8  UNK     1      -1.939   0.614   0.564  1.00  0.00     0.258 C 
HETATM   14  O3  UNK     1      -2.187   1.278   1.568  1.00  0.00    -0.267 OA
HETATM   15  N1  UNK     1      -2.769  -0.327  -0.019  1.00  0.00    -0.352 N 
HETATM   16  H6  UNK     1      -2.453  -0.857  -0.826  1.00  0.00     0.163 HD
BRANCH  15  17
HETATM   17  C7  UNK     1      -4.076  -0.655   0.503  1.00  0.00     0.161 C 
BRANCH  17  18
HETATM   18  C11 UNK     1      -3.980  -1.778   1.498  1.00  0.00    -0.041 A 
HETATM   19  C13 UNK     1      -4.090  -3.092   1.062  1.00  0.00     0.009 A 
HETATM   20  C16 UNK     1      -4.001  -4.134   1.985  1.00  0.00     0.001 A 
HETATM   21  C18 UNK     1      -3.803  -3.853   3.337  1.00  0.00     0.000 A 
HETATM   22  C17 UNK     1      -3.694  -2.530   3.765  1.00  0.00     0.001 A 
HETATM   23  C14 UNK     1      -3.783  -1.488   2.842  1.00  0.00     0.009 A 
ENDBRANCH  17  18
ENDBRANCH  15  17
ENDBRANCH   6  13
BRANCH   8  24
HETATM   24  O2  UNK     1       3.170   1.041  -3.373  1.00  0.00    -0.349 OA
BRANCH  24  25
HETATM   25  C15 UNK     1       4.166   1.796  -4.062  1.00  0.00     0.171 C 
HETATM   26  C19 UNK     1       3.716   2.016  -5.491  1.00  0.00     0.034 C 
ENDBRANCH  24  25
ENDBRANCH   8  24
TORSDOF 5
