REMARK  8 active torsions:
REMARK  status: ('A' for Active; 'I' for Inactive)
REMARK    1  A    between atoms: C2_8  and  S1_4 
REMARK    2  A    between atoms: C6_12  and  S1_4 
REMARK    3  A    between atoms: C1_7  and  N1_6 
REMARK       I    between atoms: C5_11  and  N1_6 
REMARK    4  A    between atoms: C1_7  and  C2_8 
REMARK    5  A    between atoms: C3_9  and  C4_10 
REMARK    6  A    between atoms: C3_9  and  C5_11 
REMARK    7  A    between atoms: C6_12  and  C7_13 
REMARK    8  A    between atoms: C8_14  and  C9_15 
ROOT
HETATM    1  O1  UNK     1       2.817   0.576   2.120  1.00  0.00    -0.268 OA
HETATM    2  N1  UNK     1       0.971  -0.619   1.410  1.00  0.00    -0.356 N 
HETATM    3  C5  UNK     1       2.045   0.237   1.225  1.00  0.00     0.252 C 
HETATM    4  H5  UNK     1       0.358  -0.864   0.640  1.00  0.00     0.162 HD
ENDROOT
BRANCH   3   5
HETATM    5  C3  UNK     1       2.209   0.729  -0.191  1.00  0.00     0.043 C 
HETATM    6  C8  UNK     1       3.232   1.581  -0.408  1.00  0.00     0.031 C 
BRANCH   5   7
HETATM    7  C4  UNK     1       1.289   0.318  -1.269  1.00  0.00    -0.021 A 
HETATM    8  C10 UNK     1       0.146   1.062  -1.503  1.00  0.00     0.012 A 
HETATM    9  C16 UNK     1      -0.723   0.674  -2.523  1.00  0.00     0.001 A 
HETATM   10  C20 UNK     1      -0.436  -0.454  -3.293  1.00  0.00     0.000 A 
HETATM   11  C17 UNK     1       0.720  -1.192  -3.043  1.00  0.00     0.001 A 
HETATM   12  C11 UNK     1       1.590  -0.804  -2.023  1.00  0.00     0.012 A 
ENDBRANCH   5   7
BRANCH   6  13
HETATM   13  C9  UNK     1       3.567   2.213  -1.693  1.00  0.00    -0.013 A 
HETATM   14  C14 UNK     1       3.045   3.446  -2.059  1.00  0.00     0.044 A 
HETATM   15 Cl3  UNK     1       1.966   4.333  -1.040  1.00  0.00    -0.083 Cl
HETATM   16  C22 UNK     1       3.393   4.003  -3.290  1.00  0.00     0.024 A 
HETATM   17  C24 UNK     1       4.260   3.322  -4.143  1.00  0.00     0.002 A 
HETATM   18  C23 UNK     1       4.780   2.083  -3.766  1.00  0.00     0.001 A 
HETATM   19  C15 UNK     1       4.432   1.526  -2.536  1.00  0.00     0.013 A 
ENDBRANCH   6  13
ENDBRANCH   3   5
BRANCH   2  20
HETATM   20  C1  UNK     1       0.659  -1.199   2.696  1.00  0.00     0.133 C 
BRANCH  20  21
HETATM   21  C2  UNK     1      -0.292  -0.343   3.521  1.00  0.00     0.093 C 
BRANCH  21  22
HETATM   22  S1  UNK     1      -1.869  -0.048   2.665  1.00  0.00    -0.163 SA
BRANCH  22  23
HETATM   23  C6  UNK     1      -2.438  -1.760   2.573  1.00  0.00     0.116 C 
BRANCH  23  24
HETATM   24  C7  UNK     1      -3.774  -1.879   1.892  1.00  0.00    -0.005 A 
HETATM   25  C12 UNK     1      -4.943  -1.807   2.644  1.00  0.00     0.042 A 
HETATM   26 Cl1  UNK     1      -4.909  -1.583   4.356  1.00  0.00    -0.084 Cl
HETATM   27  C18 UNK     1      -6.182  -1.917   2.012  1.00  0.00     0.024 A 
HETATM   28  C21 UNK     1      -6.247  -2.098   0.631  1.00  0.00     0.003 A 
HETATM   29  C19 UNK     1      -5.073  -2.170  -0.119  1.00  0.00     0.024 A 
HETATM   30  C13 UNK     1      -3.834  -2.060   0.513  1.00  0.00     0.042 A 
HETATM   31 Cl2  UNK     1      -2.406  -2.152  -0.455  1.00  0.00    -0.084 Cl
ENDBRANCH  23  24
ENDBRANCH  22  23
ENDBRANCH  21  22
ENDBRANCH  20  21
ENDBRANCH   2  20
TORSDOF 8
