REMARK  6 active torsions:
REMARK  status: ('A' for Active; 'I' for Inactive)
REMARK    1  A    between atoms: C9_18  and  S1_1 
REMARK    2  A    between atoms: N2_8  and  S1_1 
REMARK    3  A    between atoms: C12_21  and  N1_7 
REMARK    4  A    between atoms: C4_13  and  N1_7 
REMARK    5  A    between atoms: N2_8  and  N3_9 
REMARK    6  A    between atoms: C12_21  and  N3_9 
ROOT
HETATM    1  S2  UNK     1       2.101   1.774   3.075  1.00  0.00    -0.039 SA
HETATM    2  C12 UNK     1       2.211   1.089   1.549  1.00  0.00     0.191 C 
ENDROOT
BRANCH   2   3
HETATM    3  N1  UNK     1       1.288   0.253   0.902  1.00  0.00    -0.332 N 
HETATM    4  H8  UNK     1       1.494   0.141  -0.089  1.00  0.00     0.168 HD
BRANCH   3   5
HETATM    5  C4  UNK     1       0.047  -0.266   1.269  1.00  0.00     0.037 A 
HETATM    6  C5  UNK     1      -0.902  -0.563   0.296  1.00  0.00     0.067 A 
HETATM    7  C2  UNK     1      -2.138  -1.083   0.685  1.00  0.00     0.092 A 
HETATM    8  C1  UNK     1      -2.459  -1.319   2.023  1.00  0.00     0.004 A 
HETATM    9  O1  UNK     1      -3.056  -1.365  -0.346  1.00  0.00    -0.275 OA
HETATM   10  C3  UNK     1      -3.784  -1.869   2.341  1.00  0.00    -0.043 A 
HETATM   11  C6  UNK     1      -1.490  -1.013   2.988  1.00  0.00     0.017 A 
HETATM   12  C10 UNK     1      -4.161  -2.131   3.770  1.00  0.00     0.049 C 
HETATM   13  C8  UNK     1      -4.637  -2.127   1.341  1.00  0.00     0.090 A 
HETATM   14  C11 UNK     1      -4.313  -1.885  -0.075  1.00  0.00     0.288 A 
HETATM   15  O4  UNK     1      -5.119  -2.134  -0.964  1.00  0.00    -0.260 OA
HETATM   16  C7  UNK     1      -0.247  -0.492   2.613  1.00  0.00     0.030 A 
ENDBRANCH   3   5
ENDBRANCH   2   3
BRANCH   2  17
HETATM   17  N3  UNK     1       3.364   1.337   0.816  1.00  0.00    -0.266 N 
HETATM   18  H12 UNK     1       4.118   1.913   1.175  1.00  0.00     0.190 HD
BRANCH  17  19
HETATM   19  N2  UNK     1       3.524   0.825  -0.528  1.00  0.00    -0.221 N 
HETATM   20  H9  UNK     1       4.149   0.011  -0.582  1.00  0.00     0.200 HD
BRANCH  19  21
HETATM   21  S1  UNK     1       3.626   1.965  -1.787  1.00  0.00     0.276 S 
HETATM   22  O2  UNK     1       4.758   1.640  -2.633  1.00  0.00    -0.199 OA
HETATM   23  O3  UNK     1       3.469   3.306  -1.258  1.00  0.00    -0.199 OA
BRANCH  21  24
HETATM   24  C9  UNK     1       2.167   1.567  -2.703  1.00  0.00     0.081 A 
HETATM   25  C13 UNK     1       0.979   2.204  -2.390  1.00  0.00     0.025 A 
HETATM   26  C15 UNK     1      -0.173   1.890  -3.112  1.00  0.00     0.002 A 
HETATM   27  C17 UNK     1      -0.118   0.943  -4.135  1.00  0.00     0.000 A 
HETATM   28  C16 UNK     1       1.088   0.311  -4.436  1.00  0.00     0.002 A 
HETATM   29  C14 UNK     1       2.240   0.625  -3.715  1.00  0.00     0.025 A 
ENDBRANCH  21  24
ENDBRANCH  19  21
ENDBRANCH  17  19
ENDBRANCH   2  17
TORSDOF 6
