REMARK  3 active torsions:
REMARK  status: ('A' for Active; 'I' for Inactive)
REMARK    1  A    between atoms: C12_16  and  O2_2 
REMARK    2  A    between atoms: C5_9  and  O2_2 
REMARK    3  A    between atoms: C12_16  and  C13_17 
ROOT
HETATM    1  O1  UNK     1      -2.194  -0.872  -0.684  1.00  0.00    -0.274 OA
HETATM    2  O3  UNK     1      -4.387  -1.467  -0.429  1.00  0.00    -0.260 OA
HETATM    3  C1  UNK     1      -0.826  -0.471   1.299  1.00  0.00     0.005 A 
HETATM    4  C2  UNK     1      -0.964  -0.528  -0.089  1.00  0.00     0.099 A 
HETATM    5  C3  UNK     1       0.094  -0.252  -0.956  1.00  0.00     0.007 A 
HETATM    6  C4  UNK     1      -1.993  -0.778   2.136  1.00  0.00    -0.043 A 
HETATM    7  C5  UNK     1       1.333   0.093  -0.426  1.00  0.00     0.087 A 
HETATM    8  C6  UNK     1       0.430  -0.122   1.813  1.00  0.00     0.017 A 
HETATM    9  C7  UNK     1       1.501   0.158   0.956  1.00  0.00     0.039 A 
HETATM   10  C8  UNK     1      -0.094  -0.324  -2.436  1.00  0.00     0.054 C 
HETATM   11  C9  UNK     1      -3.151  -1.102   1.542  1.00  0.00     0.090 A 
HETATM   12  C10 UNK     1      -1.877  -0.726   3.631  1.00  0.00     0.049 C 
HETATM   13  C11 UNK     1      -3.313  -1.167   0.080  1.00  0.00     0.288 A 
ENDROOT
BRANCH   7  14
HETATM   14  O2  UNK     1       2.390   0.369  -1.239  1.00  0.00    -0.278 OA
BRANCH  14  15
HETATM   15  C12 UNK     1       2.502   1.724  -1.601  1.00  0.00     0.263 C 
HETATM   16  O4  UNK     1       1.745   2.617  -1.244  1.00  0.00    -0.265 OA
BRANCH  15  17
HETATM   17  C13 UNK     1       3.705   1.905  -2.499  1.00  0.00     0.107 C 
HETATM   18  C14 UNK     1       3.897   3.354  -2.911  1.00  0.00     0.015 C 
ENDBRANCH  15  17
ENDBRANCH  14  15
ENDBRANCH   7  14
TORSDOF 3
