REMARK  7 active torsions:
REMARK  status: ('A' for Active; 'I' for Inactive)
REMARK    1  A    between atoms: C14_20  and  O2_2 
REMARK    2  A    between atoms: C19_25  and  O2_2 
REMARK    3  A    between atoms: C13_19  and  O3_3 
REMARK    4  A    between atoms: C20_26  and  O3_3 
REMARK    5  A    between atoms: C1_7  and  N1_6 
REMARK       I    between atoms: C5_11  and  N1_6 
REMARK    6  A    between atoms: C1_7  and  C2_8 
REMARK    7  A    between atoms: C4_10  and  C5_11 
ROOT
HETATM    1  O4  UNK     1       1.783   0.064   2.656  1.00  0.00    -0.267 OA
HETATM    2  N1  UNK     1      -0.307   0.110   1.624  1.00  0.00    -0.348 N 
HETATM    3  C5  UNK     1       1.068   0.250   1.673  1.00  0.00     0.258 C 
HETATM    4  H2  UNK     1      -0.800   0.355   0.771  1.00  0.00     0.163 HD
ENDROOT
BRANCH   3   5
HETATM    5  C4  UNK     1       1.646   0.660   0.388  1.00  0.00     0.108 A 
HETATM    6  C10 UNK     1       2.764   1.393   0.449  1.00  0.00     0.037 A 
HETATM    7  C6  UNK     1       3.411   1.847  -0.773  1.00  0.00     0.002 A 
HETATM    8  C16 UNK     1       4.580   2.612  -0.756  1.00  0.00     0.014 A 
HETATM    9  C9  UNK     1       2.849   1.506  -1.998  1.00  0.00     0.123 A 
HETATM   10  C18 UNK     1       5.163   3.024  -1.958  1.00  0.00     0.004 A 
HETATM   11  C17 UNK     1       4.583   2.673  -3.179  1.00  0.00     0.040 A 
HETATM   12  C14 UNK     1       3.419   1.909  -3.205  1.00  0.00     0.103 A 
HETATM   13  O1  UNK     1       1.672   0.735  -2.056  1.00  0.00    -0.271 OA
HETATM   14  C15 UNK     1       1.031   0.286  -0.905  1.00  0.00     0.304 A 
HETATM   15  O5  UNK     1       0.007  -0.386  -0.965  1.00  0.00    -0.259 OA
BRANCH  12  16
HETATM   16  O2  UNK     1       2.858   1.570  -4.396  1.00  0.00    -0.349 OA
BRANCH  16  17
HETATM   17  C19 UNK     1       3.041   2.477  -5.483  1.00  0.00     0.171 C 
HETATM   18  C21 UNK     1       1.855   2.372  -6.418  1.00  0.00     0.034 C 
ENDBRANCH  16  17
ENDBRANCH  12  16
ENDBRANCH   3   5
BRANCH   2  19
HETATM   19  C1  UNK     1      -1.099  -0.287   2.766  1.00  0.00     0.114 C 
HETATM   20  C3  UNK     1      -1.482   0.924   3.609  1.00  0.00     0.037 C 
BRANCH  19  21
HETATM   21  C2  UNK     1      -2.302  -1.079   2.299  1.00  0.00    -0.036 A 
HETATM   22  C7  UNK     1      -2.417  -2.409   2.663  1.00  0.00     0.012 A 
HETATM   23  C11 UNK     1      -3.525  -3.138   2.232  1.00  0.00     0.037 A 
HETATM   24  C13 UNK     1      -4.500  -2.526   1.444  1.00  0.00     0.068 A 
HETATM   25  C12 UNK     1      -4.367  -1.184   1.087  1.00  0.00     0.037 A 
HETATM   26  C8  UNK     1      -3.259  -0.455   1.518  1.00  0.00     0.012 A 
BRANCH  24  27
HETATM   27  O3  UNK     1      -5.581  -3.238   1.024  1.00  0.00    -0.352 OA
BRANCH  27  28
HETATM   28  C20 UNK     1      -6.797  -2.518   0.826  1.00  0.00     0.171 C 
HETATM   29  C22 UNK     1      -7.966  -3.444   1.081  1.00  0.00     0.034 C 
ENDBRANCH  27  28
ENDBRANCH  24  27
ENDBRANCH  19  21
ENDBRANCH   2  19
TORSDOF 7
