REMARK  6 active torsions:
REMARK  status: ('A' for Active; 'I' for Inactive)
REMARK    1  A    between atoms: C17_23  and  O2_2 
REMARK    2  A    between atoms: C19_25  and  O2_2 
REMARK    3  A    between atoms: C16_22  and  O3_3 
REMARK    4  A    between atoms: C23_29  and  N1_6 
REMARK    5  A    between atoms: C7_13  and  C9_15 
REMARK    6  A    between atoms: C11_17  and  C17_23 
ROOT
HETATM    1  C9  UNK     1      -2.826  -1.155  -1.071  1.00  0.00    -0.035 A 
HETATM    2  C11 UNK     1      -0.813  -0.457  -2.211  1.00  0.00     0.000 A 
HETATM    3  C12 UNK     1      -1.923  -0.152  -1.423  1.00  0.00     0.023 A 
HETATM    4  C15 UNK     1      -2.618  -2.464  -1.507  1.00  0.00     0.014 A 
HETATM    5  C16 UNK     1      -0.606  -1.765  -2.647  1.00  0.00     0.076 A 
HETATM    6  C18 UNK     1      -1.508  -2.769  -2.295  1.00  0.00     0.038 A 
ENDROOT
BRANCH   1   7
HETATM    7  C7  UNK     1      -3.996  -0.834  -0.239  1.00  0.00     0.022 C 
HETATM    8  C4  UNK     1      -4.042  -0.889   1.099  1.00  0.00    -0.006 C 
HETATM    9  C2  UNK     1      -5.262  -0.549   1.900  1.00  0.00     0.047 C 
HETATM   10  C6  UNK     1      -2.817  -1.310   1.841  1.00  0.00     0.189 C 
HETATM   11  C1  UNK     1      -4.902   0.348   3.078  1.00  0.00     0.044 C 
HETATM   12  C3  UNK     1      -3.796  -0.258   3.900  1.00  0.00    -0.044 A 
HETATM   13  C5  UNK     1      -2.797  -1.044   3.303  1.00  0.00     0.021 A 
HETATM   14  C8  UNK     1      -3.725   0.006   5.275  1.00  0.00     0.008 A 
HETATM   15  C10 UNK     1      -1.757  -1.570   4.077  1.00  0.00     0.016 A 
HETATM   16  C14 UNK     1      -1.708  -1.311   5.447  1.00  0.00     0.001 A 
HETATM   17  C13 UNK     1      -2.689  -0.522   6.045  1.00  0.00     0.001 A 
HETATM   18  O1  UNK     1      -1.867  -1.853   1.291  1.00  0.00    -0.287 OA
ENDBRANCH   1   7
BRANCH   2  19
HETATM   19  C17 UNK     1       0.144   0.630  -2.577  1.00  0.00     0.217 C 
BRANCH  19  20
HETATM   20  O2  UNK     1       1.160   0.715  -1.586  1.00  0.00    -0.347 OA
BRANCH  20  21
HETATM   21  C19 UNK     1       2.105   1.693  -1.753  1.00  0.00     0.069 A 
HETATM   22  C21 UNK     1       3.132   1.837  -0.821  1.00  0.00     0.046 A 
HETATM   23  C20 UNK     1       4.094   2.832  -0.991  1.00  0.00    -0.026 A 
HETATM   24  C23 UNK     1       4.029   3.684  -2.094  1.00  0.00     0.108 A 
HETATM   25  C25 UNK     1       5.182   2.960   0.026  1.00  0.00     0.050 C 
HETATM   26  C24 UNK     1       3.001   3.540  -3.027  1.00  0.00     0.039 A 
HETATM   27  C22 UNK     1       2.039   2.545  -2.856  1.00  0.00     0.039 A 
BRANCH  24  28
HETATM   28  N1  UNK     1       4.999   4.706  -2.288  1.00  0.00    -0.115 N 
HETATM   29  O4  UNK     1       4.791   5.840  -1.795  1.00  0.00    -0.532 OA
HETATM   30  O5  UNK     1       6.032   4.443  -2.947  1.00  0.00    -0.532 OA
ENDBRANCH  24  28
ENDBRANCH  20  21
ENDBRANCH  19  20
ENDBRANCH   2  19
BRANCH   5  31
HETATM   31  O3  UNK     1       0.473  -2.081  -3.417  1.00  0.00    -0.355 OA
HETATM   32  C26 UNK     1       0.607  -3.443  -3.817  1.00  0.00     0.210 C 
ENDBRANCH   5  31
TORSDOF 6
