REMARK  7 active torsions:
REMARK  status: ('A' for Active; 'I' for Inactive)
REMARK    1  A    between atoms: C4_10  and  O1_2 
REMARK    2  A    between atoms: C20_26  and  O3_4 
REMARK    3  A    between atoms: C1_7  and  N1_5 
REMARK    4  A    between atoms: C1_7  and  C2_8 
REMARK    5  A    between atoms: C13_19  and  C8_14 
REMARK    6  A    between atoms: C14_20  and  C15_21 
REMARK    7  A    between atoms: C15_21  and  C17_23 
ROOT
HETATM    1  C2  UNK     1       1.435   2.035  -1.876  1.00  0.00    -0.004 A 
HETATM    2  C4  UNK     1       2.663   1.801  -2.493  1.00  0.00     0.076 A 
HETATM    3  C5  UNK     1       0.332   1.243  -2.194  1.00  0.00     0.023 A 
HETATM    4  C8  UNK     1       0.458   0.216  -3.130  1.00  0.00    -0.035 A 
HETATM    5  C10 UNK     1       2.789   0.774  -3.429  1.00  0.00     0.038 A 
HETATM    6  C11 UNK     1       1.686  -0.018  -3.748  1.00  0.00     0.014 A 
ENDROOT
BRANCH   4   7
HETATM    7  C13 UNK     1      -0.707  -0.621  -3.467  1.00  0.00     0.015 C 
HETATM    8  C14 UNK     1      -1.383  -1.374  -2.586  1.00  0.00     0.056 C 
BRANCH   8   9
HETATM    9  C15 UNK     1      -0.975  -1.411  -1.140  1.00  0.00     0.182 C 
HETATM   10  O2  UNK     1       0.211  -1.248  -0.816  1.00  0.00    -0.288 OA
BRANCH   9  11
HETATM   11  C17 UNK     1      -2.004  -1.611  -0.131  1.00  0.00     0.014 A 
HETATM   12  C19 UNK     1      -1.691  -2.255   1.066  1.00  0.00     0.018 A 
HETATM   13  C22 UNK     1      -2.677  -2.445   2.034  1.00  0.00     0.037 A 
HETATM   14  C20 UNK     1      -3.976  -1.992   1.805  1.00  0.00     0.068 A 
HETATM   15  C21 UNK     1      -4.289  -1.349   0.607  1.00  0.00     0.037 A 
HETATM   16  C18 UNK     1      -3.303  -1.158  -0.361  1.00  0.00     0.018 A 
BRANCH  14  17
HETATM   17  O3  UNK     1      -4.938  -2.178   2.749  1.00  0.00    -0.356 OA
HETATM   18  C23 UNK     1      -4.550  -2.843   3.950  1.00  0.00     0.210 C 
ENDBRANCH  14  17
ENDBRANCH   9  11
ENDBRANCH   8   9
ENDBRANCH   4   7
BRANCH   1  19
HETATM   19  C1  UNK     1       1.282   3.130  -0.872  1.00  0.00     0.192 C 
BRANCH  19  20
HETATM   20  N1  UNK     1       0.779   2.659   0.477  1.00  0.00    -0.268 N 
HETATM   21  C3  UNK     1       1.507   2.050   1.457  1.00  0.00     0.046 A 
HETATM   22  C6  UNK     1       0.628   1.813   2.485  1.00  0.00     0.060 A 
HETATM   23  C9  UNK     1       2.947   1.760   1.315  1.00  0.00     0.071 C 
HETATM   24 Br1  UNK     1       0.948   1.008   4.137  1.00  0.00    -0.047 Br
HETATM   25  C7  UNK     1      -0.601   2.317   2.021  1.00  0.00     0.070 A 
HETATM   26  C12 UNK     1      -1.902   2.330   2.714  1.00  0.00     0.074 C 
HETATM   27  N2  UNK     1      -0.515   2.836   0.793  1.00  0.00    -0.176 NA
ENDBRANCH  19  20
ENDBRANCH   1  19
BRANCH   2  28
HETATM   28  O1  UNK     1       3.750   2.566  -2.194  1.00  0.00    -0.355 OA
HETATM   29  C16 UNK     1       4.966   2.256  -2.873  1.00  0.00     0.210 C 
ENDBRANCH   2  28
TORSDOF 7
