REMARK  3 active torsions:
REMARK  status: ('A' for Active; 'I' for Inactive)
REMARK    1  A    between atoms: C2_7  and  N1_5 
REMARK       I    between atoms: C7_12  and  N1_5 
REMARK    2  A    between atoms: C2_7  and  C4_9 
REMARK    3  A    between atoms: C3_8  and  C7_12 
ROOT
HETATM    1  O2  UNK     1       0.759  -0.080   1.849  1.00  0.00    -0.267 OA
HETATM    2  N1  UNK     1      -1.103   0.968   0.918  1.00  0.00    -0.352 N 
HETATM    3  C7  UNK     1       0.210   0.534   0.937  1.00  0.00     0.258 C 
HETATM    4  H4  UNK     1      -1.461   1.483   0.120  1.00  0.00     0.163 HD
ENDROOT
BRANCH   3   5
HETATM    5  C3  UNK     1       0.942   0.879  -0.287  1.00  0.00     0.108 A 
HETATM    6  C6  UNK     1       2.258   1.081  -0.152  1.00  0.00     0.037 A 
HETATM    7  C1  UNK     1       3.070   1.427  -1.308  1.00  0.00    -0.001 A 
HETATM    8  C8  UNK     1       4.446   1.648  -1.213  1.00  0.00     0.014 A 
HETATM    9  C5  UNK     1       2.456   1.544  -2.551  1.00  0.00     0.089 A 
HETATM   10  C13 UNK     1       5.182   1.978  -2.355  1.00  0.00     0.001 A 
HETATM   11  C14 UNK     1       4.548   2.091  -3.594  1.00  0.00     0.003 A 
HETATM   12  C10 UNK     1       3.176   1.873  -3.697  1.00  0.00     0.038 A 
HETATM   13  O1  UNK     1       1.070   1.330  -2.687  1.00  0.00    -0.274 OA
HETATM   14  C9  UNK     1       0.268   0.998  -1.599  1.00  0.00     0.304 A 
HETATM   15  O3  UNK     1      -0.938   0.813  -1.728  1.00  0.00    -0.259 OA
ENDBRANCH   3   5
BRANCH   2  16
HETATM   16  C2  UNK     1      -2.023   0.744   2.010  1.00  0.00     0.161 C 
BRANCH  16  17
HETATM   17  C4  UNK     1      -2.771  -0.549   1.858  1.00  0.00    -0.040 A 
HETATM   18  C11 UNK     1      -3.982  -0.567   1.177  1.00  0.00     0.010 A 
HETATM   19  C15 UNK     1      -4.678  -1.768   1.036  1.00  0.00     0.024 A 
HETATM   20  C17 UNK     1      -4.157  -2.943   1.579  1.00  0.00     0.034 A 
HETATM   21  C16 UNK     1      -2.941  -2.917   2.261  1.00  0.00     0.024 A 
HETATM   22 Cl1  UNK     1      -5.016  -4.424   1.407  1.00  0.00    -0.084 Cl
HETATM   23  C12 UNK     1      -2.245  -1.716   2.401  1.00  0.00     0.010 A 
ENDBRANCH  16  17
ENDBRANCH   2  16
TORSDOF 3
