REMARK  5 active torsions:
REMARK  status: ('A' for Active; 'I' for Inactive)
REMARK    1  A    between atoms: C5_11  and  O2_2 
REMARK    2  A    between atoms: C7_13  and  O3_3 
REMARK    3  A    between atoms: C11_17  and  O4_4 
REMARK    4  A    between atoms: C12_18  and  O5_5 
REMARK    5  A    between atoms: C1_7  and  C3_9 
ROOT
HETATM    1  O1  UNK     1      -0.432   0.460  -1.237  1.00  0.00    -0.306 OA
HETATM    2  O6  UNK     1       1.956   2.600   1.277  1.00  0.00    -0.284 OA
HETATM    3  C1  UNK     1      -0.792   0.690   0.081  1.00  0.00     0.126 A 
HETATM    4  C2  UNK     1       1.610   1.724  -0.885  1.00  0.00     0.053 A 
HETATM    5  C4  UNK     1       0.751   0.982  -1.693  1.00  0.00     0.090 A 
HETATM    6  C5  UNK     1      -0.049   1.380   0.966  1.00  0.00     0.154 A 
HETATM    7  C6  UNK     1       1.240   1.960   0.518  1.00  0.00     0.221 A 
HETATM    8  C8  UNK     1       2.804   2.231  -1.404  1.00  0.00     0.055 A 
HETATM    9  C9  UNK     1       1.081   0.741  -3.027  1.00  0.00     0.041 A 
HETATM   10  C12 UNK     1       3.132   1.989  -2.739  1.00  0.00     0.069 A 
HETATM   11  C13 UNK     1       2.273   1.246  -3.549  1.00  0.00     0.039 A 
ENDROOT
BRANCH   3  12
HETATM   12  C3  UNK     1      -2.083   0.074   0.440  1.00  0.00     0.037 A 
HETATM   13  C10 UNK     1      -3.253   0.820   0.288  1.00  0.00     0.017 A 
HETATM   14  C14 UNK     1      -4.487   0.261   0.620  1.00  0.00     0.004 A 
HETATM   15  C15 UNK     1      -4.553  -1.045   1.106  1.00  0.00     0.040 A 
HETATM   16  C11 UNK     1      -3.385  -1.792   1.258  1.00  0.00     0.102 A 
HETATM   17  C7  UNK     1      -2.151  -1.233   0.926  1.00  0.00     0.114 A 
BRANCH  16  18
HETATM   18  O4  UNK     1      -3.464  -3.067   1.734  1.00  0.00    -0.353 OA
HETATM   19  C18 UNK     1      -3.379  -3.237   3.147  1.00  0.00     0.210 C 
ENDBRANCH  16  18
BRANCH  17  20
HETATM   20  O3  UNK     1      -1.016  -1.975   1.081  1.00  0.00    -0.352 OA
HETATM   21  C17 UNK     1      -0.933  -3.190   0.340  1.00  0.00     0.210 C 
ENDBRANCH  17  20
ENDBRANCH   3  12
BRANCH   6  22
HETATM   22  O2  UNK     1      -0.421   1.563   2.280  1.00  0.00    -0.350 OA
HETATM   23  C16 UNK     1       0.545   1.015   3.157  1.00  0.00     0.210 C 
ENDBRANCH   6  22
BRANCH  10  24
HETATM   24  O5  UNK     1       4.294   2.479  -3.252  1.00  0.00    -0.356 OA
HETATM   25  C19 UNK     1       4.568   2.195  -4.623  1.00  0.00     0.210 C 
ENDBRANCH  10  24
TORSDOF 5
