REMARK  3 active torsions:
REMARK  status: ('A' for Active; 'I' for Inactive)
REMARK    1  A    between atoms: C5_8  and  N1_2 
REMARK    2  A    between atoms: C12_15  and  C9_12 
REMARK    3  A    between atoms: C13_16  and  C14_17 
ROOT
HETATM    1  N2  UNK     1       2.496   2.240  -4.615  1.00  0.00    -0.191 NA
HETATM    2  C12 UNK     1       0.065   0.808  -2.610  1.00  0.00     0.035 C 
HETATM    3  C13 UNK     1       1.320   1.311  -2.502  1.00  0.00     0.055 C 
HETATM    4  C17 UNK     1       1.967   1.823  -3.669  1.00  0.00     0.100 C 
ENDROOT
BRANCH   3   5
HETATM    5  C14 UNK     1       2.051   1.360  -1.221  1.00  0.00    -0.015 A 
HETATM    6  C15 UNK     1       1.922   2.476  -0.412  1.00  0.00     0.016 A 
HETATM    7  C18 UNK     1       2.612   2.522   0.799  1.00  0.00     0.043 A 
HETATM    8  C20 UNK     1       3.421   1.453   1.183  1.00  0.00     0.116 A 
HETATM    9  C19 UNK     1       3.539   0.336   0.355  1.00  0.00     0.043 A 
HETATM   10  F1  UNK     1       4.084   1.497   2.346  1.00  0.00    -0.206 F 
HETATM   11  C16 UNK     1       2.849   0.290  -0.856  1.00  0.00     0.016 A 
ENDBRANCH   3   5
BRANCH   2  12
HETATM   12  C9  UNK     1      -0.737   0.227  -1.541  1.00  0.00    -0.029 A 
HETATM   13  C10 UNK     1      -1.562   1.065  -0.792  1.00  0.00     0.014 A 
HETATM   14  C7  UNK     1      -2.343   0.538   0.237  1.00  0.00     0.030 A 
HETATM   15  C5  UNK     1      -2.328  -0.849   0.558  1.00  0.00     0.030 A 
HETATM   16  C6  UNK     1      -1.472  -1.666  -0.232  1.00  0.00     0.037 A 
HETATM   17  C8  UNK     1      -0.692  -1.139  -1.261  1.00  0.00    -0.050 A 
HETATM   18  C11 UNK     1       0.181  -2.067  -2.043  1.00  0.00     0.049 C 
BRANCH  15  19
HETATM   19  N1  UNK     1      -3.099  -1.369   1.575  1.00  0.00    -0.381 N 
HETATM   20  C3  UNK     1      -3.994  -0.576   2.415  1.00  0.00     0.123 C 
HETATM   21  C1  UNK     1      -4.824  -1.623   3.154  1.00  0.00     0.021 C 
HETATM   22  C2  UNK     1      -3.867  -2.796   3.279  1.00  0.00     0.021 C 
HETATM   23  C4  UNK     1      -3.124  -2.782   1.946  1.00  0.00     0.123 C 
ENDBRANCH  15  19
ENDBRANCH   2  12
TORSDOF 3
