REMARK  7 active torsions:
REMARK  status: ('A' for Active; 'I' for Inactive)
REMARK    1  A    between atoms: C22_29  and  S1_1 
REMARK    2  A    between atoms: C5_12  and  N1_5 
REMARK    3  A    between atoms: C6_13  and  N2_6 
REMARK    4  A    between atoms: C18_25  and  N3_7 
REMARK       I    between atoms: C9_16  and  N3_7 
REMARK    5  A    between atoms: C5_12  and  C7_14 
REMARK    6  A    between atoms: C6_13  and  C9_16 
REMARK    7  A    between atoms: C13_20  and  C17_24 
ROOT
HETATM    1  N1  UNK     1       1.921  -0.164  -0.841  1.00  0.00     0.096 N 
HETATM    2  N2  UNK     1       0.032  -1.321   1.017  1.00  0.00     0.100 N 
HETATM    3  C1  UNK     1       2.369  -0.990   0.287  1.00  0.00     0.303 C 
HETATM    4  C2  UNK     1       0.578  -0.571  -1.273  1.00  0.00     0.303 C 
HETATM    5  C3  UNK     1       1.374  -0.912   1.450  1.00  0.00     0.303 C 
HETATM    6  C4  UNK     1      -0.416  -0.494  -0.110  1.00  0.00     0.303 C 
ENDROOT
BRANCH   1   7
HETATM    7  C5  UNK     1       2.869  -0.242  -1.950  1.00  0.00     0.312 C 
BRANCH   7   8
HETATM    8  C7  UNK     1       2.776   0.939  -2.854  1.00  0.00    -0.011 A 
HETATM    9  C10 UNK     1       1.946   0.941  -3.906  1.00  0.00     0.092 A 
HETATM   10  C14 UNK     1       1.819   2.084  -4.827  1.00  0.00     0.288 A 
HETATM   11  O1  UNK     1       2.609   3.190  -4.559  1.00  0.00    -0.275 OA
HETATM   12  O3  UNK     1       1.047   2.050  -5.779  1.00  0.00    -0.260 OA
HETATM   13  C11 UNK     1       3.491   3.217  -3.459  1.00  0.00     0.090 A 
HETATM   14  C8  UNK     1       3.601   2.126  -2.596  1.00  0.00     0.007 A 
HETATM   15  C15 UNK     1       4.238   4.384  -3.287  1.00  0.00     0.039 A 
HETATM   16  C12 UNK     1       4.501   2.232  -1.527  1.00  0.00     0.022 A 
HETATM   17  C13 UNK     1       5.257   3.395  -1.341  1.00  0.00    -0.058 A 
HETATM   18  C16 UNK     1       5.126   4.469  -2.219  1.00  0.00     0.010 A 
BRANCH  17  19
HETATM   19  C17 UNK     1       6.209   3.486  -0.195  1.00  0.00     0.034 C 
HETATM   20  C19 UNK     1       5.555   4.057   1.059  1.00  0.00     0.010 C 
ENDBRANCH  17  19
ENDBRANCH   7   8
ENDBRANCH   1   7
BRANCH   2  21
HETATM   21  C6  UNK     1      -0.916  -1.245   2.127  1.00  0.00     0.375 C 
BRANCH  21  22
HETATM   22  C9  UNK     1      -2.092  -2.166   1.850  1.00  0.00     0.250 C 
HETATM   23  O2  UNK     1      -1.984  -3.197   1.194  1.00  0.00    -0.271 OA
HETATM   24  N3  UNK     1      -3.247  -1.665   2.446  1.00  0.00    -0.326 N 
HETATM   25  H15 UNK     1      -3.171  -0.796   2.969  1.00  0.00     0.169 HD
BRANCH  24  26
HETATM   26  C18 UNK     1      -4.546  -2.227   2.420  1.00  0.00     0.036 A 
HETATM   27  C20 UNK     1      -5.597  -1.587   3.076  1.00  0.00     0.048 A 
HETATM   28  C22 UNK     1      -6.877  -2.142   3.050  1.00  0.00     0.002 A 
HETATM   29  C24 UNK     1      -7.104  -3.338   2.370  1.00  0.00     0.018 A 
HETATM   30  C23 UNK     1      -6.053  -3.978   1.714  1.00  0.00     0.004 A 
HETATM   31  C21 UNK     1      -4.774  -3.423   1.740  1.00  0.00     0.029 A 
BRANCH  28  32
HETATM   32  S1  UNK     1      -8.221  -1.323   3.886  1.00  0.00    -0.134 SA
HETATM   33  C25 UNK     1      -7.630  -1.300   5.602  1.00  0.00     0.095 C 
ENDBRANCH  28  32
ENDBRANCH  24  26
ENDBRANCH  21  22
ENDBRANCH   2  21
TORSDOF 7
