REMARK  3 active torsions:
REMARK  status: ('A' for Active; 'I' for Inactive)
REMARK    1  A    between atoms: C4_9  and  N1_4 
REMARK       I    between atoms: C6_11  and  N1_4 
REMARK    2  A    between atoms: C2_7  and  C6_11 
REMARK    3  A    between atoms: C4_9  and  C7_12 
ROOT
HETATM    1  O1  UNK     1       0.965   0.950  -2.615  1.00  0.00    -0.274 OA
HETATM    2  O3  UNK     1      -1.054   0.276  -1.787  1.00  0.00    -0.259 OA
HETATM    3  C1  UNK     1       2.781   1.464  -1.082  1.00  0.00    -0.001 A 
HETATM    4  C2  UNK     1       0.641   0.748  -0.200  1.00  0.00     0.108 A 
HETATM    5  C3  UNK     1       2.292   1.362  -2.380  1.00  0.00     0.089 A 
HETATM    6  C5  UNK     1       1.900   1.139   0.029  1.00  0.00     0.037 A 
HETATM    7  C8  UNK     1       4.102   1.876  -0.890  1.00  0.00     0.014 A 
HETATM    8  C9  UNK     1       0.099   0.633  -1.573  1.00  0.00     0.304 A 
HETATM    9  C10 UNK     1       3.083   1.660  -3.488  1.00  0.00     0.038 A 
HETATM   10  C11 UNK     1       4.908   2.177  -1.991  1.00  0.00     0.001 A 
HETATM   11  C12 UNK     1       4.399   2.070  -3.288  1.00  0.00     0.003 A 
ENDROOT
BRANCH   4  12
HETATM   12  C6  UNK     1      -0.169   0.442   0.985  1.00  0.00     0.258 C 
HETATM   13  O2  UNK     1       0.352   0.009   2.011  1.00  0.00    -0.267 OA
HETATM   14  N1  UNK     1      -1.516   0.692   0.795  1.00  0.00    -0.352 N 
HETATM   15  H4  UNK     1      -1.848   1.065  -0.089  1.00  0.00     0.163 HD
BRANCH  14  16
HETATM   16  C4  UNK     1      -2.512   0.465   1.818  1.00  0.00     0.162 C 
BRANCH  16  17
HETATM   17  C7  UNK     1      -3.075  -0.926   1.756  1.00  0.00    -0.023 A 
HETATM   18  C13 UNK     1      -2.488  -1.954   2.470  1.00  0.00     0.012 A 
HETATM   19  C15 UNK     1      -3.032  -3.232   2.393  1.00  0.00     0.020 A 
HETATM   20  C16 UNK     1      -4.150  -3.413   1.595  1.00  0.00     0.116 A 
HETATM   21  N2  UNK     1      -4.743  -2.426   0.887  1.00  0.00    -0.273 NA
HETATM   22  C14 UNK     1      -4.186  -1.198   0.986  1.00  0.00     0.124 A 
ENDBRANCH  16  17
ENDBRANCH  14  16
ENDBRANCH   4  12
TORSDOF 3
