REMARK  4 active torsions:
REMARK  status: ('A' for Active; 'I' for Inactive)
REMARK    1  A    between atoms: C13_19  and  O2_3 
REMARK    2  A    between atoms: C6_12  and  O2_3 
REMARK    3  A    between atoms: C10_16  and  C3_9 
REMARK    4  A    between atoms: C13_19  and  C15_21 
ROOT
HETATM    1  O1  UNK     1       2.312   1.448  -0.513  1.00  0.00    -0.307 OA
HETATM    2  O4  UNK     1      -0.544   0.442  -3.238  1.00  0.00    -0.287 OA
HETATM    3  C1  UNK     1       0.071   0.627  -0.964  1.00  0.00     0.051 A 
HETATM    4  C2  UNK     1       1.092   0.989  -0.086  1.00  0.00     0.090 A 
HETATM    5  C3  UNK     1       2.541   1.549  -1.876  1.00  0.00     0.113 A 
HETATM    6  C4  UNK     1      -1.152   0.166  -0.473  1.00  0.00     0.055 A 
HETATM    7  C5  UNK     1       0.307   0.740  -2.412  1.00  0.00     0.187 A 
HETATM    8  C6  UNK     1      -1.348   0.070   0.905  1.00  0.00     0.080 A 
HETATM    9  C7  UNK     1       0.893   0.893   1.291  1.00  0.00     0.041 A 
HETATM   10  C8  UNK     1       1.637   1.237  -2.819  1.00  0.00     0.095 A 
HETATM   11  C9  UNK     1      -0.328   0.433   1.785  1.00  0.00     0.040 A 
ENDROOT
BRANCH   8  12
HETATM   12  O2  UNK     1      -2.538  -0.377   1.393  1.00  0.00    -0.275 OA
BRANCH  12  13
HETATM   13  C13 UNK     1      -2.599  -1.760   1.579  1.00  0.00     0.305 C 
HETATM   14  O5  UNK     1      -1.695  -2.550   1.351  1.00  0.00    -0.258 OA
BRANCH  13  15
HETATM   15  C15 UNK     1      -3.923  -2.172   2.112  1.00  0.00     0.080 A 
HETATM   16  S1  UNK     1      -4.163  -3.814   2.407  1.00  0.00    -0.096 SA
HETATM   17  C18 UNK     1      -5.755  -3.487   2.944  1.00  0.00     0.050 A 
HETATM   18  C17 UNK     1      -6.056  -2.144   2.883  1.00  0.00     0.009 A 
HETATM   19  C16 UNK     1      -4.964  -1.373   2.389  1.00  0.00     0.025 A 
ENDBRANCH  13  15
ENDBRANCH  12  13
ENDBRANCH   8  12
BRANCH   5  20
HETATM   20  C10 UNK     1       3.882   2.060  -2.224  1.00  0.00     0.108 A 
HETATM   21  O3  UNK     1       4.286   2.249  -3.515  1.00  0.00    -0.320 OA
HETATM   22  C14 UNK     1       5.558   2.725  -3.470  1.00  0.00     0.142 A 
HETATM   23  C12 UNK     1       5.982   2.846  -2.167  1.00  0.00     0.027 A 
HETATM   24  C11 UNK     1       4.902   2.417  -1.360  1.00  0.00     0.042 A 
ENDBRANCH   5  20
TORSDOF 4
