REMARK  3 active torsions:
REMARK  status: ('A' for Active; 'I' for Inactive)
REMARK    1  A    between atoms: C14_18  and  O2_2 
REMARK    2  A    between atoms: C15_19  and  O2_2 
REMARK    3  A    between atoms: C14_18  and  C9_13 
ROOT
HETATM    1  O1  UNK     1      -0.619   0.265  -2.295  1.00  0.00    -0.274 OA
HETATM    2  O3  UNK     1       1.196   1.382  -3.113  1.00  0.00    -0.259 OA
HETATM    3  C1  UNK     1      -0.821  -0.187   0.103  1.00  0.00     0.010 A 
HETATM    4  C2  UNK     1      -1.572  -0.753   1.174  1.00  0.00    -0.013 A 
HETATM    5  C3  UNK     1      -2.807  -1.393   0.874  1.00  0.00    -0.025 A 
HETATM    6  C4  UNK     1      -1.320  -0.279  -1.198  1.00  0.00     0.090 A 
HETATM    7  C5  UNK     1       0.465   0.498   0.269  1.00  0.00     0.039 A 
HETATM    8  C6  UNK     1      -3.265  -1.458  -0.451  1.00  0.00     0.015 A 
HETATM    9  C7  UNK     1      -2.527  -0.904  -1.488  1.00  0.00     0.039 A 
HETATM   10  C8  UNK     1      -1.175  -0.726   2.534  1.00  0.00     0.013 A 
HETATM   11  C9  UNK     1       1.126   1.011  -0.775  1.00  0.00     0.115 A 
HETATM   12  C10 UNK     1      -3.578  -1.963   1.901  1.00  0.00     0.012 A 
HETATM   13  C11 UNK     1       0.598   0.916  -2.150  1.00  0.00     0.304 A 
HETATM   14  C12 UNK     1      -1.955  -1.298   3.543  1.00  0.00     0.001 A 
HETATM   15  C13 UNK     1      -3.155  -1.916   3.226  1.00  0.00     0.001 A 
ENDROOT
BRANCH  11  16
HETATM   16  C14 UNK     1       2.402   1.674  -0.478  1.00  0.00     0.299 C 
HETATM   17  O4  UNK     1       2.636   2.239   0.576  1.00  0.00    -0.259 OA
BRANCH  16  18
HETATM   18  O2  UNK     1       3.220   1.537  -1.551  1.00  0.00    -0.318 OA
BRANCH  18  19
HETATM   19  C15 UNK     1       4.513   2.135  -1.413  1.00  0.00     0.174 C 
HETATM   20  C16 UNK     1       5.303   1.900  -2.683  1.00  0.00     0.034 C 
ENDBRANCH  18  19
ENDBRANCH  16  18
ENDBRANCH  11  16
TORSDOF 3
