REMARK  7 active torsions:
REMARK  status: ('A' for Active; 'I' for Inactive)
REMARK    1  A    between atoms: C3_8  and  O1_1 
REMARK    2  A    between atoms: C5_10  and  O2_2 
REMARK    3  A    between atoms: C9_14  and  O3_3 
REMARK    4  A    between atoms: C11_16  and  O4_4 
REMARK    5  A    between atoms: C1_6  and  C7_12 
REMARK    6  A    between atoms: C2_7  and  C8_13 
REMARK    7  A    between atoms: C12_17  and  C8_13 
ROOT
HETATM    1  O5  UNK     1      -0.084   1.053   2.267  1.00  0.00    -0.288 OA
HETATM    2  C8  UNK     1      -0.376   0.452   1.221  1.00  0.00     0.182 C 
ENDROOT
BRANCH   2   3
HETATM    3  C12 UNK     1       0.465   0.618  -0.013  1.00  0.00     0.056 C 
HETATM    4  C7  UNK     1       1.543   1.416  -0.004  1.00  0.00     0.018 C 
BRANCH   4   5
HETATM    5  C1  UNK     1       2.418   1.651  -1.166  1.00  0.00    -0.000 A 
HETATM    6  C3  UNK     1       3.759   1.954  -0.986  1.00  0.00     0.078 A 
HETATM    7  C14 UNK     1       4.567   2.172  -2.102  1.00  0.00     0.040 A 
HETATM    8  C15 UNK     1       4.025   2.085  -3.384  1.00  0.00     0.039 A 
HETATM    9  C11 UNK     1       2.674   1.780  -3.551  1.00  0.00     0.069 A 
HETATM   10  C6  UNK     1       1.866   1.562  -2.435  1.00  0.00     0.051 A 
BRANCH   6  11
HETATM   11  O1  UNK     1       4.314   2.044   0.256  1.00  0.00    -0.355 OA
HETATM   12  C16 UNK     1       4.862   0.849   0.808  1.00  0.00     0.210 C 
ENDBRANCH   6  11
BRANCH   9  13
HETATM   13  O4  UNK     1       2.146   1.696  -4.802  1.00  0.00    -0.356 OA
HETATM   14  C19 UNK     1       0.758   1.380  -4.901  1.00  0.00     0.210 C 
ENDBRANCH   9  13
ENDBRANCH   4   5
ENDBRANCH   2   3
BRANCH   2  15
HETATM   15  C2  UNK     1      -1.552  -0.400   1.154  1.00  0.00     0.017 A 
HETATM   16  C10 UNK     1      -2.246  -0.538  -0.048  1.00  0.00     0.018 A 
HETATM   17  C13 UNK     1      -3.374  -1.356  -0.112  1.00  0.00     0.040 A 
HETATM   18  C9  UNK     1      -3.808  -2.036   1.026  1.00  0.00     0.101 A 
HETATM   19  C5  UNK     1      -3.114  -1.898   2.228  1.00  0.00     0.102 A 
HETATM   20  C4  UNK     1      -1.986  -1.080   2.292  1.00  0.00     0.055 A 
BRANCH  18  21
HETATM   21  O3  UNK     1      -4.911  -2.831   0.952  1.00  0.00    -0.353 OA
HETATM   22  C18 UNK     1      -5.564  -2.918  -0.313  1.00  0.00     0.210 C 
ENDBRANCH  18  21
BRANCH  19  23
HETATM   23  O2  UNK     1      -3.527  -2.558   3.346  1.00  0.00    -0.353 OA
HETATM   24  C17 UNK     1      -4.459  -1.883   4.189  1.00  0.00     0.210 C 
ENDBRANCH  19  23
ENDBRANCH   2  15
TORSDOF 7
