REMARK  6 active torsions:
REMARK  status: ('A' for Active; 'I' for Inactive)
REMARK    1  A    between atoms: C17_23  and  O2_3 
REMARK    2  A    between atoms: C22_28  and  O2_3 
REMARK    3  A    between atoms: C5_11  and  N1_5 
REMARK    4  A    between atoms: C6_12  and  N2_6 
REMARK    5  A    between atoms: C5_11  and  C7_13 
REMARK    6  A    between atoms: C6_12  and  C8_14 
ROOT
HETATM    1  C5  UNK     1      -0.031  -1.489   0.974  1.00  0.00     0.312 C 
ENDROOT
BRANCH   1   2
HETATM    2  N1  UNK     1       0.283  -0.188   0.386  1.00  0.00     0.096 N 
HETATM    3  C1  UNK     1       1.124   0.604   1.292  1.00  0.00     0.303 C 
HETATM    4  C3  UNK     1       1.456   1.967   0.676  1.00  0.00     0.303 C 
HETATM    5  N2  UNK     1       2.115   1.807  -0.626  1.00  0.00     0.096 N 
HETATM    6  C4  UNK     1       1.274   1.014  -1.531  1.00  0.00     0.303 C 
HETATM    7  C2  UNK     1       0.943  -0.350  -0.915  1.00  0.00     0.303 C 
BRANCH   5   8
HETATM    8  C6  UNK     1       2.427   3.108  -1.214  1.00  0.00     0.311 C 
BRANCH   8   9
HETATM    9  C8  UNK     1       3.497   3.005  -2.268  1.00  0.00    -0.027 A 
HETATM   10  C12 UNK     1       4.639   2.240  -2.031  1.00  0.00     0.051 A 
HETATM   11  C18 UNK     1       5.630   2.145  -3.008  1.00  0.00     0.117 A 
HETATM   12  F1  UNK     1       6.726   1.410  -2.780  1.00  0.00    -0.206 F 
HETATM   13  C21 UNK     1       5.479   2.815  -4.222  1.00  0.00     0.042 A 
HETATM   14  C19 UNK     1       4.337   3.580  -4.459  1.00  0.00     0.004 A 
HETATM   15  C13 UNK     1       3.346   3.675  -3.482  1.00  0.00     0.009 A 
ENDBRANCH   8   9
ENDBRANCH   5   8
ENDBRANCH   1   2
BRANCH   1  16
HETATM   16  C7  UNK     1      -1.138  -1.404   1.967  1.00  0.00    -0.011 A 
HETATM   17  C10 UNK     1      -0.890  -1.173   3.264  1.00  0.00     0.092 A 
HETATM   18  C15 UNK     1      -1.950  -1.082   4.281  1.00  0.00     0.288 A 
HETATM   19  O1  UNK     1      -3.253  -1.247   3.839  1.00  0.00    -0.275 OA
HETATM   20  O3  UNK     1      -1.685  -0.870   5.459  1.00  0.00    -0.260 OA
HETATM   21  C11 UNK     1      -3.546  -1.492   2.483  1.00  0.00     0.090 A 
HETATM   22  C9  UNK     1      -2.530  -1.576   1.529  1.00  0.00     0.009 A 
HETATM   23  C16 UNK     1      -4.894  -1.643   2.152  1.00  0.00     0.041 A 
HETATM   24  C14 UNK     1      -2.904  -1.823   0.202  1.00  0.00     0.051 A 
HETATM   25  C17 UNK     1      -4.251  -1.977  -0.146  1.00  0.00     0.069 A 
HETATM   26  C20 UNK     1      -5.245  -1.887   0.828  1.00  0.00     0.039 A 
BRANCH  25  27
HETATM   27  O2  UNK     1      -4.593  -2.217  -1.442  1.00  0.00    -0.351 OA
BRANCH  27  28
HETATM   28  C22 UNK     1      -3.739  -1.677  -2.448  1.00  0.00     0.171 C 
HETATM   29  C23 UNK     1      -4.559  -1.388  -3.688  1.00  0.00     0.034 C 
ENDBRANCH  27  28
ENDBRANCH  25  27
ENDBRANCH   1  16
TORSDOF 6
