REMARK  3 active torsions:
REMARK  status: ('A' for Active; 'I' for Inactive)
REMARK    1  A    between atoms: C6_14  and  S1_1 
REMARK    2  A    between atoms: N1_7  and  S1_1 
REMARK    3  A    between atoms: C5_13  and  N2_8 
ROOT
HETATM    1  S1  UNK     1       0.396  -0.340   2.918  1.00  0.00     0.243 S 
HETATM    2  O1  UNK     1       0.288   0.704   3.914  1.00  0.00    -0.206 OA
HETATM    3  O2  UNK     1       0.879  -1.658   3.267  1.00  0.00    -0.206 OA
ENDROOT
BRANCH   1   4
HETATM    4  C6  UNK     1      -1.186  -0.525   2.156  1.00  0.00     0.075 A 
HETATM    5  C7  UNK     1      -1.510  -1.733   1.553  1.00  0.00     0.039 A 
HETATM    6  C11 UNK     1      -2.761  -1.883   0.950  1.00  0.00    -0.001 A 
HETATM    7  C13 UNK     1      -3.650  -0.812   0.970  1.00  0.00     0.089 A 
HETATM    8  C17 UNK     1      -3.166  -3.118   0.301  1.00  0.00     0.020 A 
HETATM    9  C12 UNK     1      -3.324   0.400   1.575  1.00  0.00     0.040 A 
HETATM   10  O3  UNK     1      -4.921  -0.924   0.371  1.00  0.00    -0.275 OA
HETATM   11  C8  UNK     1      -2.075   0.541   2.175  1.00  0.00     0.027 A 
HETATM   12  C19 UNK     1      -5.331  -2.096  -0.255  1.00  0.00     0.288 A 
HETATM   13  C18 UNK     1      -4.372  -3.216  -0.263  1.00  0.00     0.083 A 
HETATM   14  O4  UNK     1      -6.436  -2.202  -0.777  1.00  0.00    -0.260 OA
ENDBRANCH   1   4
BRANCH   1  15
HETATM   15  N1  UNK     1       1.300   0.249   1.587  1.00  0.00    -0.203 NA
HETATM   16  C1  UNK     1       1.360  -0.656   0.404  1.00  0.00     0.127 C 
HETATM   17  C3  UNK     1       2.457  -0.181  -0.544  1.00  0.00     0.138 C 
HETATM   18  N2  UNK     1       2.253   1.232  -0.896  1.00  0.00    -0.379 N 
HETATM   19  C4  UNK     1       2.084   2.153   0.233  1.00  0.00     0.138 C 
HETATM   20  C2  UNK     1       0.994   1.647   1.175  1.00  0.00     0.127 C 
BRANCH  18  21
HETATM   21  C5  UNK     1       2.823   1.694  -2.088  1.00  0.00     0.030 A 
HETATM   22  C10 UNK     1       3.768   2.738  -2.083  1.00  0.00     0.032 A 
HETATM   23  C15 UNK     1       4.336   3.198  -3.270  1.00  0.00     0.044 A 
HETATM   24  C16 UNK     1       3.970   2.623  -4.487  1.00  0.00     0.116 A 
HETATM   25  C14 UNK     1       3.036   1.587  -4.516  1.00  0.00     0.044 A 
HETATM   26  F1  UNK     1       4.516   3.065  -5.628  1.00  0.00    -0.206 F 
HETATM   27  C9  UNK     1       2.468   1.127  -3.328  1.00  0.00     0.032 A 
ENDBRANCH  18  21
ENDBRANCH   1  15
TORSDOF 3
