REMARK  5 active torsions:
REMARK  status: ('A' for Active; 'I' for Inactive)
REMARK       I    between atoms: C12_21  and  N2_8 
REMARK    1  A    between atoms: C6_15  and  N2_8 
REMARK    2  A    between atoms: C20_29  and  N3_9 
REMARK    3  A    between atoms: C1_10  and  C2_11 
REMARK    4  A    between atoms: C2_11  and  C6_15 
REMARK    5  A    between atoms: C12_21  and  C13_22 
ROOT
HETATM    1  O2  UNK     1      -0.870  -1.641  -2.934  1.00  0.00    -0.267 OA
HETATM    2  N2  UNK     1      -2.327  -0.644  -1.411  1.00  0.00    -0.356 N 
HETATM    3  C12 UNK     1      -1.170  -0.729  -2.166  1.00  0.00     0.257 C 
HETATM    4  H10 UNK     1      -2.470   0.140  -0.783  1.00  0.00     0.162 HD
ENDROOT
BRANCH   2   5
HETATM    5  C6  UNK     1      -3.360  -1.654  -1.436  1.00  0.00     0.127 C 
BRANCH   5   6
HETATM    6  C2  UNK     1      -3.091  -2.717  -0.373  1.00  0.00     0.061 C 
BRANCH   6   7
HETATM    7  C1  UNK     1      -3.073  -2.170   1.025  1.00  0.00    -0.022 A 
HETATM    8  C3  UNK     1      -1.935  -1.678   1.696  1.00  0.00     0.001 A 
HETATM    9  C5  UNK     1      -2.370  -1.274   2.960  1.00  0.00     0.065 A 
HETATM   10  C7  UNK     1      -0.573  -1.529   1.367  1.00  0.00     0.014 A 
HETATM   11  C9  UNK     1      -1.507  -0.727   3.916  1.00  0.00     0.061 A 
HETATM   12  N1  UNK     1      -3.722  -1.525   3.023  1.00  0.00    -0.357 N 
HETATM   13  C11 UNK     1      -0.160  -0.589   3.568  1.00  0.00     0.026 A 
HETATM   14 Cl1  UNK     1      -2.063  -0.238   5.465  1.00  0.00    -0.082 Cl
HETATM   15  C10 UNK     1       0.302  -0.984   2.313  1.00  0.00     0.003 A 
HETATM   16  C4  UNK     1      -4.156  -2.071   1.845  1.00  0.00     0.013 A 
HETATM   17  H5  UNK     1      -4.305  -1.332   3.826  1.00  0.00     0.166 HD
HETATM   18  C8  UNK     1      -5.574  -2.434   1.652  1.00  0.00     0.068 C 
ENDBRANCH   6   7
ENDBRANCH   5   6
ENDBRANCH   2   5
BRANCH   3  19
HETATM   19  C13 UNK     1      -0.276   0.419  -1.972  1.00  0.00     0.108 A 
HETATM   20  C15 UNK     1       1.032   0.180  -2.116  1.00  0.00     0.037 A 
HETATM   21  C14 UNK     1       1.997   1.256  -1.945  1.00  0.00     0.001 A 
HETATM   22  C16 UNK     1       1.536   2.529  -1.628  1.00  0.00     0.089 A 
HETATM   23  C18 UNK     1       3.372   1.052  -2.086  1.00  0.00     0.050 A 
HETATM   24  O1  UNK     1       0.157   2.774  -1.477  1.00  0.00    -0.274 OA
HETATM   25  C19 UNK     1       2.407   3.602  -1.450  1.00  0.00     0.041 A 
HETATM   26  C17 UNK     1      -0.790   1.766  -1.635  1.00  0.00     0.304 A 
HETATM   27  O3  UNK     1      -1.988   1.989  -1.503  1.00  0.00    -0.259 OA
HETATM   28  C21 UNK     1       3.777   3.391  -1.593  1.00  0.00     0.039 A 
HETATM   29  C20 UNK     1       4.259   2.119  -1.911  1.00  0.00     0.103 A 
BRANCH  29  30
HETATM   30  N3  UNK     1       5.655   1.909  -2.056  1.00  0.00    -0.116 N 
HETATM   31  O4  UNK     1       6.436   2.878  -1.895  1.00  0.00    -0.532 OA
HETATM   32  O5  UNK     1       6.071   0.759  -2.341  1.00  0.00    -0.532 OA
ENDBRANCH  29  30
ENDBRANCH   3  19
TORSDOF 5
