REMARK  3 active torsions:
REMARK  status: ('A' for Active; 'I' for Inactive)
REMARK    1  A    between atoms: C2_6  and  N1_4 
REMARK       I    between atoms: C8_12  and  N1_4 
REMARK    2  A    between atoms: C2_6  and  C5_9 
REMARK    3  A    between atoms: C4_8  and  C8_12 
ROOT
HETATM    1  O1  UNK     1       1.316   0.188  -0.336  1.00  0.00    -0.304 OA
HETATM    2  O2  UNK     1       1.329   2.244  -3.858  1.00  0.00    -0.287 OA
HETATM    3  C1  UNK     1       2.392   1.812  -1.789  1.00  0.00     0.048 A 
HETATM    4  C3  UNK     1       2.327   1.077  -0.605  1.00  0.00     0.090 A 
HETATM    5  C4  UNK     1       0.332   0.026  -1.288  1.00  0.00     0.147 A 
HETATM    6  C6  UNK     1       1.334   1.632  -2.799  1.00  0.00     0.187 A 
HETATM    7  C7  UNK     1       0.270   0.664  -2.463  1.00  0.00     0.098 A 
HETATM    8  C9  UNK     1       3.443   2.705  -2.010  1.00  0.00     0.018 A 
HETATM    9  C10 UNK     1       3.316   1.232   0.366  1.00  0.00     0.038 A 
HETATM   10  C13 UNK     1       4.431   2.857  -1.036  1.00  0.00     0.001 A 
HETATM   11  C14 UNK     1       4.368   2.122   0.149  1.00  0.00     0.003 A 
ENDROOT
BRANCH   5  12
HETATM   12  C8  UNK     1      -0.736  -0.927  -0.983  1.00  0.00     0.275 C 
HETATM   13  O3  UNK     1      -1.655  -1.129  -1.778  1.00  0.00    -0.265 OA
HETATM   14  N1  UNK     1      -0.584  -1.534   0.253  1.00  0.00    -0.351 N 
HETATM   15  H3  UNK     1       0.208  -1.281   0.838  1.00  0.00     0.163 HD
BRANCH  14  16
HETATM   16  C2  UNK     1      -1.514  -2.509   0.775  1.00  0.00     0.161 C 
BRANCH  16  17
HETATM   17  C5  UNK     1      -2.613  -1.867   1.571  1.00  0.00    -0.041 A 
HETATM   18  C11 UNK     1      -2.450  -1.673   2.937  1.00  0.00     0.009 A 
HETATM   19  C15 UNK     1      -3.471  -1.077   3.677  1.00  0.00     0.001 A 
HETATM   20  C17 UNK     1      -4.649  -0.679   3.045  1.00  0.00     0.000 A 
HETATM   21  C16 UNK     1      -4.805  -0.877   1.673  1.00  0.00     0.001 A 
HETATM   22  C12 UNK     1      -3.784  -1.474   0.933  1.00  0.00     0.009 A 
ENDBRANCH  16  17
ENDBRANCH  14  16
ENDBRANCH   5  12
TORSDOF 3
