REMARK  7 active torsions:
REMARK  status: ('A' for Active; 'I' for Inactive)
REMARK    1  A    between atoms: C12_20  and  O2_2 
REMARK    2  A    between atoms: C14_22  and  O5_5 
REMARK    3  A    between atoms: C22_30  and  O5_5 
REMARK    4  A    between atoms: C12_20  and  C2_10 
REMARK    5  A    between atoms: C11_19  and  C6_14 
REMARK    6  A    between atoms: C14_22  and  C8_16 
REMARK    7  A    between atoms: C22_30  and  C25_33 
ROOT
HETATM    1  O1  UNK     1       2.566  -0.257  -0.245  1.00  0.00    -0.292 OA
HETATM    2  N1  UNK     1      -0.473   1.277  -3.537  1.00  0.00    -0.362 N 
HETATM    3  C1  UNK     1       2.751   2.764  -2.242  1.00  0.00     0.008 C 
HETATM    4  C2  UNK     1       3.373   1.462  -1.718  1.00  0.00     0.164 C 
HETATM    5  C3  UNK     1       1.687   2.419  -3.296  1.00  0.00     0.063 C 
HETATM    6  C4  UNK     1       0.969   0.507  -1.823  1.00  0.00     0.025 C 
HETATM    7  C5  UNK     1       0.718   1.357  -2.842  1.00  0.00     0.020 C 
HETATM    8  C6  UNK     1      -0.077  -0.506  -1.363  1.00  0.00     0.104 C 
HETATM    9  C7  UNK     1       2.315   0.522  -1.164  1.00  0.00     0.172 C 
HETATM   10  C8  UNK     1      -1.253  -0.610  -2.339  1.00  0.00     0.052 C 
HETATM   11  C9  UNK     1       2.162   3.649  -1.132  1.00  0.00     0.011 C 
HETATM   12  C10 UNK     1      -1.419   0.283  -3.343  1.00  0.00     0.018 C 
HETATM   13  C13 UNK     1      -2.569   0.300  -4.314  1.00  0.00     0.069 C 
HETATM   14  H9  UNK     1      -0.622   1.928  -4.300  1.00  0.00     0.165 HD
ENDROOT
BRANCH   8  15
HETATM   15  C11 UNK     1      -0.577  -0.160   0.018  1.00  0.00     0.029 A 
HETATM   16  C15 UNK     1      -0.354  -1.133   1.117  1.00  0.00     0.194 A 
HETATM   17  C17 UNK     1      -0.864  -0.746   2.446  1.00  0.00     0.049 A 
HETATM   18  O7  UNK     1       0.220  -2.199   0.936  1.00  0.00    -0.287 OA
HETATM   19  C18 UNK     1      -1.511   0.482   2.593  1.00  0.00     0.089 A 
HETATM   20  C19 UNK     1      -0.703  -1.593   3.545  1.00  0.00     0.025 A 
HETATM   21  C21 UNK     1      -2.001   0.868   3.841  1.00  0.00     0.039 A 
HETATM   22  O3  UNK     1      -1.696   1.352   1.548  1.00  0.00    -0.321 OA
HETATM   23  C24 UNK     1      -1.841   0.024   4.940  1.00  0.00     0.009 A 
HETATM   24  C23 UNK     1      -1.194  -1.203   4.792  1.00  0.00    -0.061 A 
HETATM   25  C26 UNK     1      -1.026  -2.101   5.972  1.00  0.00     0.048 C 
HETATM   26  C16 UNK     1      -1.216   0.978   0.317  1.00  0.00     0.154 A 
ENDBRANCH   8  15
BRANCH  10  27
HETATM   27  C14 UNK     1      -2.156  -1.760  -2.167  1.00  0.00     0.292 C 
HETATM   28  O6  UNK     1      -1.966  -2.843  -2.688  1.00  0.00    -0.259 OA
BRANCH  27  29
HETATM   29  O5  UNK     1      -3.176  -1.383  -1.359  1.00  0.00    -0.318 OA
BRANCH  29  30
HETATM   30  C22 UNK     1      -4.147  -2.402  -1.094  1.00  0.00     0.178 C 
BRANCH  30  31
HETATM   31  C25 UNK     1      -5.221  -1.831  -0.181  1.00  0.00     0.022 C 
HETATM   32  C27 UNK     1      -4.642  -1.343   1.135  1.00  0.00     0.007 C 
ENDBRANCH  30  31
ENDBRANCH  29  30
ENDBRANCH  27  29
ENDBRANCH  10  27
BRANCH   4  33
HETATM   33  C12 UNK     1       4.485   1.754  -0.758  1.00  0.00     0.270 C 
HETATM   34  O4  UNK     1       4.517   1.350   0.397  1.00  0.00    -0.264 OA
BRANCH  33  35
HETATM   35  O2  UNK     1       5.427   2.525  -1.372  1.00  0.00    -0.326 OA
HETATM   36  C20 UNK     1       6.553   2.881  -0.563  1.00  0.00     0.213 C 
ENDBRANCH  33  35
ENDBRANCH   4  33
TORSDOF 7
