REMARK  9 active torsions:
REMARK  status: ('A' for Active; 'I' for Inactive)
REMARK    1  A    between atoms: C2_11  and  O1_1 
REMARK    2  A    between atoms: C3_12  and  O1_1 
REMARK    3  A    between atoms: C12_21  and  O2_2 
REMARK    4  A    between atoms: C4_13  and  O2_2 
REMARK    5  A    between atoms: C15_24  and  N1_7 
REMARK    6  A    between atoms: C20_29  and  N2_8 
REMARK    7  A    between atoms: C1_10  and  C5_14 
REMARK    8  A    between atoms: C3_12  and  C4_13 
REMARK    9  A    between atoms: C6_15  and  C7_16 
ROOT
HETATM    1  N3  UNK     1       1.615  -0.809  -4.126  1.00  0.00    -0.191 NA
HETATM    2  C5  UNK     1       0.875   1.571  -1.743  1.00  0.00     0.037 C 
HETATM    3  C7  UNK     1       0.324   0.432  -2.241  1.00  0.00     0.055 C 
HETATM    4  C23 UNK     1       1.046  -0.248  -3.284  1.00  0.00     0.100 C 
ENDROOT
BRANCH   3   5
HETATM    5  C6  UNK     1      -0.934  -0.129  -1.775  1.00  0.00    -0.015 A 
HETATM    6  C13 UNK     1      -1.933   0.712  -1.284  1.00  0.00     0.015 A 
HETATM    7  C16 UNK     1      -3.139   0.174  -0.835  1.00  0.00     0.037 A 
HETATM    8  C15 UNK     1      -3.347  -1.205  -0.877  1.00  0.00     0.102 A 
HETATM    9  C17 UNK     1      -2.348  -2.046  -1.368  1.00  0.00     0.037 A 
HETATM   10  C14 UNK     1      -1.142  -1.508  -1.817  1.00  0.00     0.015 A 
BRANCH   8  11
HETATM   11  N1  UNK     1      -4.575  -1.751  -0.420  1.00  0.00    -0.116 N 
HETATM   12  O3  UNK     1      -4.742  -2.994  -0.466  1.00  0.00    -0.532 OA
HETATM   13  O4  UNK     1      -5.460  -0.977   0.019  1.00  0.00    -0.532 OA
ENDBRANCH   8  11
ENDBRANCH   3   5
BRANCH   2  14
HETATM   14  C1  UNK     1       2.145   2.170  -2.178  1.00  0.00    -0.001 A 
HETATM   15  C2  UNK     1       3.338   1.823  -1.558  1.00  0.00     0.079 A 
HETATM   16  C9  UNK     1       4.530   2.404  -1.989  1.00  0.00     0.037 A 
HETATM   17  C11 UNK     1       4.519   3.327  -3.036  1.00  0.00     0.003 A 
HETATM   18  C10 UNK     1       3.315   3.668  -3.651  1.00  0.00     0.001 A 
HETATM   19  C8  UNK     1       2.122   3.086  -3.221  1.00  0.00     0.014 A 
BRANCH  15  20
HETATM   20  O1  UNK     1       3.377   0.925  -0.533  1.00  0.00    -0.348 OA
BRANCH  20  21
HETATM   21  C3  UNK     1       3.888   1.389   0.714  1.00  0.00     0.202 C 
BRANCH  21  22
HETATM   22  C4  UNK     1       2.806   1.264   1.769  1.00  0.00     0.202 C 
BRANCH  22  23
HETATM   23  O2  UNK     1       2.408  -0.098   1.867  1.00  0.00    -0.349 OA
BRANCH  23  24
HETATM   24  C12 UNK     1       1.117  -0.337   2.256  1.00  0.00     0.069 A 
HETATM   25  C18 UNK     1       0.461  -1.477   1.804  1.00  0.00     0.039 A 
HETATM   26  C21 UNK     1      -0.854  -1.720   2.199  1.00  0.00     0.039 A 
HETATM   27  C20 UNK     1      -1.505  -0.821   3.045  1.00  0.00     0.103 A 
HETATM   28  C22 UNK     1      -0.841   0.319   3.495  1.00  0.00     0.039 A 
HETATM   29  C19 UNK     1       0.474   0.562   3.100  1.00  0.00     0.039 A 
BRANCH  27  30
HETATM   30  N2  UNK     1      -2.844  -1.070   3.450  1.00  0.00    -0.116 N 
HETATM   31  O5  UNK     1      -3.410  -0.250   4.213  1.00  0.00    -0.532 OA
HETATM   32  O6  UNK     1      -3.424  -2.102   3.033  1.00  0.00    -0.532 OA
ENDBRANCH  27  30
ENDBRANCH  23  24
ENDBRANCH  22  23
ENDBRANCH  21  22
ENDBRANCH  20  21
ENDBRANCH  15  20
ENDBRANCH   2  14
TORSDOF 9
