REMARK  3 active torsions:
REMARK  status: ('A' for Active; 'I' for Inactive)
REMARK    1  A    between atoms: C8_15  and  N1_6 
REMARK    2  A    between atoms: C8_15  and  N2_7 
REMARK    3  A    between atoms: C9_16  and  N2_7 
ROOT
HETATM    1  N2  UNK     1       1.134   0.519   2.276  1.00  0.00    -0.333 N 
HETATM    2  H13 UNK     1       1.550   0.317   3.183  1.00  0.00     0.168 HD
ENDROOT
BRANCH   1   3
HETATM    3  C8  UNK     1       1.778   1.484   1.548  1.00  0.00     0.174 C 
HETATM    4  S1  UNK     1       2.657   2.679   2.331  1.00  0.00    -0.041 SA
BRANCH   3   5
HETATM    5  N1  UNK     1       1.755   1.438   0.192  1.00  0.00    -0.358 N 
HETATM    6  C4  UNK     1       1.744   2.654  -0.612  1.00  0.00     0.130 C 
HETATM    7  C2  UNK     1       2.822   2.601  -1.692  1.00  0.00     0.088 C 
HETATM    8  C1  UNK     1       2.732   1.314  -2.522  1.00  0.00     0.167 C 
HETATM    9  O1  UNK     1       1.518   1.317  -3.293  1.00  0.00    -0.353 OA
HETATM   10  O2  UNK     1       3.861   1.256  -3.410  1.00  0.00    -0.353 OA
HETATM   11  C3  UNK     1       2.741   0.082  -1.606  1.00  0.00     0.088 C 
HETATM   12  C6  UNK     1       1.940   1.549  -4.635  1.00  0.00     0.197 C 
HETATM   13  C7  UNK     1       3.306   0.924  -4.681  1.00  0.00     0.197 C 
HETATM   14  C5  UNK     1       1.666   0.172  -0.526  1.00  0.00     0.130 C 
ENDBRANCH   3   5
ENDBRANCH   1   3
BRANCH   1  15
HETATM   15  C9  UNK     1      -0.029  -0.240   1.997  1.00  0.00     0.036 A 
HETATM   16  C10 UNK     1      -1.010   0.298   1.188  1.00  0.00     0.067 A 
HETATM   17  C13 UNK     1      -2.148  -0.467   0.924  1.00  0.00     0.092 A 
HETATM   18  C12 UNK     1      -2.323  -1.748   1.449  1.00  0.00     0.004 A 
HETATM   19  O3  UNK     1      -3.124   0.120   0.094  1.00  0.00    -0.275 OA
HETATM   20  C14 UNK     1      -1.305  -2.261   2.266  1.00  0.00     0.017 A 
HETATM   21  C15 UNK     1      -3.552  -2.482   1.120  1.00  0.00    -0.043 A 
HETATM   22  C11 UNK     1      -0.159  -1.505   2.539  1.00  0.00     0.030 A 
HETATM   23  C16 UNK     1      -4.463  -1.899   0.328  1.00  0.00     0.090 A 
HETATM   24  C17 UNK     1      -3.770  -3.862   1.668  1.00  0.00     0.049 C 
HETATM   25  C18 UNK     1      -4.293  -0.549  -0.234  1.00  0.00     0.288 A 
HETATM   26  O4  UNK     1      -5.149  -0.048  -0.955  1.00  0.00    -0.260 OA
ENDBRANCH   1  15
TORSDOF 3
