REMARK  6 active torsions:
REMARK  status: ('A' for Active; 'I' for Inactive)
REMARK    1  A    between atoms: C16_25  and  O1_1 
REMARK    2  A    between atoms: C5_14  and  O1_1 
REMARK    3  A    between atoms: C1_10  and  N1_7 
REMARK    4  A    between atoms: C8_17  and  N3_9 
REMARK    5  A    between atoms: C1_10  and  C5_14 
REMARK    6  A    between atoms: C10_19  and  C16_25 
ROOT
HETATM    1  O2  UNK     1       2.976   0.626   0.669  1.00  0.00    -0.274 OA
HETATM    2  O4  UNK     1       1.161  -0.140   1.823  1.00  0.00    -0.259 OA
HETATM    3  C2  UNK     1       2.705   1.613  -1.555  1.00  0.00     0.010 A 
HETATM    4  C3  UNK     1       3.306   2.217  -2.698  1.00  0.00    -0.013 A 
HETATM    5  C4  UNK     1       4.717   2.403  -2.706  1.00  0.00    -0.025 A 
HETATM    6  C6  UNK     1       3.518   1.227  -0.487  1.00  0.00     0.090 A 
HETATM    7  C9  UNK     1       1.268   1.362  -1.416  1.00  0.00     0.039 A 
HETATM    8  C10 UNK     1       0.760   0.791  -0.317  1.00  0.00     0.115 A 
HETATM    9  C11 UNK     1       5.489   1.997  -1.607  1.00  0.00     0.015 A 
HETATM   10  C12 UNK     1       4.895   1.410  -0.497  1.00  0.00     0.039 A 
HETATM   11  C13 UNK     1       2.594   2.652  -3.843  1.00  0.00     0.013 A 
HETATM   12  C14 UNK     1       5.348   2.994  -3.813  1.00  0.00     0.012 A 
HETATM   13  C17 UNK     1       1.617   0.384   0.813  1.00  0.00     0.304 A 
HETATM   14  C19 UNK     1       3.238   3.239  -4.936  1.00  0.00     0.001 A 
HETATM   15  C20 UNK     1       4.614   3.410  -4.920  1.00  0.00     0.001 A 
ENDROOT
BRANCH   8  16
HETATM   16  C16 UNK     1      -0.695   0.594  -0.297  1.00  0.00     0.299 C 
HETATM   17  O3  UNK     1      -1.481   1.323  -0.879  1.00  0.00    -0.259 OA
BRANCH  16  18
HETATM   18  O1  UNK     1      -0.973  -0.500   0.454  1.00  0.00    -0.316 OA
BRANCH  18  19
HETATM   19  C5  UNK     1      -2.362  -0.825   0.569  1.00  0.00     0.199 C 
BRANCH  19  20
HETATM   20  C1  UNK     1      -2.528  -2.067   1.434  1.00  0.00     0.159 C 
BRANCH  20  21
HETATM   21  N1  UNK     1      -3.925  -2.479   1.561  1.00  0.00    -0.313 N 
HETATM   22  C7  UNK     1      -4.571  -3.341   0.734  1.00  0.00     0.103 A 
HETATM   23  C18 UNK     1      -3.915  -3.981  -0.424  1.00  0.00     0.091 C 
HETATM   24  N2  UNK     1      -5.820  -3.514   1.108  1.00  0.00    -0.244 NA
HETATM   25  C15 UNK     1      -5.965  -2.723   2.220  1.00  0.00     0.173 A 
HETATM   26  C8  UNK     1      -4.793  -2.069   2.520  1.00  0.00     0.195 A 
BRANCH  26  27
HETATM   27  N3  UNK     1      -4.469  -1.174   3.546  1.00  0.00    -0.096 N 
HETATM   28  O5  UNK     1      -5.346  -0.850   4.398  1.00  0.00    -0.530 OA
HETATM   29  O6  UNK     1      -3.300  -0.695   3.616  1.00  0.00    -0.530 OA
ENDBRANCH  26  27
ENDBRANCH  20  21
ENDBRANCH  19  20
ENDBRANCH  18  19
ENDBRANCH  16  18
ENDBRANCH   8  16
TORSDOF 6
