REMARK  10 active torsions:
REMARK  status: ('A' for Active; 'I' for Inactive)
REMARK    1  A    between atoms: C20_29  and  O2_3 
REMARK    2  A    between atoms: C7_16  and  O2_3 
REMARK    3  A    between atoms: C11_20  and  O3_4 
REMARK    4  A    between atoms: C21_30  and  O3_4 
REMARK    5  A    between atoms: C19_28  and  N1_7 
REMARK    6  A    between atoms: C6_15  and  N1_7 
REMARK       I    between atoms: C17_26  and  N2_8 
REMARK    7  A    between atoms: N2_8  and  N3_9 
REMARK    8  A    between atoms: C19_28  and  N3_9 
REMARK    9  A    between atoms: C2_11  and  C5_14 
REMARK   10  A    between atoms: C17_26  and  C5_14 
ROOT
HETATM    1  N3  UNK     1       1.028   1.588  -4.547  1.00  0.00    -0.274 N 
HETATM    2  H19 UNK     1       1.425   1.658  -5.478  1.00  0.00     0.189 HD
ENDROOT
BRANCH   1   3
HETATM    3  C19 UNK     1      -0.196   0.972  -4.313  1.00  0.00     0.191 C 
HETATM    4  S1  UNK     1      -1.009   0.350  -5.642  1.00  0.00    -0.039 SA
BRANCH   3   5
HETATM    5  N1  UNK     1      -0.604   0.984  -2.967  1.00  0.00    -0.332 N 
HETATM    6  H13 UNK     1      -0.171   1.731  -2.427  1.00  0.00     0.168 HD
BRANCH   5   7
HETATM    7  C6  UNK     1      -1.378   0.120  -2.192  1.00  0.00     0.037 A 
HETATM    8  C10 UNK     1      -1.665   0.436  -0.869  1.00  0.00     0.067 A 
HETATM    9  C3  UNK     1      -2.442  -0.442  -0.112  1.00  0.00     0.092 A 
HETATM   10  C1  UNK     1      -2.946  -1.633  -0.636  1.00  0.00     0.004 A 
HETATM   11  O1  UNK     1      -2.699  -0.067   1.222  1.00  0.00    -0.275 OA
HETATM   12  C9  UNK     1      -2.646  -1.934  -1.971  1.00  0.00     0.017 A 
HETATM   13  C4  UNK     1      -3.755  -2.498   0.233  1.00  0.00    -0.043 A 
HETATM   14  C13 UNK     1      -1.868  -1.063  -2.743  1.00  0.00     0.030 A 
HETATM   15  C15 UNK     1      -3.983  -2.116   1.498  1.00  0.00     0.090 A 
HETATM   16  C16 UNK     1      -4.311  -3.786  -0.301  1.00  0.00     0.049 C 
HETATM   17  C18 UNK     1      -3.459  -0.863   2.065  1.00  0.00     0.288 A 
HETATM   18  O5  UNK     1      -3.689  -0.546   3.228  1.00  0.00    -0.260 OA
ENDBRANCH   5   7
ENDBRANCH   3   5
ENDBRANCH   1   3
BRANCH   1  19
HETATM   19  N2  UNK     1       1.768   2.136  -3.526  1.00  0.00    -0.268 N 
HETATM   20  C17 UNK     1       2.677   1.339  -2.857  1.00  0.00     0.240 C 
HETATM   21  O4  UNK     1       2.894   0.152  -3.093  1.00  0.00    -0.272 OA
HETATM   22  H14 UNK     1       1.597   3.113  -3.313  1.00  0.00     0.190 HD
BRANCH  20  23
HETATM   23  C5  UNK     1       3.377   2.070  -1.732  1.00  0.00     0.143 C 
BRANCH  23  24
HETATM   24  C2  UNK     1       3.083   1.430  -0.401  1.00  0.00    -0.047 A 
HETATM   25  C12 UNK     1       3.908   0.415   0.083  1.00  0.00     0.010 A 
HETATM   26  C14 UNK     1       3.635  -0.178   1.316  1.00  0.00     0.040 A 
HETATM   27  C11 UNK     1       2.536   0.244   2.065  1.00  0.00     0.102 A 
HETATM   28  C7  UNK     1       1.711   1.259   1.581  1.00  0.00     0.102 A 
HETATM   29  C8  UNK     1       1.984   1.852   0.348  1.00  0.00     0.047 A 
BRANCH  27  30
HETATM   30  O3  UNK     1       2.280  -0.343   3.267  1.00  0.00    -0.349 OA
BRANCH  30  31
HETATM   31  C21 UNK     1       2.036  -1.748   3.263  1.00  0.00     0.171 C 
HETATM   32  C23 UNK     1       1.110  -2.090   4.411  1.00  0.00     0.034 C 
ENDBRANCH  30  31
ENDBRANCH  27  30
BRANCH  28  33
HETATM   33  O2  UNK     1       0.635   1.680   2.303  1.00  0.00    -0.349 OA
BRANCH  33  34
HETATM   34  C20 UNK     1       0.244   3.043   2.148  1.00  0.00     0.171 C 
HETATM   35  C22 UNK     1      -0.396   3.521   3.434  1.00  0.00     0.034 C 
ENDBRANCH  33  34
ENDBRANCH  28  33
ENDBRANCH  23  24
ENDBRANCH  20  23
ENDBRANCH   1  19
TORSDOF 10
