REMARK  3 active torsions:
REMARK  status: ('A' for Active; 'I' for Inactive)
REMARK    1  A    between atoms: C14_20  and  O2_3 
REMARK    2  A    between atoms: C11_17  and  N1_6 
REMARK    3  A    between atoms: C5_11  and  C6_12 
ROOT
HETATM    1  C5  UNK     1       0.012   0.273   2.004  1.00  0.00    -0.032 A 
HETATM    2  C9  UNK     1      -0.884   0.807   1.093  1.00  0.00     0.050 A 
HETATM    3  C10 UNK     1       1.152   0.961   2.383  1.00  0.00     0.014 A 
HETATM    4  C11 UNK     1      -0.633   2.065   0.546  1.00  0.00     0.136 A 
HETATM    5  C14 UNK     1       0.511   2.772   0.918  1.00  0.00     0.098 A 
HETATM    6  C15 UNK     1       1.403   2.220   1.836  1.00  0.00     0.040 A 
ENDROOT
BRANCH   1   7
HETATM    7  C6  UNK     1      -0.252  -1.057   2.582  1.00  0.00     0.034 C 
HETATM    8  C2  UNK     1       0.138  -2.225   2.068  1.00  0.00     0.057 A 
HETATM    9  S1  UNK     1      -0.185  -3.777   2.767  1.00  0.00    -0.086 SA
HETATM   10  C4  UNK     1       0.916  -2.325   0.804  1.00  0.00     0.200 A 
HETATM   11  C3  UNK     1       0.671  -4.603   1.452  1.00  0.00     0.020 A 
HETATM   12  C1  UNK     1       1.195  -3.733   0.497  1.00  0.00     0.032 A 
HETATM   13  C8  UNK     1       0.844  -5.973   1.314  1.00  0.00     0.020 A 
HETATM   14  C7  UNK     1       1.896  -4.192  -0.608  1.00  0.00     0.017 A 
HETATM   15  C12 UNK     1       2.071  -5.569  -0.748  1.00  0.00     0.001 A 
HETATM   16  C13 UNK     1       1.549  -6.454   0.207  1.00  0.00     0.001 A 
HETATM   17  O1  UNK     1       1.278  -1.391   0.112  1.00  0.00    -0.286 OA
ENDBRANCH   1   7
BRANCH   4  18
HETATM   18  N1  UNK     1      -1.554   2.612  -0.389  1.00  0.00    -0.113 N 
HETATM   19  O3  UNK     1      -2.571   1.947  -0.699  1.00  0.00    -0.532 OA
HETATM   20  O4  UNK     1      -1.322   3.744  -0.877  1.00  0.00    -0.532 OA
ENDBRANCH   4  18
BRANCH   5  21
HETATM   21  O2  UNK     1       0.777   4.004   0.398  1.00  0.00    -0.358 OA
HETATM   22  H9  UNK     1       1.611   4.334   0.775  1.00  0.00     0.217 HD
ENDBRANCH   5  21
TORSDOF 3
