REMARK  4 active torsions:
REMARK  status: ('A' for Active; 'I' for Inactive)
REMARK    1  A    between atoms: C16_24  and  O3_5 
REMARK    2  A    between atoms: C1_9  and  C9_17 
REMARK    3  A    between atoms: C11_19  and  C4_12 
REMARK    4  A    between atoms: C16_24  and  C8_16 
ROOT
HETATM    1  O1  UNK     1       0.780  -2.637  -0.010  1.00  0.00    -0.293 OA
HETATM    2  N1  UNK     1      -0.117   1.447   2.217  1.00  0.00    -0.362 N 
HETATM    3  C1  UNK     1      -2.405  -1.299   1.055  1.00  0.00     0.031 C 
HETATM    4  C2  UNK     1      -1.914  -0.217   2.027  1.00  0.00     0.067 C 
HETATM    5  C3  UNK     1       0.372  -0.539   1.022  1.00  0.00     0.024 C 
HETATM    6  C4  UNK     1       1.774  -0.030   0.703  1.00  0.00     0.104 C 
HETATM    7  C5  UNK     1      -0.500   0.213   1.727  1.00  0.00     0.021 C 
HETATM    8  C6  UNK     1      -1.386  -2.437   0.976  1.00  0.00     0.093 C 
HETATM    9  C7  UNK     1      -0.018  -1.917   0.590  1.00  0.00     0.159 C 
HETATM   10  C8  UNK     1       2.107   1.277   1.424  1.00  0.00     0.052 C 
HETATM   11  C10 UNK     1       1.166   1.962   2.115  1.00  0.00     0.018 C 
HETATM   12  C12 UNK     1       1.381   3.276   2.814  1.00  0.00     0.069 C 
HETATM   13  H7  UNK     1      -0.799   1.981   2.745  1.00  0.00     0.165 HD
ENDROOT
BRANCH   6  14
HETATM   14  C11 UNK     1       1.944   0.141  -0.783  1.00  0.00     0.029 A 
HETATM   15  C15 UNK     1       1.078   1.120  -1.487  1.00  0.00     0.194 A 
HETATM   16  O4  UNK     1       0.238   1.787  -0.898  1.00  0.00    -0.287 OA
HETATM   17  C18 UNK     1       1.284   1.247  -2.942  1.00  0.00     0.050 A 
HETATM   18  C21 UNK     1       2.257   0.461  -3.560  1.00  0.00     0.089 A 
HETATM   19  C23 UNK     1       0.519   2.141  -3.695  1.00  0.00     0.042 A 
HETATM   20  O2  UNK     1       3.037  -0.433  -2.870  1.00  0.00    -0.321 OA
HETATM   21  C24 UNK     1       2.470   0.564  -4.935  1.00  0.00     0.040 A 
HETATM   22  C17 UNK     1       2.833  -0.541  -1.516  1.00  0.00     0.154 A 
HETATM   23  C26 UNK     1       1.707   1.457  -5.689  1.00  0.00     0.026 A 
HETATM   24  C25 UNK     1       0.734   2.243  -5.070  1.00  0.00     0.035 A 
HETATM   25 Cl1  UNK     1      -0.203   3.342  -6.006  1.00  0.00    -0.084 Cl
ENDBRANCH   6  14
BRANCH  10  26
HETATM   26  C16 UNK     1       3.510   1.720   1.375  1.00  0.00     0.291 C 
HETATM   27  O5  UNK     1       4.351   1.367   2.181  1.00  0.00    -0.260 OA
BRANCH  26  28
HETATM   28  O3  UNK     1       3.659   2.549   0.314  1.00  0.00    -0.323 OA
HETATM   29  C27 UNK     1       4.981   3.067   0.131  1.00  0.00     0.213 C 
ENDBRANCH  26  28
ENDBRANCH  10  26
BRANCH   3  30
HETATM   30  C9  UNK     1      -3.794  -1.795   1.414  1.00  0.00    -0.053 A 
HETATM   31  C13 UNK     1      -3.943  -2.875   2.282  1.00  0.00     0.010 A 
HETATM   32  C19 UNK     1      -5.219  -3.331   2.611  1.00  0.00     0.043 A 
HETATM   33  C22 UNK     1      -6.344  -2.706   2.072  1.00  0.00     0.116 A 
HETATM   34  C20 UNK     1      -6.192  -1.625   1.203  1.00  0.00     0.043 A 
HETATM   35  F1  UNK     1      -7.569  -3.144   2.388  1.00  0.00    -0.206 F 
HETATM   36  C14 UNK     1      -4.915  -1.169   0.874  1.00  0.00     0.010 A 
ENDBRANCH   3  30
TORSDOF 4
