REMARK  2 active torsions:
REMARK  status: ('A' for Active; 'I' for Inactive)
REMARK       I    between atoms: C11_18  and  N1_5 
REMARK    1  A    between atoms: C2_9  and  N1_5 
REMARK    2  A    between atoms: C11_18  and  C5_12 
ROOT
HETATM    1  O2  UNK     1      -0.311  -1.565  -0.940  1.00  0.00    -0.267 OA
HETATM    2  N1  UNK     1      -0.834  -0.021   0.760  1.00  0.00    -0.323 N 
HETATM    3  C11 UNK     1      -0.076  -0.560  -0.271  1.00  0.00     0.262 C 
HETATM    4  H5  UNK     1      -0.489   0.826   1.207  1.00  0.00     0.169 HD
ENDROOT
BRANCH   3   5
HETATM    5  C5  UNK     1       1.136   0.224  -0.534  1.00  0.00     0.108 A 
HETATM    6  C14 UNK     1       2.174   0.438   0.500  1.00  0.00     0.304 A 
HETATM    7  O1  UNK     1       3.279   1.199   0.129  1.00  0.00    -0.274 OA
HETATM    8  O3  UNK     1       2.070  -0.030   1.628  1.00  0.00    -0.259 OA
HETATM    9  C7  UNK     1       3.407   1.741  -1.165  1.00  0.00     0.089 A 
HETATM   10  C15 UNK     1       4.549   2.490  -1.443  1.00  0.00     0.040 A 
HETATM   11  C4  UNK     1       2.420   1.528  -2.122  1.00  0.00     0.001 A 
HETATM   12  C17 UNK     1       4.704   3.039  -2.714  1.00  0.00     0.026 A 
HETATM   13  C16 UNK     1       3.724   2.836  -3.687  1.00  0.00     0.035 A 
HETATM   14  C12 UNK     1       2.583   2.083  -3.394  1.00  0.00     0.038 A 
HETATM   15 Cl1  UNK     1       3.921   3.517  -5.257  1.00  0.00    -0.084 Cl
HETATM   16  C8  UNK     1       1.253   0.736  -1.765  1.00  0.00     0.037 A 
ENDBRANCH   3   5
BRANCH   2  17
HETATM   17  C2  UNK     1      -2.058  -0.510   1.279  1.00  0.00     0.035 A 
HETATM   18  C6  UNK     1      -2.624  -1.669   0.733  1.00  0.00     0.044 A 
HETATM   19  C1  UNK     1      -3.839  -2.136   1.262  1.00  0.00     0.013 A 
HETATM   20  C3  UNK     1      -4.439  -1.440   2.306  1.00  0.00     0.062 A 
HETATM   21  C13 UNK     1      -4.712  -3.217   1.015  1.00  0.00     0.152 A 
HETATM   22  C10 UNK     1      -3.891  -0.284   2.865  1.00  0.00     0.034 A 
HETATM   23  N2  UNK     1      -5.584  -2.135   2.590  1.00  0.00    -0.278 N 
HETATM   24  C9  UNK     1      -2.682   0.169   2.327  1.00  0.00     0.032 A 
HETATM   25  H8  UNK     1      -6.276  -1.922   3.297  1.00  0.00     0.189 HD
HETATM   26  N3  UNK     1      -5.775  -3.220   1.821  1.00  0.00    -0.186 NA
ENDBRANCH   2  17
TORSDOF 2
