REMARK  0 active torsions:
REMARK  status: ('A' for Active; 'I' for Inactive)
ROOT
HETATM    1  O1  UNK     1      -2.740  -1.166   0.277  1.00  0.00    -0.314 OA
HETATM    2  O2  UNK     1       0.860   0.806  -2.260  1.00  0.00    -0.274 OA
HETATM    3  O3  UNK     1       2.600   1.752  -3.402  1.00  0.00    -0.260 OA
HETATM    4  C1  UNK     1       0.994   0.589   0.171  1.00  0.00     0.005 A 
HETATM    5  C2  UNK     1      -0.890  -0.424   1.338  1.00  0.00     0.002 A 
HETATM    6  C3  UNK     1      -1.522  -0.579   0.110  1.00  0.00     0.094 A 
HETATM    7  C4  UNK     1      -0.972  -0.183  -1.104  1.00  0.00     0.008 A 
HETATM    8  C5  UNK     1       0.298   0.402  -1.027  1.00  0.00     0.099 A 
HETATM    9  C6  UNK     1       0.389   0.169   1.371  1.00  0.00     0.029 A 
HETATM   10  C7  UNK     1       2.324   1.216   0.121  1.00  0.00    -0.043 A 
HETATM   11  C8  UNK     1      -1.788  -0.953   2.303  1.00  0.00     0.046 A 
HETATM   12  C9  UNK     1      -2.892  -1.389   1.608  1.00  0.00     0.050 A 
HETATM   13  C10 UNK     1      -1.678  -0.362  -2.404  1.00  0.00     0.054 C 
HETATM   14  C11 UNK     1       2.826   1.589  -1.065  1.00  0.00     0.090 A 
HETATM   15  C12 UNK     1       3.099   1.432   1.389  1.00  0.00     0.049 C 
HETATM   16  C13 UNK     1       2.109   1.400  -2.336  1.00  0.00     0.288 A 
HETATM   17  C14 UNK     1      -4.151  -2.023   2.021  1.00  0.00     0.077 C 
ENDROOT
TORSDOF 0
