REMARK  7 active torsions:
REMARK  status: ('A' for Active; 'I' for Inactive)
REMARK    1  A    between atoms: C10_17  and  O2_2 
REMARK    2  A    between atoms: C5_12  and  O2_2 
REMARK    3  A    between atoms: C19_26  and  O3_3 
REMARK    4  A    between atoms: C20_27  and  O3_3 
REMARK    5  A    between atoms: C12_19  and  N1_7 
REMARK       I    between atoms: C15_22  and  N1_7 
REMARK    6  A    between atoms: C10_17  and  C15_22 
REMARK    7  A    between atoms: C13_20  and  C19_26 
ROOT
HETATM    1  O5  UNK     1       0.333   0.395   2.364  1.00  0.00    -0.271 OA
HETATM    2  N1  UNK     1      -1.438  -0.154   0.918  1.00  0.00    -0.325 N 
HETATM    3  C15 UNK     1      -0.226   0.425   1.272  1.00  0.00     0.246 C 
HETATM    4  H11 UNK     1      -1.755  -0.023  -0.041  1.00  0.00     0.169 HD
ENDROOT
BRANCH   3   5
HETATM    5  C10 UNK     1       0.399   1.164   0.109  1.00  0.00     0.278 C 
BRANCH   5   6
HETATM    6  O2  UNK     1       1.633   1.738   0.538  1.00  0.00    -0.342 OA
BRANCH   6   7
HETATM    7  C5  UNK     1       2.605   1.890  -0.402  1.00  0.00     0.072 A 
HETATM    8  C6  UNK     1       2.263   2.105  -1.733  1.00  0.00     0.075 A 
HETATM    9  C2  UNK     1       3.276   2.259  -2.680  1.00  0.00     0.092 A 
HETATM   10  C1  UNK     1       4.629   2.204  -2.341  1.00  0.00     0.004 A 
HETATM   11  O1  UNK     1       2.867   2.474  -4.012  1.00  0.00    -0.275 OA
HETATM   12  C3  UNK     1       5.628   2.376  -3.404  1.00  0.00    -0.043 A 
HETATM   13  C4  UNK     1       4.953   1.987  -0.995  1.00  0.00     0.017 A 
HETATM   14  C8  UNK     1       5.211   2.580  -4.661  1.00  0.00     0.090 A 
HETATM   15  C9  UNK     1       7.091   2.323  -3.071  1.00  0.00     0.049 C 
HETATM   16  C11 UNK     1       3.788   2.640  -5.035  1.00  0.00     0.288 A 
HETATM   17  O4  UNK     1       3.443   2.828  -6.196  1.00  0.00    -0.260 OA
HETATM   18  C7  UNK     1       3.948   1.831  -0.034  1.00  0.00     0.038 A 
ENDBRANCH   6   7
ENDBRANCH   5   6
ENDBRANCH   3   5
BRANCH   2  19
HETATM   19  C12 UNK     1      -2.301  -0.918   1.739  1.00  0.00     0.035 A 
HETATM   20  C14 UNK     1      -3.478  -1.417   1.207  1.00  0.00     0.047 A 
HETATM   21  C13 UNK     1      -4.329  -2.168   2.017  1.00  0.00     0.041 A 
HETATM   22  C17 UNK     1      -3.991  -2.410   3.349  1.00  0.00     0.018 A 
HETATM   23  C18 UNK     1      -2.802  -1.900   3.870  1.00  0.00     0.003 A 
HETATM   24  C16 UNK     1      -1.951  -1.149   3.059  1.00  0.00     0.029 A 
BRANCH  21  25
HETATM   25  C19 UNK     1      -5.569  -2.701   1.475  1.00  0.00     0.293 C 
HETATM   26  O6  UNK     1      -5.950  -2.537   0.308  1.00  0.00    -0.259 OA
BRANCH  25  27
HETATM   27  O3  UNK     1      -6.267  -3.409   2.415  1.00  0.00    -0.318 OA
BRANCH  27  28
HETATM   28  C20 UNK     1      -7.509  -3.986   1.999  1.00  0.00     0.174 C 
HETATM   29  C21 UNK     1      -8.126  -4.723   3.169  1.00  0.00     0.034 C 
ENDBRANCH  27  28
ENDBRANCH  25  27
ENDBRANCH  21  25
ENDBRANCH   2  19
TORSDOF 7
