REMARK  6 active torsions:
REMARK  status: ('A' for Active; 'I' for Inactive)
REMARK    1  A    between atoms: C11_18  and  O2_2 
REMARK    2  A    between atoms: C2_9  and  N1_5 
REMARK    3  A    between atoms: C3_10  and  N2_6 
REMARK       I    between atoms: C6_13  and  N2_6 
REMARK    4  A    between atoms: C1_8  and  C2_9 
REMARK    5  A    between atoms: C1_8  and  C3_10 
REMARK    6  A    between atoms: C4_11  and  C6_13 
ROOT
HETATM    1  O1  UNK     1       0.906   1.477  -1.900  1.00  0.00    -0.271 OA
HETATM    2  O4  UNK     1      -0.983   0.899  -0.754  1.00  0.00    -0.259 OA
HETATM    3  C4  UNK     1       1.076   0.629   0.387  1.00  0.00     0.108 A 
HETATM    4  C5  UNK     1       3.077   1.242  -0.832  1.00  0.00     0.002 A 
HETATM    5  C7  UNK     1       2.309   1.598  -1.935  1.00  0.00     0.123 A 
HETATM    6  C8  UNK     1       2.409   0.743   0.360  1.00  0.00     0.037 A 
HETATM    7  C11 UNK     1       2.888   2.084  -3.106  1.00  0.00     0.102 A 
HETATM    8  C12 UNK     1       0.238   1.002  -0.775  1.00  0.00     0.304 A 
HETATM    9  C13 UNK     1       4.466   1.376  -0.905  1.00  0.00     0.014 A 
HETATM   10  C14 UNK     1       4.273   2.214  -3.171  1.00  0.00     0.040 A 
HETATM   11  C15 UNK     1       5.061   1.861  -2.073  1.00  0.00     0.004 A 
ENDROOT
BRANCH   3  12
HETATM   12  C6  UNK     1       0.494   0.116   1.634  1.00  0.00     0.257 C 
HETATM   13  O3  UNK     1       1.117  -0.670   2.344  1.00  0.00    -0.267 OA
HETATM   14  N2  UNK     1      -0.775   0.608   1.878  1.00  0.00    -0.357 N 
HETATM   15  H7  UNK     1      -1.197   1.275   1.239  1.00  0.00     0.162 HD
BRANCH  14  16
HETATM   16  C3  UNK     1      -1.551   0.245   3.042  1.00  0.00     0.124 C 
BRANCH  16  17
HETATM   17  C1  UNK     1      -2.419  -0.985   2.799  1.00  0.00     0.040 C 
BRANCH  17  18
HETATM   18  C2  UNK     1      -3.438  -0.768   1.679  1.00  0.00     0.131 C 
BRANCH  18  19
HETATM   19  N1  UNK     1      -4.270  -1.947   1.460  1.00  0.00    -0.350 N 
HETATM   20  C10 UNK     1      -5.450  -2.208   2.078  1.00  0.00     0.209 A 
HETATM   21  N3  UNK     1      -5.959  -3.349   1.669  1.00  0.00    -0.255 NA
HETATM   22  C16 UNK     1      -5.055  -3.826   0.752  1.00  0.00     0.135 A 
HETATM   23  C9  UNK     1      -3.993  -2.964   0.607  1.00  0.00     0.111 A 
ENDBRANCH  18  19
ENDBRANCH  17  18
ENDBRANCH  16  17
ENDBRANCH  14  16
ENDBRANCH   3  12
BRANCH   7  24
HETATM   24  O2  UNK     1       2.125   2.429  -4.178  1.00  0.00    -0.353 OA
HETATM   25  C17 UNK     1       1.850   1.408  -5.137  1.00  0.00     0.210 C 
ENDBRANCH   7  24
TORSDOF 6
