REMARK  6 active torsions:
REMARK  status: ('A' for Active; 'I' for Inactive)
REMARK    1  A    between atoms: C18_26  and  O5_5 
REMARK    2  A    between atoms: C21_29  and  O6_6 
REMARK       I    between atoms: C12_20  and  N2_8 
REMARK    3  A    between atoms: C24_32  and  N2_8 
REMARK    4  A    between atoms: C1_9  and  C9_17 
REMARK    5  A    between atoms: C11_19  and  C4_12 
REMARK    6  A    between atoms: C12_20  and  C8_16 
ROOT
HETATM    1  O1  UNK     1      -2.272   2.186   0.175  1.00  0.00    -0.293 OA
HETATM    2  N1  UNK     1       0.871  -1.029   1.670  1.00  0.00    -0.362 N 
HETATM    3  C1  UNK     1      -2.860  -1.217   1.250  1.00  0.00     0.031 C 
HETATM    4  C2  UNK     1      -1.524  -1.491   1.956  1.00  0.00     0.067 C 
HETATM    5  C3  UNK     1      -0.649   0.577   0.818  1.00  0.00     0.024 C 
HETATM    6  C4  UNK     1       0.505   1.418   0.282  1.00  0.00     0.104 C 
HETATM    7  C5  UNK     1      -0.422  -0.594   1.451  1.00  0.00     0.021 C 
HETATM    8  C6  UNK     1      -3.177   0.279   1.289  1.00  0.00     0.093 C 
HETATM    9  C7  UNK     1      -2.048   1.092   0.693  1.00  0.00     0.159 C 
HETATM   10  C8  UNK     1       1.873   0.893   0.722  1.00  0.00     0.045 C 
HETATM   11  C10 UNK     1       2.003  -0.293   1.360  1.00  0.00     0.018 C 
HETATM   12  C15 UNK     1       3.304  -0.916   1.786  1.00  0.00     0.069 C 
HETATM   13  H7  UNK     1       0.999  -1.912   2.152  1.00  0.00     0.165 HD
ENDROOT
BRANCH   6  14
HETATM   14  C11 UNK     1       0.438   1.499  -1.219  1.00  0.00     0.029 A 
HETATM   15  C16 UNK     1       0.563   0.244  -2.003  1.00  0.00     0.194 A 
HETATM   16  O4  UNK     1       0.717  -0.846  -1.467  1.00  0.00    -0.287 OA
HETATM   17  C19 UNK     1       0.492   0.379  -3.469  1.00  0.00     0.048 A 
HETATM   18  C22 UNK     1       0.315   1.646  -4.026  1.00  0.00     0.089 A 
HETATM   19  C23 UNK     1       0.600  -0.743  -4.295  1.00  0.00     0.018 A 
HETATM   20  O2  UNK     1       0.203   2.782  -3.263  1.00  0.00    -0.321 OA
HETATM   21  C25 UNK     1       0.245   1.798  -5.411  1.00  0.00     0.038 A 
HETATM   22  C17 UNK     1       0.272   2.640  -1.899  1.00  0.00     0.154 A 
HETATM   23  C27 UNK     1       0.353   0.679  -6.237  1.00  0.00     0.003 A 
HETATM   24  C26 UNK     1       0.530  -0.589  -5.680  1.00  0.00     0.001 A 
ENDBRANCH   6  14
BRANCH  10  25
HETATM   25  C12 UNK     1       3.028   1.768   0.460  1.00  0.00     0.255 C 
HETATM   26  O3  UNK     1       3.346   2.615   1.289  1.00  0.00    -0.268 OA
HETATM   27  N2  UNK     1       3.623   1.489  -0.761  1.00  0.00    -0.323 N 
HETATM   28  H15 UNK     1       3.227   0.737  -1.321  1.00  0.00     0.169 HD
BRANCH  27  29
HETATM   29  C24 UNK     1       4.750   2.128  -1.334  1.00  0.00     0.035 A 
HETATM   30  C28 UNK     1       5.206   1.711  -2.573  1.00  0.00     0.030 A 
HETATM   31  C32 UNK     1       6.315   2.339  -3.138  1.00  0.00     0.009 A 
HETATM   32  C34 UNK     1       6.952   3.376  -2.455  1.00  0.00    -0.062 A 
HETATM   33  C33 UNK     1       6.479   3.783  -1.208  1.00  0.00     0.009 A 
HETATM   34  C35 UNK     1       8.139   4.048  -3.059  1.00  0.00     0.048 C 
HETATM   35  C29 UNK     1       5.370   3.154  -0.643  1.00  0.00     0.030 A 
ENDBRANCH  27  29
ENDBRANCH  10  25
BRANCH   3  36
HETATM   36  C9  UNK     1      -3.986  -2.058   1.821  1.00  0.00    -0.050 A 
HETATM   37  C13 UNK     1      -4.361  -1.905   3.154  1.00  0.00     0.047 A 
HETATM   38  C18 UNK     1      -5.396  -2.679   3.679  1.00  0.00     0.102 A 
HETATM   39  C21 UNK     1      -6.054  -3.605   2.869  1.00  0.00     0.101 A 
HETATM   40  C20 UNK     1      -5.677  -3.756   1.534  1.00  0.00     0.040 A 
HETATM   41  C14 UNK     1      -4.642  -2.982   1.010  1.00  0.00     0.010 A 
BRANCH  38  42
HETATM   42  O5  UNK     1      -5.755  -2.522   4.983  1.00  0.00    -0.353 OA
HETATM   43  C30 UNK     1      -6.764  -1.554   5.265  1.00  0.00     0.210 C 
ENDBRANCH  38  42
BRANCH  39  44
HETATM   44  O6  UNK     1      -7.066  -4.366   3.369  1.00  0.00    -0.353 OA
HETATM   45  C31 UNK     1      -6.710  -5.621   3.946  1.00  0.00     0.210 C 
ENDBRANCH  39  44
ENDBRANCH   3  36
TORSDOF 6
