REMARK  2 active torsions:
REMARK  status: ('A' for Active; 'I' for Inactive)
REMARK    1  A    between atoms: C1_3  and  C3_5 
REMARK    2  A    between atoms: C2_4  and  C4_6 
ROOT
HETATM    1 Cl1  UNK     1       0.041  -0.212   3.277  1.00  0.00    -0.082 Cl
HETATM    2 Cl2  UNK     1       2.585   1.143   1.827  1.00  0.00    -0.082 Cl
HETATM    3  C3  UNK     1       0.113   0.020   1.551  1.00  0.00     0.066 C 
HETATM    4  C4  UNK     1       1.189   0.591   0.953  1.00  0.00     0.066 C 
ENDROOT
BRANCH   3   5
HETATM    5  C1  UNK     1      -1.062  -0.446   0.833  1.00  0.00    -0.013 A 
HETATM    6  C5  UNK     1      -1.118  -1.758   0.363  1.00  0.00     0.013 A 
HETATM    7  C9  UNK     1      -2.245  -2.206  -0.326  1.00  0.00     0.001 A 
HETATM    8  C13 UNK     1      -3.317  -1.341  -0.545  1.00  0.00     0.000 A 
HETATM    9  C11 UNK     1      -3.262  -0.028  -0.075  1.00  0.00     0.001 A 
HETATM   10  C7  UNK     1      -2.134   0.419   0.614  1.00  0.00     0.013 A 
ENDBRANCH   3   5
BRANCH   4  11
HETATM   11  C2  UNK     1       1.276   0.799  -0.500  1.00  0.00    -0.013 A 
HETATM   12  C6  UNK     1       0.807   1.983  -1.048  1.00  0.00     0.013 A 
HETATM   13  C10 UNK     1       0.889   2.180  -2.427  1.00  0.00     0.001 A 
HETATM   14  C14 UNK     1       1.439   1.190  -3.241  1.00  0.00     0.000 A 
HETATM   15  C12 UNK     1       1.906   0.003  -2.677  1.00  0.00     0.001 A 
HETATM   16  C8  UNK     1       1.824  -0.194  -1.298  1.00  0.00     0.013 A 
ENDBRANCH   4  11
TORSDOF 2
