REMARK  6 active torsions:
REMARK  status: ('A' for Active; 'I' for Inactive)
REMARK    1  A    between atoms: C16_23  and  O2_2 
REMARK    2  A    between atoms: C5_12  and  O2_2 
REMARK    3  A    between atoms: C10_17  and  O3_3 
REMARK    4  A    between atoms: C17_24  and  O3_3 
REMARK    5  A    between atoms: C15_22  and  O5_5 
REMARK    6  A    between atoms: C2_9  and  C6_13 
ROOT
HETATM    1  O1  UNK     1      -0.030   1.414   2.031  1.00  0.00    -0.321 OA
HETATM    2  O4  UNK     1      -0.291   0.337  -1.896  1.00  0.00    -0.286 OA
HETATM    3  C1  UNK     1      -1.235   0.273   0.259  1.00  0.00     0.083 A 
HETATM    4  C2  UNK     1       0.958   1.428  -0.187  1.00  0.00     0.048 A 
HETATM    5  C3  UNK     1      -1.099   0.678   1.587  1.00  0.00     0.094 A 
HETATM    6  C4  UNK     1      -0.194   0.648  -0.716  1.00  0.00     0.200 A 
HETATM    7  C5  UNK     1      -2.347  -0.475  -0.137  1.00  0.00     0.099 A 
HETATM    8  C7  UNK     1      -2.074   0.338   2.525  1.00  0.00     0.075 A 
HETATM    9  C8  UNK     1       0.943   1.739   1.118  1.00  0.00     0.159 A 
HETATM   10  C9  UNK     1      -3.321  -0.814   0.804  1.00  0.00     0.076 A 
HETATM   11  C10 UNK     1      -3.184  -0.409   2.132  1.00  0.00     0.084 A 
ENDROOT
BRANCH   4  12
HETATM   12  C6  UNK     1       2.084   1.833  -1.045  1.00  0.00    -0.020 A 
HETATM   13  C11 UNK     1       3.185   0.989  -1.201  1.00  0.00     0.015 A 
HETATM   14  C13 UNK     1       4.251   1.372  -2.015  1.00  0.00     0.037 A 
HETATM   15  C15 UNK     1       4.219   2.601  -2.674  1.00  0.00     0.068 A 
HETATM   16  C14 UNK     1       3.119   3.446  -2.520  1.00  0.00     0.037 A 
HETATM   17  C12 UNK     1       2.053   3.063  -1.706  1.00  0.00     0.015 A 
BRANCH  15  18
HETATM   18  O5  UNK     1       5.259   2.975  -3.468  1.00  0.00    -0.356 OA
HETATM   19  C19 UNK     1       5.161   4.244  -4.112  1.00  0.00     0.210 C 
ENDBRANCH  15  18
ENDBRANCH   4  12
BRANCH   7  20
HETATM   20  O2  UNK     1      -2.531  -0.895  -1.420  1.00  0.00    -0.278 OA
BRANCH  20  21
HETATM   21  C16 UNK     1      -1.975  -2.154  -1.695  1.00  0.00     0.260 C 
HETATM   22  O6  UNK     1      -1.368  -2.858  -0.899  1.00  0.00    -0.265 OA
HETATM   23  C18 UNK     1      -2.230  -2.525  -3.126  1.00  0.00     0.126 C 
ENDBRANCH  20  21
ENDBRANCH   7  20
BRANCH  11  24
HETATM   24  O3  UNK     1      -4.136  -0.744   3.046  1.00  0.00    -0.279 OA
BRANCH  24  25
HETATM   25  C17 UNK     1      -3.902  -1.968   3.695  1.00  0.00     0.260 C 
HETATM   26  O7  UNK     1      -2.950  -2.711   3.498  1.00  0.00    -0.265 OA
HETATM   27  C20 UNK     1      -5.001  -2.246   4.677  1.00  0.00     0.126 C 
ENDBRANCH  24  25
ENDBRANCH  11  24
TORSDOF 6
