REMARK  4 active torsions:
REMARK  status: ('A' for Active; 'I' for Inactive)
REMARK    1  A    between atoms: C1_8  and  N1_6 
REMARK    2  A    between atoms: C3_10  and  N1_6 
REMARK    3  A    between atoms: C5_12  and  N2_7 
REMARK    4  A    between atoms: C3_10  and  C6_13 
ROOT
HETATM    1  O1  UNK     1       2.963   1.197  -2.044  1.00  0.00    -0.273 OA
HETATM    2  O2  UNK     1       1.988   0.932  -4.089  1.00  0.00    -0.257 OA
HETATM    3  C1  UNK     1       0.381   0.831  -0.852  1.00  0.00     0.081 A 
HETATM    4  C2  UNK     1       1.584   1.083  -0.018  1.00  0.00     0.027 A 
HETATM    5  C4  UNK     1       2.825   1.254  -0.642  1.00  0.00     0.092 A 
HETATM    6  C5  UNK     1       0.589   0.794  -2.179  1.00  0.00     0.205 A 
HETATM    7  C7  UNK     1       1.568   1.165   1.385  1.00  0.00     0.017 A 
HETATM    8  C8  UNK     1       1.874   0.975  -2.870  1.00  0.00     0.324 A 
HETATM    9  C9  UNK     1       4.004   1.494   0.071  1.00  0.00     0.038 A 
HETATM   10  C10 UNK     1       2.741   1.406   2.113  1.00  0.00     0.001 A 
HETATM   11  C13 UNK     1       3.957   1.569   1.458  1.00  0.00     0.003 A 
ENDROOT
BRANCH   3  12
HETATM   12  N1  UNK     1      -0.821   0.659  -0.215  1.00  0.00    -0.383 N 
HETATM   13  H3  UNK     1      -1.679   0.601  -0.747  1.00  0.00     0.160 HD
BRANCH  12  14
HETATM   14  C3  UNK     1      -0.836   0.294   1.187  1.00  0.00     0.158 C 
BRANCH  14  15
HETATM   15  C6  UNK     1      -2.036  -0.553   1.513  1.00  0.00    -0.038 A 
HETATM   16  C11 UNK     1      -1.948  -1.935   1.408  1.00  0.00     0.051 A 
HETATM   17  C14 UNK     1      -3.060  -2.720   1.709  1.00  0.00     0.117 A 
HETATM   18  F1  UNK     1      -2.985  -4.054   1.612  1.00  0.00    -0.206 F 
HETATM   19  C16 UNK     1      -4.251  -2.116   2.113  1.00  0.00     0.042 A 
HETATM   20  C15 UNK     1      -4.329  -0.728   2.216  1.00  0.00     0.004 A 
HETATM   21  C12 UNK     1      -3.217   0.058   1.914  1.00  0.00     0.009 A 
ENDBRANCH  14  15
ENDBRANCH  12  14
ENDBRANCH   3  12
BRANCH   6  22
HETATM   22  N2  UNK     1      -0.545   0.555  -3.014  1.00  0.00    -0.107 N 
HETATM   23  O3  UNK     1      -1.634   0.399  -2.451  1.00  0.00    -0.531 OA
HETATM   24  O4  UNK     1      -0.346   0.521  -4.234  1.00  0.00    -0.531 OA
ENDBRANCH   6  22
TORSDOF 4
