REMARK  3 active torsions:
REMARK  status: ('A' for Active; 'I' for Inactive)
REMARK    1  A    between atoms: C17_25  and  O4_4 
REMARK       I    between atoms: C6_14  and  N1_7 
REMARK    2  A    between atoms: C18_26  and  N2_8 
REMARK    3  A    between atoms: C6_14  and  C9_17 
ROOT
HETATM    1  O2  UNK     1      -2.004  -1.099  -1.289  1.00  0.00    -0.271 OA
HETATM    2  O3  UNK     1      -0.535  -0.660  -2.983  1.00  0.00    -0.259 OA
HETATM    3  C9  UNK     1       0.322  -0.544  -0.778  1.00  0.00     0.108 A 
HETATM    4  C12 UNK     1       0.090  -0.660   0.535  1.00  0.00     0.037 A 
HETATM    5  C13 UNK     1      -1.237  -1.010   1.017  1.00  0.00     0.004 A 
HETATM    6  C14 UNK     1      -0.744  -0.765  -1.780  1.00  0.00     0.304 A 
HETATM    7  C15 UNK     1      -2.255  -1.221   0.092  1.00  0.00     0.123 A 
HETATM    8  C16 UNK     1      -1.526  -1.140   2.377  1.00  0.00     0.050 A 
HETATM    9  C17 UNK     1      -3.547  -1.559   0.487  1.00  0.00     0.105 A 
HETATM   10  C18 UNK     1      -2.818  -1.479   2.789  1.00  0.00     0.106 A 
HETATM   11  C19 UNK     1      -3.826  -1.688   1.846  1.00  0.00     0.075 A 
ENDROOT
BRANCH   3  12
HETATM   12  C6  UNK     1       1.702  -0.185  -1.168  1.00  0.00     0.264 C 
HETATM   13  O1  UNK     1       2.493  -1.111  -1.346  1.00  0.00    -0.267 OA
HETATM   14  N1  UNK     1       1.985   1.168  -1.279  1.00  0.00    -0.308 N 
HETATM   15  C1  UNK     1       1.057   2.323  -1.071  1.00  0.00     0.093 C 
HETATM   16  C4  UNK     1       3.252   1.698  -1.630  1.00  0.00     0.044 A 
HETATM   17  C2  UNK     1       1.949   3.573  -0.927  1.00  0.00     0.066 C 
HETATM   18  C5  UNK     1       0.101   2.479  -2.259  1.00  0.00     0.033 C 
HETATM   19  C3  UNK     1       3.249   3.088  -1.482  1.00  0.00    -0.029 A 
HETATM   20  C7  UNK     1       4.375   3.848  -1.759  1.00  0.00     0.009 A 
HETATM   21  C10 UNK     1       5.524   3.194  -2.204  1.00  0.00     0.001 A 
HETATM   22  C11 UNK     1       5.533   1.800  -2.352  1.00  0.00     0.002 A 
HETATM   23  C8  UNK     1       4.395   1.041  -2.061  1.00  0.00     0.030 A 
ENDBRANCH   3  12
BRANCH   9  24
HETATM   24  O4  UNK     1      -4.533  -1.763  -0.428  1.00  0.00    -0.353 OA
HETATM   25  C20 UNK     1      -5.309  -0.629  -0.811  1.00  0.00     0.210 C 
ENDBRANCH   9  24
BRANCH  10  26
HETATM   26  N2  UNK     1      -3.106  -1.612   4.174  1.00  0.00    -0.116 N 
HETATM   27  O5  UNK     1      -2.188  -1.421   5.007  1.00  0.00    -0.532 OA
HETATM   28  O6  UNK     1      -4.272  -1.916   4.525  1.00  0.00    -0.532 OA
ENDBRANCH  10  26
TORSDOF 3
