REMARK  2 active torsions:
REMARK  status: ('A' for Active; 'I' for Inactive)
REMARK    1  A    between atoms: C8_14  and  N1_5 
REMARK    2  A    between atoms: C1_7  and  C3_9 
ROOT
HETATM    1  O1  UNK     1       1.402  -0.474   1.842  1.00  0.00    -0.269 OA
HETATM    2  O2  UNK     1       2.669   0.384   0.066  1.00  0.00    -0.286 OA
HETATM    3  O3  UNK     1      -0.619   2.097  -1.611  1.00  0.00    -0.287 OA
HETATM    4  N2  UNK     1      -3.026  -0.106   3.704  1.00  0.00    -0.191 NA
HETATM    5  C1  UNK     1      -1.059   0.555   0.795  1.00  0.00     0.109 C 
HETATM    6  C2  UNK     1       0.286   0.752   0.131  1.00  0.00     0.065 A 
HETATM    7  C4  UNK     1      -0.926  -0.049   2.186  1.00  0.00     0.086 C 
HETATM    8  C5  UNK     1       1.419   0.244   0.652  1.00  0.00     0.204 A 
HETATM    9  C6  UNK     1       0.363   1.557  -1.117  1.00  0.00     0.197 A 
HETATM   10  C7  UNK     1       1.690   1.678  -1.735  1.00  0.00     0.049 A 
HETATM   11  C8  UNK     1       0.256  -0.528   2.633  1.00  0.00     0.162 C 
HETATM   12  C9  UNK     1       2.778   1.080  -1.108  1.00  0.00     0.092 A 
HETATM   13  C12 UNK     1       1.863   2.380  -2.931  1.00  0.00     0.018 A 
HETATM   14  C13 UNK     1       4.050   1.178  -1.673  1.00  0.00     0.038 A 
HETATM   15  C16 UNK     1      -2.086  -0.080   3.024  1.00  0.00     0.100 C 
HETATM   16  C17 UNK     1       3.136   2.478  -3.495  1.00  0.00     0.001 A 
HETATM   17  C19 UNK     1       4.228   1.878  -2.867  1.00  0.00     0.003 A 
ENDROOT
BRANCH   5  18
HETATM   18  C3  UNK     1      -1.947  -0.301  -0.060  1.00  0.00    -0.043 A 
HETATM   19  C10 UNK     1      -1.573  -1.609  -0.348  1.00  0.00     0.032 A 
HETATM   20  C14 UNK     1      -2.399  -2.404  -1.142  1.00  0.00     0.034 A 
HETATM   21 Cl1  UNK     1      -1.945  -4.024  -1.504  1.00  0.00    -0.084 Cl
HETATM   22  C18 UNK     1      -3.594  -1.887  -1.642  1.00  0.00     0.024 A 
HETATM   23  C15 UNK     1      -3.963  -0.574  -1.349  1.00  0.00     0.002 A 
HETATM   24  C11 UNK     1      -3.137   0.222  -0.555  1.00  0.00     0.008 A 
ENDBRANCH   5  18
BRANCH  11  25
HETATM   25  N1  UNK     1       0.462  -1.099   3.859  1.00  0.00    -0.379 N 
HETATM   26  H10 UNK     1      -0.297  -1.197   4.521  1.00  0.00     0.158 HD
HETATM   27  H11 UNK     1       1.389  -1.428   4.095  1.00  0.00     0.158 HD
ENDBRANCH  11  25
TORSDOF 2
