REMARK  8 active torsions:
REMARK  status: ('A' for Active; 'I' for Inactive)
REMARK    1  A    between atoms: C11_18  and  O2_2 
REMARK    2  A    between atoms: C19_26  and  O3_3 
REMARK    3  A    between atoms: C24_31  and  O3_3 
REMARK    4  A    between atoms: C5_12  and  N1_6 
REMARK    5  A    between atoms: C6_13  and  N2_7 
REMARK    6  A    between atoms: C5_12  and  C7_14 
REMARK    7  A    between atoms: C6_13  and  C8_15 
REMARK    8  A    between atoms: C15_22  and  C22_29 
ROOT
HETATM    1  N1  UNK     1      -0.155  -0.985  -0.085  1.00  0.00     0.096 N 
HETATM    2  N2  UNK     1       2.288   0.526  -0.415  1.00  0.00     0.096 N 
HETATM    3  C1  UNK     1       0.042  -0.096  -1.236  1.00  0.00     0.303 C 
HETATM    4  C2  UNK     1       1.135  -1.509   0.384  1.00  0.00     0.303 C 
HETATM    5  C3  UNK     1       0.999   1.048  -0.884  1.00  0.00     0.303 C 
HETATM    6  C4  UNK     1       2.093  -0.365   0.735  1.00  0.00     0.303 C 
ENDROOT
BRANCH   1   7
HETATM    7  C5  UNK     1      -1.066  -2.077  -0.421  1.00  0.00     0.312 C 
BRANCH   7   8
HETATM    8  C7  UNK     1      -2.489  -1.636  -0.437  1.00  0.00    -0.011 A 
HETATM    9  C10 UNK     1      -3.056  -1.165  -1.556  1.00  0.00     0.092 A 
HETATM   10  C16 UNK     1      -4.458  -0.718  -1.620  1.00  0.00     0.288 A 
HETATM   11  O1  UNK     1      -5.193  -0.803  -0.448  1.00  0.00    -0.275 OA
HETATM   12  O4  UNK     1      -4.943  -0.293  -2.663  1.00  0.00    -0.260 OA
HETATM   13  C13 UNK     1      -4.624  -1.293   0.745  1.00  0.00     0.090 A 
HETATM   14  C9  UNK     1      -3.294  -1.713   0.790  1.00  0.00     0.009 A 
HETATM   15  C18 UNK     1      -5.457  -1.332   1.864  1.00  0.00     0.041 A 
HETATM   16  C14 UNK     1      -2.803  -2.186   2.015  1.00  0.00     0.051 A 
HETATM   17  C19 UNK     1      -3.626  -2.231   3.146  1.00  0.00     0.069 A 
HETATM   18  C21 UNK     1      -4.951  -1.805   3.070  1.00  0.00     0.039 A 
BRANCH  17  19
HETATM   19  O3  UNK     1      -3.130  -2.694   4.326  1.00  0.00    -0.351 OA
BRANCH  19  20
HETATM   20  C24 UNK     1      -3.689  -2.153   5.522  1.00  0.00     0.171 C 
HETATM   21  C25 UNK     1      -2.638  -2.175   6.611  1.00  0.00     0.034 C 
ENDBRANCH  19  20
ENDBRANCH  17  19
ENDBRANCH   7   8
ENDBRANCH   1   7
BRANCH   2  22
HETATM   22  C6  UNK     1       3.199   1.618  -0.077  1.00  0.00     0.314 C 
BRANCH  22  23
HETATM   23  C8  UNK     1       3.795   2.251  -1.305  1.00  0.00     0.004 A 
HETATM   24  C11 UNK     1       3.867   3.639  -1.428  1.00  0.00     0.076 A 
HETATM   25  C17 UNK     1       4.425   4.210  -2.572  1.00  0.00     0.038 A 
HETATM   26  C20 UNK     1       4.910   3.394  -3.593  1.00  0.00     0.017 A 
HETATM   27  C15 UNK     1       4.838   2.006  -3.471  1.00  0.00     0.002 A 
HETATM   28  C12 UNK     1       4.281   1.435  -2.327  1.00  0.00     0.026 A 
BRANCH  24  29
HETATM   29  O2  UNK     1       3.398   4.450  -0.439  1.00  0.00    -0.355 OA
HETATM   30  C23 UNK     1       3.512   5.857  -0.647  1.00  0.00     0.210 C 
ENDBRANCH  24  29
BRANCH  27  31
HETATM   31  C22 UNK     1       5.343   1.156  -4.537  1.00  0.00     0.269 C 
HETATM   32  O5  UNK     1       5.309  -0.077  -4.488  1.00  0.00    -0.301 OA
ENDBRANCH  27  31
ENDBRANCH  22  23
ENDBRANCH   2  22
TORSDOF 8
