REMARK  3 active torsions:
REMARK  status: ('A' for Active; 'I' for Inactive)
REMARK    1  A    between atoms: C17_22  and  O3_3 
REMARK    2  A    between atoms: C21_26  and  O3_3 
REMARK       I    between atoms: C8_13  and  N1_5 
REMARK    3  A    between atoms: C11_16  and  C8_13 
ROOT
HETATM    1  O2  UNK     1       1.670   2.232  -0.766  1.00  0.00    -0.271 OA
HETATM    2  O4  UNK     1      -0.079   2.522   0.676  1.00  0.00    -0.259 OA
HETATM    3  C11 UNK     1      -0.276   0.756  -0.891  1.00  0.00     0.108 A 
HETATM    4  C13 UNK     1       0.270   0.078  -1.907  1.00  0.00     0.037 A 
HETATM    5  C14 UNK     1       1.579   0.452  -2.420  1.00  0.00     0.002 A 
HETATM    6  C15 UNK     1       0.419   1.898  -0.255  1.00  0.00     0.304 A 
HETATM    7  C16 UNK     1       2.249   1.522  -1.836  1.00  0.00     0.123 A 
HETATM    8  C17 UNK     1       3.506   1.931  -2.279  1.00  0.00     0.103 A 
HETATM    9  C18 UNK     1       2.187  -0.227  -3.479  1.00  0.00     0.014 A 
HETATM   10  C19 UNK     1       4.104   1.249  -3.335  1.00  0.00     0.040 A 
HETATM   11  C20 UNK     1       3.447   0.172  -3.934  1.00  0.00     0.004 A 
ENDROOT
BRANCH   3  12
HETATM   12  C8  UNK     1      -1.611   0.299  -0.441  1.00  0.00     0.264 C 
HETATM   13  O1  UNK     1      -2.588   0.818  -0.980  1.00  0.00    -0.267 OA
HETATM   14  N1  UNK     1      -1.629  -0.680   0.566  1.00  0.00    -0.313 N 
HETATM   15  C3  UNK     1      -0.377  -1.223   1.130  1.00  0.00     0.133 C 
HETATM   16  C5  UNK     1      -2.864  -1.204   1.114  1.00  0.00     0.044 A 
HETATM   17  C1  UNK     1      -0.457  -1.423   2.634  1.00  0.00     0.025 C 
HETATM   18  C2  UNK     1      -1.561  -2.409   2.955  1.00  0.00     0.043 C 
HETATM   19  C4  UNK     1      -2.844  -2.029   2.263  1.00  0.00    -0.025 A 
HETATM   20  C6  UNK     1      -4.041  -2.561   2.778  1.00  0.00    -0.053 A 
HETATM   21  C12 UNK     1      -4.053  -3.456   3.978  1.00  0.00     0.049 C 
HETATM   22  C9  UNK     1      -5.262  -2.282   2.176  1.00  0.00     0.007 A 
HETATM   23  C10 UNK     1      -5.296  -1.483   1.042  1.00  0.00     0.003 A 
HETATM   24  C7  UNK     1      -4.112  -0.958   0.513  1.00  0.00     0.030 A 
ENDBRANCH   3  12
BRANCH   8  25
HETATM   25  O3  UNK     1       4.150   2.979  -1.699  1.00  0.00    -0.349 OA
BRANCH  25  26
HETATM   26  C21 UNK     1       5.577   2.947  -1.701  1.00  0.00     0.171 C 
HETATM   27  C22 UNK     1       6.089   3.692  -0.487  1.00  0.00     0.034 C 
ENDBRANCH  25  26
ENDBRANCH   8  25
TORSDOF 3
