REMARK  4 active torsions:
REMARK  status: ('A' for Active; 'I' for Inactive)
REMARK    1  A    between atoms: C11_18  and  O2_2 
REMARK    2  A    between atoms: C9_16  and  O2_2 
REMARK    3  A    between atoms: C14_21  and  N1_7 
REMARK    4  A    between atoms: C4_11  and  C9_16 
ROOT
HETATM    1  O4  UNK     1       0.664  -0.859   0.946  1.00  0.00    -0.259 OA
HETATM    2  C9  UNK     1       0.273  -0.148   0.034  1.00  0.00     0.304 C 
ENDROOT
BRANCH   2   3
HETATM    3  C4  UNK     1       1.172   0.576  -0.873  1.00  0.00     0.116 A 
HETATM    4  C3  UNK     1       2.350   0.953  -0.362  1.00  0.00     0.038 A 
HETATM    5  C1  UNK     1       3.308   1.677  -1.183  1.00  0.00    -0.001 A 
HETATM    6  C2  UNK     1       2.979   1.968  -2.503  1.00  0.00     0.089 A 
HETATM    7  C5  UNK     1       4.548   2.090  -0.691  1.00  0.00     0.014 A 
HETATM    8  O1  UNK     1       1.738   1.568  -3.036  1.00  0.00    -0.274 OA
HETATM    9  C6  UNK     1       3.851   2.658  -3.342  1.00  0.00     0.038 A 
HETATM   10  C7  UNK     1       0.801   0.874  -2.275  1.00  0.00     0.304 A 
HETATM   11  O3  UNK     1      -0.278   0.531  -2.747  1.00  0.00    -0.259 OA
HETATM   12  C10 UNK     1       5.086   3.066  -2.843  1.00  0.00     0.003 A 
HETATM   13  C8  UNK     1       5.434   2.783  -1.521  1.00  0.00     0.001 A 
ENDBRANCH   2   3
BRANCH   2  14
HETATM   14  O2  UNK     1      -1.027   0.130  -0.343  1.00  0.00    -0.275 OA
BRANCH  14  15
HETATM   15  C11 UNK     1      -1.965  -0.517   0.464  1.00  0.00     0.079 A 
HETATM   16  C12 UNK     1      -2.423   0.127   1.593  1.00  0.00     0.040 A 
HETATM   17  C15 UNK     1      -3.361  -0.519   2.398  1.00  0.00     0.039 A 
HETATM   18  C14 UNK     1      -3.818  -1.791   2.055  1.00  0.00     0.103 A 
HETATM   19  C16 UNK     1      -3.336  -2.418   0.906  1.00  0.00     0.039 A 
HETATM   20  C13 UNK     1      -2.398  -1.773   0.100  1.00  0.00     0.040 A 
BRANCH  18  21
HETATM   21  N1  UNK     1      -4.775  -2.447   2.874  1.00  0.00    -0.116 N 
HETATM   22  O5  UNK     1      -5.192  -1.860   3.899  1.00  0.00    -0.532 OA
HETATM   23  O6  UNK     1      -5.168  -3.590   2.543  1.00  0.00    -0.532 OA
ENDBRANCH  18  21
ENDBRANCH  14  15
ENDBRANCH   2  14
TORSDOF 4
