REMARK  4 active torsions:
REMARK  status: ('A' for Active; 'I' for Inactive)
REMARK    1  A    between atoms: C5_10  and  N1_4 
REMARK       I    between atoms: C7_12  and  N2_5 
REMARK    2  A    between atoms: C5_10  and  C6_11 
REMARK    3  A    between atoms: C6_11  and  C8_13 
REMARK    4  A    between atoms: C7_12  and  C9_14 
ROOT
HETATM    1  O1  UNK     1       0.589   0.135  -3.988  1.00  0.00    -0.267 OA
HETATM    2  N1  UNK     1      -2.561  -0.384  -0.158  1.00  0.00     0.091 N 
HETATM    3  N2  UNK     1      -0.424   0.399  -1.910  1.00  0.00    -0.344 N 
HETATM    4  C1  UNK     1      -1.196  -0.234   0.362  1.00  0.00     0.292 C 
HETATM    5  C2  UNK     1      -2.525  -0.862  -1.547  1.00  0.00     0.292 C 
HETATM    6  C3  UNK     1      -0.384   0.750  -0.485  1.00  0.00     0.156 C 
HETATM    7  C4  UNK     1      -1.763   0.122  -2.431  1.00  0.00     0.156 C 
HETATM    8  C7  UNK     1       0.652   0.435  -2.794  1.00  0.00     0.260 C 
ENDROOT
BRANCH   8   9
HETATM    9  C9  UNK     1       1.960   0.872  -2.267  1.00  0.00     0.108 A 
HETATM   10  C10 UNK     1       2.217   2.184  -2.334  1.00  0.00     0.037 A 
HETATM   11  C14 UNK     1       3.479   2.711  -1.840  1.00  0.00    -0.001 A 
HETATM   12  C15 UNK     1       4.411   1.830  -1.300  1.00  0.00     0.089 A 
HETATM   13  C19 UNK     1       3.789   4.072  -1.890  1.00  0.00     0.014 A 
HETATM   14  O2  UNK     1       4.135   0.450  -1.233  1.00  0.00    -0.274 OA
HETATM   15  C20 UNK     1       5.639   2.270  -0.810  1.00  0.00     0.038 A 
HETATM   16  C13 UNK     1       2.936  -0.083  -1.696  1.00  0.00     0.304 A 
HETATM   17  O3  UNK     1       2.705  -1.286  -1.633  1.00  0.00    -0.259 OA
HETATM   18  C22 UNK     1       5.940   3.629  -0.863  1.00  0.00     0.003 A 
HETATM   19  C21 UNK     1       5.017   4.529  -1.402  1.00  0.00     0.001 A 
ENDBRANCH   8   9
BRANCH   2  20
HETATM   20  C5  UNK     1      -3.333  -1.302   0.680  1.00  0.00     0.277 C 
BRANCH  20  21
HETATM   21  C6  UNK     1      -3.462  -0.810   2.120  1.00  0.00     0.068 C 
BRANCH  21  22
HETATM   22  C8  UNK     1      -4.232  -1.763   3.000  1.00  0.00    -0.057 A 
HETATM   23  C11 UNK     1      -5.607  -1.626   3.112  1.00  0.00     0.007 A 
HETATM   24  C16 UNK     1      -6.320  -2.507   3.925  1.00  0.00     0.001 A 
HETATM   25  C18 UNK     1      -5.649  -3.515   4.617  1.00  0.00     0.000 A 
HETATM   26  C17 UNK     1      -4.264  -3.642   4.496  1.00  0.00     0.001 A 
HETATM   27  C12 UNK     1      -3.552  -2.760   3.682  1.00  0.00     0.007 A 
ENDBRANCH  21  22
ENDBRANCH  20  21
ENDBRANCH   2  20
TORSDOF 4
