REMARK  3 active torsions:
REMARK  status: ('A' for Active; 'I' for Inactive)
REMARK    1  A    between atoms: C5_9  and  O2_2 
REMARK    2  A    between atoms: C11_15  and  O3_3 
REMARK    3  A    between atoms: C1_5  and  C3_7 
ROOT
HETATM    1  O1  UNK     1       0.589  -1.694  -0.104  1.00  0.00    -0.306 OA
HETATM    2  O4  UNK     1       0.903  -3.407   3.580  1.00  0.00    -0.284 OA
HETATM    3  C1  UNK     1       0.586  -0.929   1.052  1.00  0.00     0.123 A 
HETATM    4  C2  UNK     1       0.831  -3.700   1.241  1.00  0.00     0.051 A 
HETATM    5  C4  UNK     1       0.717  -3.054   0.012  1.00  0.00     0.090 A 
HETATM    6  C5  UNK     1       0.680  -1.429   2.298  1.00  0.00     0.152 A 
HETATM    7  C6  UNK     1       0.813  -2.895   2.472  1.00  0.00     0.220 A 
HETATM    8  C8  UNK     1       0.959  -5.090   1.298  1.00  0.00     0.018 A 
HETATM    9  C10 UNK     1       0.729  -3.795  -1.170  1.00  0.00     0.038 A 
HETATM   10  C12 UNK     1       0.971  -5.829   0.115  1.00  0.00     0.001 A 
HETATM   11  C13 UNK     1       0.856  -5.183  -1.117  1.00  0.00     0.003 A 
ENDROOT
BRANCH   3  12
HETATM   12  C3  UNK     1       0.444   0.513   0.787  1.00  0.00     0.003 A 
HETATM   13  C7  UNK     1      -0.825   1.087   0.708  1.00  0.00     0.051 A 
HETATM   14  C11 UNK     1      -0.959   2.453   0.457  1.00  0.00     0.069 A 
HETATM   15  C15 UNK     1       0.176   3.245   0.285  1.00  0.00     0.037 A 
HETATM   16  C14 UNK     1       1.445   2.672   0.364  1.00  0.00     0.004 A 
HETATM   17  C9  UNK     1       1.579   1.306   0.615  1.00  0.00     0.014 A 
BRANCH  14  18
HETATM   18  O3  UNK     1      -2.197   3.012   0.379  1.00  0.00    -0.356 OA
HETATM   19  C16 UNK     1      -2.262   4.414   0.119  1.00  0.00     0.210 C 
ENDBRANCH  14  18
ENDBRANCH   3  12
BRANCH   6  20
HETATM   20  O2  UNK     1       0.641  -0.642   3.429  1.00  0.00    -0.355 OA
HETATM   21  H9  UNK     1       0.548   0.291   3.178  1.00  0.00     0.218 HD
ENDBRANCH   6  20
TORSDOF 3
