REMARK  7 active torsions:
REMARK  status: ('A' for Active; 'I' for Inactive)
REMARK    1  A    between atoms: C18_25  and  O3_3 
REMARK    2  A    between atoms: C26_33  and  O3_3 
REMARK    3  A    between atoms: C5_12  and  N1_5 
REMARK    4  A    between atoms: C6_13  and  N2_6 
REMARK    5  A    between atoms: C5_12  and  C7_14 
REMARK    6  A    between atoms: C6_13  and  C8_15 
REMARK    7  A    between atoms: C14_21  and  C19_26 
ROOT
HETATM    1  N1  UNK     1      -1.347  -1.382  -0.018  1.00  0.00     0.096 N 
HETATM    2  N2  UNK     1      -0.114   0.082  -2.185  1.00  0.00     0.097 N 
HETATM    3  C1  UNK     1      -1.585  -1.750  -1.419  1.00  0.00     0.303 C 
HETATM    4  C2  UNK     1      -0.020  -0.772   0.133  1.00  0.00     0.303 C 
HETATM    5  C3  UNK     1      -1.440  -0.530  -2.335  1.00  0.00     0.303 C 
HETATM    6  C4  UNK     1       0.126   0.448  -0.784  1.00  0.00     0.303 C 
ENDROOT
BRANCH   1   7
HETATM    7  C5  UNK     1      -1.485  -2.546   0.855  1.00  0.00     0.312 C 
BRANCH   7   8
HETATM    8  C7  UNK     1      -1.795  -2.162   2.260  1.00  0.00    -0.011 A 
HETATM    9  C11 UNK     1      -0.816  -1.940   3.149  1.00  0.00     0.092 A 
HETATM   10  C15 UNK     1      -1.073  -1.559   4.548  1.00  0.00     0.288 A 
HETATM   11  O2  UNK     1      -2.401  -1.432   4.925  1.00  0.00    -0.275 OA
HETATM   12  O4  UNK     1      -0.153  -1.365   5.334  1.00  0.00    -0.260 OA
HETATM   13  C12 UNK     1      -3.451  -1.659   4.013  1.00  0.00     0.090 A 
HETATM   14  C9  UNK     1      -3.192  -2.021   2.690  1.00  0.00     0.009 A 
HETATM   15  C17 UNK     1      -4.749  -1.504   4.503  1.00  0.00     0.041 A 
HETATM   16  C13 UNK     1      -4.292  -2.229   1.847  1.00  0.00     0.051 A 
HETATM   17  C18 UNK     1      -5.599  -2.078   2.324  1.00  0.00     0.069 A 
HETATM   18  C20 UNK     1      -5.827  -1.715   3.650  1.00  0.00     0.039 A 
BRANCH  17  19
HETATM   19  O3  UNK     1      -6.653  -2.285   1.487  1.00  0.00    -0.351 OA
BRANCH  19  20
HETATM   20  C26 UNK     1      -6.448  -2.005   0.104  1.00  0.00     0.171 C 
HETATM   21  C28 UNK     1      -7.765  -1.585  -0.514  1.00  0.00     0.034 C 
ENDBRANCH  19  20
ENDBRANCH  17  19
ENDBRANCH   7   8
ENDBRANCH   1   7
BRANCH   2  22
HETATM   22  C6  UNK     1       0.023   1.247  -3.057  1.00  0.00     0.334 C 
BRANCH  22  23
HETATM   23  C8  UNK     1       1.473   1.501  -3.315  1.00  0.00     0.095 A 
HETATM   24  C10 UNK     1       2.270   1.013  -4.320  1.00  0.00     0.078 A 
HETATM   25  O1  UNK     1       3.522   1.522  -4.147  1.00  0.00    -0.294 OA
HETATM   26  C16 UNK     1       2.066   0.118  -5.463  1.00  0.00     0.079 C 
HETATM   27  C14 UNK     1       3.400   2.296  -3.033  1.00  0.00     0.180 A 
HETATM   28  N3  UNK     1       2.202   2.323  -2.494  1.00  0.00    -0.224 NA
BRANCH  27  29
HETATM   29  C19 UNK     1       4.601   2.965  -2.619  1.00  0.00     0.017 A 
HETATM   30  C21 UNK     1       4.589   3.785  -1.490  1.00  0.00     0.016 A 
HETATM   31  C23 UNK     1       5.756   4.435  -1.088  1.00  0.00     0.007 A 
HETATM   32  C25 UNK     1       6.934   4.266  -1.814  1.00  0.00    -0.062 A 
HETATM   33  C24 UNK     1       6.946   3.447  -2.943  1.00  0.00     0.007 A 
HETATM   34  C27 UNK     1       8.181   4.962  -1.384  1.00  0.00     0.048 C 
HETATM   35  C22 UNK     1       5.780   2.796  -3.345  1.00  0.00     0.016 A 
ENDBRANCH  27  29
ENDBRANCH  22  23
ENDBRANCH   2  22
TORSDOF 7
