REMARK  7 active torsions:
REMARK  status: ('A' for Active; 'I' for Inactive)
REMARK    1  A    between atoms: C11_21  and  N1_7 
REMARK    2  A    between atoms: C4_14  and  N1_7 
REMARK    3  A    between atoms: C11_21  and  N2_8 
REMARK    4  A    between atoms: N2_8  and  N4_10 
REMARK    5  A    between atoms: C12_22  and  N3_9 
REMARK    6  A    between atoms: C15_25  and  N3_9 
REMARK    7  A    between atoms: C15_25  and  N4_10 
ROOT
HETATM    1  N2  UNK     1      -0.902   0.232  -2.917  1.00  0.00    -0.274 N 
HETATM    2  H9  UNK     1      -0.904   0.717  -2.026  1.00  0.00     0.189 HD
ENDROOT
BRANCH   1   3
HETATM    3  C11 UNK     1      -1.926  -0.619  -3.267  1.00  0.00     0.191 C 
HETATM    4  S1  UNK     1      -2.083  -1.356  -4.778  1.00  0.00    -0.039 SA
BRANCH   3   5
HETATM    5  N1  UNK     1      -2.926  -0.839  -2.321  1.00  0.00    -0.332 N 
HETATM    6  H8  UNK     1      -3.839  -1.037  -2.726  1.00  0.00     0.168 HD
BRANCH   5   7
HETATM    7  C4  UNK     1      -2.914  -0.861  -0.926  1.00  0.00     0.037 A 
HETATM    8  C6  UNK     1      -1.758  -1.226  -0.244  1.00  0.00     0.067 A 
HETATM    9  C2  UNK     1      -1.767  -1.240   1.152  1.00  0.00     0.092 A 
HETATM   10  C1  UNK     1      -2.899  -0.900   1.894  1.00  0.00     0.004 A 
HETATM   11  O1  UNK     1      -0.567  -1.618   1.787  1.00  0.00    -0.275 OA
HETATM   12  C3  UNK     1      -2.819  -0.942   3.360  1.00  0.00    -0.043 A 
HETATM   13  C5  UNK     1      -4.053  -0.535   1.188  1.00  0.00     0.017 A 
HETATM   14  C8  UNK     1      -1.664  -1.305   3.937  1.00  0.00     0.090 A 
HETATM   15  C9  UNK     1      -4.019  -0.582   4.186  1.00  0.00     0.049 C 
HETATM   16  C10 UNK     1      -0.461  -1.667   3.168  1.00  0.00     0.288 A 
HETATM   17  O2  UNK     1       0.578  -1.994   3.730  1.00  0.00    -0.260 OA
HETATM   18  C7  UNK     1      -4.060  -0.516  -0.212  1.00  0.00     0.030 A 
ENDBRANCH   5   7
ENDBRANCH   3   5
ENDBRANCH   1   3
BRANCH   1  19
HETATM   19  N4  UNK     1       0.012   0.691  -3.846  1.00  0.00    -0.274 N 
HETATM   20  H12 UNK     1      -0.321   0.785  -4.800  1.00  0.00     0.189 HD
BRANCH  19  21
HETATM   21  C15 UNK     1       1.308   1.047  -3.489  1.00  0.00     0.191 C 
HETATM   22  S2  UNK     1       2.308   1.610  -4.711  1.00  0.00    -0.039 SA
BRANCH  21  23
HETATM   23  N3  UNK     1       1.591   0.846  -2.143  1.00  0.00    -0.330 N 
HETATM   24  H10 UNK     1       0.986   0.162  -1.694  1.00  0.00     0.168 HD
BRANCH  23  25
HETATM   25  C12 UNK     1       2.493   1.457  -1.238  1.00  0.00     0.073 A 
HETATM   26  C13 UNK     1       2.579   0.983   0.059  1.00  0.00     0.145 A 
HETATM   27  F1  UNK     1       1.826  -0.046   0.476  1.00  0.00    -0.204 F 
HETATM   28  C16 UNK     1       3.467   1.588   0.949  1.00  0.00     0.086 A 
HETATM   29  C18 UNK     1       4.255   2.659   0.527  1.00  0.00     0.119 A 
HETATM   30  C17 UNK     1       4.155   3.124  -0.784  1.00  0.00     0.044 A 
HETATM   31  F2  UNK     1       5.109   3.239   1.380  1.00  0.00    -0.206 F 
HETATM   32  C14 UNK     1       3.268   2.519  -1.674  1.00  0.00     0.036 A 
ENDBRANCH  23  25
ENDBRANCH  21  23
ENDBRANCH  19  21
ENDBRANCH   1  19
TORSDOF 7
