REMARK  7 active torsions:
REMARK  status: ('A' for Active; 'I' for Inactive)
REMARK    1  A    between atoms: C5_11  and  N1_4 
REMARK    2  A    between atoms: C6_12  and  N2_5 
REMARK    3  A    between atoms: C13_19  and  N3_6 
REMARK    4  A    between atoms: C15_21  and  N3_6 
REMARK       I    between atoms: C8_14  and  N3_6 
REMARK    5  A    between atoms: C5_11  and  C7_13 
REMARK    6  A    between atoms: C6_12  and  C8_14 
REMARK    7  A    between atoms: C14_20  and  C19_25 
ROOT
HETATM    1  N1  UNK     1       1.554  -0.269  -1.430  1.00  0.00     0.096 N 
HETATM    2  N2  UNK     1      -1.053  -1.382  -0.861  1.00  0.00     0.100 N 
HETATM    3  C1  UNK     1       1.108  -0.500  -0.051  1.00  0.00     0.303 C 
HETATM    4  C2  UNK     1       0.919  -1.229  -2.342  1.00  0.00     0.303 C 
HETATM    5  C3  UNK     1      -0.419  -0.420   0.050  1.00  0.00     0.303 C 
HETATM    6  C4  UNK     1      -0.608  -1.151  -2.241  1.00  0.00     0.303 C 
ENDROOT
BRANCH   1   7
HETATM    7  C5  UNK     1       3.010  -0.348  -1.525  1.00  0.00     0.312 C 
BRANCH   7   8
HETATM    8  C7  UNK     1       3.674   0.881  -1.010  1.00  0.00    -0.011 A 
HETATM    9  C10 UNK     1       4.027   0.989   0.279  1.00  0.00     0.092 A 
HETATM   10  C16 UNK     1       4.686   2.183   0.835  1.00  0.00     0.288 A 
HETATM   11  O1  UNK     1       4.937   3.223  -0.046  1.00  0.00    -0.275 OA
HETATM   12  O3  UNK     1       4.995   2.244   2.020  1.00  0.00    -0.260 OA
HETATM   13  C11 UNK     1       4.578   3.138  -1.407  1.00  0.00     0.090 A 
HETATM   14  C9  UNK     1       3.954   2.000  -1.919  1.00  0.00     0.007 A 
HETATM   15  C17 UNK     1       4.879   4.246  -2.202  1.00  0.00     0.039 A 
HETATM   16  C12 UNK     1       3.628   1.996  -3.282  1.00  0.00     0.022 A 
HETATM   17  C14 UNK     1       3.924   3.098  -4.092  1.00  0.00    -0.058 A 
HETATM   18  C18 UNK     1       4.548   4.222  -3.552  1.00  0.00     0.010 A 
BRANCH  17  19
HETATM   19  C19 UNK     1       3.568   3.071  -5.541  1.00  0.00     0.034 C 
HETATM   20  C24 UNK     1       2.168   3.618  -5.805  1.00  0.00     0.010 C 
ENDBRANCH  17  19
ENDBRANCH   7   8
ENDBRANCH   1   7
BRANCH   2  21
HETATM   21  C6  UNK     1      -2.510  -1.305  -0.765  1.00  0.00     0.375 C 
BRANCH  21  22
HETATM   22  C8  UNK     1      -2.973  -2.014   0.501  1.00  0.00     0.252 C 
HETATM   23  O2  UNK     1      -2.354  -2.997   0.916  1.00  0.00    -0.271 OA
HETATM   24  N3  UNK     1      -4.144  -1.490   1.098  1.00  0.00    -0.317 N 
BRANCH  24  25
HETATM   25  C13 UNK     1      -4.840  -0.313   0.556  1.00  0.00     0.128 C 
HETATM   26  C20 UNK     1      -4.312   0.971   1.161  1.00  0.00     0.027 C 
ENDBRANCH  24  25
BRANCH  24  27
HETATM   27  C15 UNK     1      -4.776  -2.156   2.219  1.00  0.00     0.037 A 
HETATM   28  C21 UNK     1      -5.477  -1.412   3.168  1.00  0.00     0.036 A 
HETATM   29  C23 UNK     1      -6.086  -2.053   4.247  1.00  0.00    -0.060 A 
HETATM   30  C26 UNK     1      -5.994  -3.439   4.377  1.00  0.00     0.007 A 
HETATM   31  C27 UNK     1      -6.834  -1.257   5.262  1.00  0.00     0.048 C 
HETATM   32  C25 UNK     1      -5.294  -4.183   3.427  1.00  0.00     0.003 A 
HETATM   33  C22 UNK     1      -4.685  -3.542   2.349  1.00  0.00     0.030 A 
ENDBRANCH  24  27
ENDBRANCH  21  22
ENDBRANCH   2  21
TORSDOF 7
