REMARK  7 active torsions:
REMARK  status: ('A' for Active; 'I' for Inactive)
REMARK    1  A    between atoms: C4_8  and  N1_4 
REMARK       I    between atoms: C9_13  and  N1_4 
REMARK    2  A    between atoms: C1_5  and  C2_6 
REMARK    3  A    between atoms: C1_5  and  C3_7 
REMARK    4  A    between atoms: C1_5  and  C4_8 
REMARK    5  A    between atoms: C2_6  and  C5_9 
REMARK    6  A    between atoms: C5_9  and  C6_10 
REMARK    7  A    between atoms: C10_14  and  C9_13 
ROOT
HETATM    1  O2  UNK     1       0.615  -1.085  -1.851  1.00  0.00    -0.267 OA
HETATM    2  N1  UNK     1       1.758   0.001  -0.133  1.00  0.00    -0.356 N 
HETATM    3  C9  UNK     1       0.657  -0.589  -0.730  1.00  0.00     0.257 C 
HETATM    4  H15 UNK     1       1.700   0.320   0.829  1.00  0.00     0.162 HD
ENDROOT
BRANCH   3   5
HETATM    5  C10 UNK     1      -0.538  -0.583   0.134  1.00  0.00     0.108 A 
HETATM    6  C11 UNK     1      -1.396  -1.595  -0.037  1.00  0.00     0.037 A 
HETATM    7  C12 UNK     1      -2.604  -1.675   0.769  1.00  0.00    -0.001 A 
HETATM    8  C14 UNK     1      -2.850  -0.684   1.715  1.00  0.00     0.089 A 
HETATM    9  C15 UNK     1      -3.528  -2.713   0.626  1.00  0.00     0.014 A 
HETATM   10  O1  UNK     1      -1.942   0.378   1.890  1.00  0.00    -0.274 OA
HETATM   11  C16 UNK     1      -3.988  -0.702   2.518  1.00  0.00     0.038 A 
HETATM   12  C13 UNK     1      -0.778   0.482   1.134  1.00  0.00     0.304 A 
HETATM   13  O3  UNK     1       0.006   1.411   1.292  1.00  0.00    -0.259 OA
HETATM   14  C18 UNK     1      -4.904  -1.741   2.369  1.00  0.00     0.003 A 
HETATM   15  C17 UNK     1      -4.675  -2.745   1.425  1.00  0.00     0.001 A 
ENDBRANCH   3   5
BRANCH   2  16
HETATM   16  C4  UNK     1       3.037   0.111  -0.780  1.00  0.00     0.127 C 
BRANCH  16  17
HETATM   17  C1  UNK     1       3.521   1.561  -0.954  1.00  0.00     0.003 C 
BRANCH  17  18
HETATM   18  C2  UNK     1       2.609   2.404  -1.877  1.00  0.00     0.006 C 
BRANCH  18  19
HETATM   19  C5  UNK     1       2.380   1.857  -3.291  1.00  0.00     0.000 C 
BRANCH  19  20
HETATM   20  C6  UNK     1       1.544   2.782  -4.175  1.00  0.00    -0.005 C 
HETATM   21  C8  UNK     1       1.263   2.149  -5.529  1.00  0.00     0.005 C 
ENDBRANCH  19  20
ENDBRANCH  18  19
ENDBRANCH  17  18
BRANCH  17  22
HETATM   22  C3  UNK     1       3.692   2.303   0.391  1.00  0.00     0.002 C 
HETATM   23  C7  UNK     1       4.651   1.619   1.356  1.00  0.00     0.005 C 
ENDBRANCH  17  22
ENDBRANCH  16  17
ENDBRANCH   2  16
TORSDOF 7
