REMARK  7 active torsions:
REMARK  status: ('A' for Active; 'I' for Inactive)
REMARK    1  A    between atoms: C18_25  and  O3_3 
REMARK    2  A    between atoms: C23_30  and  O3_3 
REMARK    3  A    between atoms: C5_12  and  N1_5 
REMARK    4  A    between atoms: C6_13  and  N2_6 
REMARK    5  A    between atoms: C5_12  and  C7_14 
REMARK    6  A    between atoms: C6_13  and  C8_15 
REMARK    7  A    between atoms: C14_21  and  C20_27 
ROOT
HETATM    1  N1  UNK     1      -1.056  -1.143  -0.232  1.00  0.00     0.096 N 
HETATM    2  N2  UNK     1       0.247   0.389  -2.309  1.00  0.00     0.097 N 
HETATM    3  C1  UNK     1      -1.268  -1.450  -1.652  1.00  0.00     0.303 C 
HETATM    4  C2  UNK     1       0.275  -0.560  -0.027  1.00  0.00     0.303 C 
HETATM    5  C3  UNK     1      -1.084  -0.196  -2.514  1.00  0.00     0.303 C 
HETATM    6  C4  UNK     1       0.460   0.694  -0.889  1.00  0.00     0.303 C 
ENDROOT
BRANCH   1   7
HETATM    7  C5  UNK     1      -1.231  -2.340   0.589  1.00  0.00     0.312 C 
BRANCH   7   8
HETATM    8  C7  UNK     1      -1.567  -2.008   2.001  1.00  0.00    -0.011 A 
HETATM    9  C11 UNK     1      -0.606  -1.838   2.920  1.00  0.00     0.092 A 
HETATM   10  C15 UNK     1      -0.890  -1.510   4.328  1.00  0.00     0.288 A 
HETATM   11  O2  UNK     1      -2.224  -1.379   4.680  1.00  0.00    -0.275 OA
HETATM   12  O4  UNK     1       0.016  -1.362   5.141  1.00  0.00    -0.260 OA
HETATM   13  C12 UNK     1      -3.256  -1.552   3.736  1.00  0.00     0.090 A 
HETATM   14  C9  UNK     1      -2.972  -1.863   2.406  1.00  0.00     0.009 A 
HETATM   15  C17 UNK     1      -4.563  -1.397   4.203  1.00  0.00     0.041 A 
HETATM   16  C13 UNK     1      -4.055  -2.021   1.530  1.00  0.00     0.051 A 
HETATM   17  C18 UNK     1      -5.370  -1.869   1.983  1.00  0.00     0.069 A 
HETATM   18  C19 UNK     1      -5.623  -1.557   3.318  1.00  0.00     0.039 A 
BRANCH  17  19
HETATM   19  O3  UNK     1      -6.408  -2.027   1.116  1.00  0.00    -0.351 OA
BRANCH  19  20
HETATM   20  C23 UNK     1      -7.637  -2.510   1.656  1.00  0.00     0.171 C 
HETATM   21  C27 UNK     1      -8.375  -3.284   0.584  1.00  0.00     0.034 C 
ENDBRANCH  19  20
ENDBRANCH  17  19
ENDBRANCH   7   8
ENDBRANCH   1   7
BRANCH   2  22
HETATM   22  C6  UNK     1       0.420   1.586  -3.130  1.00  0.00     0.334 C 
BRANCH  22  23
HETATM   23  C8  UNK     1       1.879   1.829  -3.345  1.00  0.00     0.095 A 
HETATM   24  C10 UNK     1       2.692   1.370  -4.351  1.00  0.00     0.078 A 
HETATM   25  C16 UNK     1       2.501   0.525  -5.534  1.00  0.00     0.079 C 
HETATM   26  O1  UNK     1       3.946   1.853  -4.129  1.00  0.00    -0.294 OA
HETATM   27  C14 UNK     1       3.810   2.582  -2.988  1.00  0.00     0.180 A 
HETATM   28  N3  UNK     1       2.601   2.605  -2.475  1.00  0.00    -0.224 NA
BRANCH  27  29
HETATM   29  C20 UNK     1       5.011   3.216  -2.520  1.00  0.00     0.017 A 
HETATM   30  C21 UNK     1       6.203   3.058  -3.227  1.00  0.00     0.016 A 
HETATM   31  C24 UNK     1       7.370   3.673  -2.772  1.00  0.00     0.001 A 
HETATM   32  C26 UNK     1       7.345   4.445  -1.611  1.00  0.00     0.000 A 
HETATM   33  C25 UNK     1       6.153   4.603  -0.904  1.00  0.00     0.001 A 
HETATM   34  C22 UNK     1       4.986   3.988  -1.358  1.00  0.00     0.016 A 
ENDBRANCH  27  29
ENDBRANCH  22  23
ENDBRANCH   2  22
TORSDOF 7
