REMARK  5 active torsions:
REMARK  status: ('A' for Active; 'I' for Inactive)
REMARK    1  A    between atoms: C14_21  and  O2_2 
REMARK    2  A    between atoms: C16_23  and  O2_2 
REMARK    3  A    between atoms: C1_8  and  C11_18 
REMARK    4  A    between atoms: C16_23  and  C5_12 
REMARK    5  A    between atoms: C10_17  and  C14_21 
ROOT
HETATM    1  O3  UNK     1       1.551  -0.667  -3.339  1.00  0.00    -0.293 OA
HETATM    2  N1  UNK     1       3.018   2.681  -0.321  1.00  0.00    -0.362 N 
HETATM    3  C1  UNK     1       1.506   0.297  -0.621  1.00  0.00     0.104 C 
HETATM    4  C2  UNK     1       2.208   0.999  -1.780  1.00  0.00     0.024 C 
HETATM    5  C3  UNK     1       2.902   2.141  -1.588  1.00  0.00     0.020 C 
HETATM    6  C4  UNK     1       3.621   2.869  -2.694  1.00  0.00     0.058 C 
HETATM    7  C5  UNK     1       1.842   0.919   0.736  1.00  0.00     0.052 C 
HETATM    8  C6  UNK     1       3.934   1.963  -3.878  1.00  0.00     0.014 C 
HETATM    9  C7  UNK     1       2.703   1.187  -4.309  1.00  0.00     0.084 C 
HETATM   10  C8  UNK     1       2.123   0.406  -3.151  1.00  0.00     0.158 C 
HETATM   11  C9  UNK     1       2.543   2.073   0.830  1.00  0.00     0.018 C 
HETATM   12  C17 UNK     1       2.878   2.788   2.111  1.00  0.00     0.069 C 
HETATM   13  H9  UNK     1       3.546   3.540  -0.218  1.00  0.00     0.165 HD
ENDROOT
BRANCH   3  14
HETATM   14  C11 UNK     1       0.016   0.293  -0.831  1.00  0.00     0.029 A 
HETATM   15  C18 UNK     1      -0.677  -1.013  -0.969  1.00  0.00     0.194 A 
HETATM   16  O6  UNK     1      -0.076  -2.078  -0.916  1.00  0.00    -0.287 OA
HETATM   17  C20 UNK     1      -2.136  -0.960  -1.176  1.00  0.00     0.048 A 
HETATM   18  C21 UNK     1      -2.769   0.282  -1.229  1.00  0.00     0.089 A 
HETATM   19  C22 UNK     1      -2.878  -2.135  -1.317  1.00  0.00     0.018 A 
HETATM   20  O4  UNK     1      -2.089   1.466  -1.096  1.00  0.00    -0.321 OA
HETATM   21  C23 UNK     1      -4.149   0.355  -1.423  1.00  0.00     0.038 A 
HETATM   22  C19 UNK     1      -0.731   1.402  -0.904  1.00  0.00     0.154 A 
HETATM   23  C25 UNK     1      -4.892  -0.816  -1.564  1.00  0.00     0.003 A 
HETATM   24  C24 UNK     1      -4.258  -2.059  -1.511  1.00  0.00     0.001 A 
ENDBRANCH   3  14
BRANCH   7  25
HETATM   25  C16 UNK     1       1.413   0.171   1.929  1.00  0.00     0.292 C 
HETATM   26  O5  UNK     1       2.088  -0.695   2.454  1.00  0.00    -0.259 OA
BRANCH  25  27
HETATM   27  O2  UNK     1       0.189   0.620   2.298  1.00  0.00    -0.315 OA
BRANCH  27  28
HETATM   28  C14 UNK     1      -0.367  -0.015   3.453  1.00  0.00     0.211 C 
BRANCH  28  29
HETATM   29  C10 UNK     1      -1.174  -1.221   3.014  1.00  0.00     0.145 C 
HETATM   30  O1  UNK     1      -2.260  -0.801   2.170  1.00  0.00    -0.384 OA
HETATM   31  C15 UNK     1      -3.430  -1.550   2.530  1.00  0.00     0.168 C 
HETATM   32  C13 UNK     1      -2.983  -2.633   3.489  1.00  0.00     0.029 C 
HETATM   33  C12 UNK     1      -1.804  -1.982   4.167  1.00  0.00     0.036 C 
ENDBRANCH  28  29
ENDBRANCH  27  28
ENDBRANCH  25  27
ENDBRANCH   7  25
TORSDOF 5
