REMARK  5 active torsions:
REMARK  status: ('A' for Active; 'I' for Inactive)
REMARK    1  A    between atoms: C1_8  and  N1_6 
REMARK       I    between atoms: C2_9  and  N1_6 
REMARK    2  A    between atoms: C4_11  and  N1_6 
REMARK    3  A    between atoms: C16_23  and  N2_7 
REMARK    4  A    between atoms: C1_8  and  C5_12 
REMARK    5  A    between atoms: C2_9  and  C3_10 
ROOT
HETATM    1  O2  UNK     1      -1.480  -1.994  -1.827  1.00  0.00    -0.267 OA
HETATM    2  N1  UNK     1      -2.004  -0.639   0.026  1.00  0.00    -0.309 N 
HETATM    3  C2  UNK     1      -1.350  -0.945  -1.185  1.00  0.00     0.264 C 
ENDROOT
BRANCH   3   4
HETATM    4  C3  UNK     1      -0.433   0.068  -1.724  1.00  0.00     0.108 A 
HETATM    5  C7  UNK     1       0.842  -0.018  -1.327  1.00  0.00     0.037 A 
HETATM    6  C6  UNK     1       1.825   0.941  -1.807  1.00  0.00     0.001 A 
HETATM    7  C10 UNK     1       3.166   0.889  -1.419  1.00  0.00     0.050 A 
HETATM    8  C8  UNK     1       1.417   1.942  -2.682  1.00  0.00     0.089 A 
HETATM    9  C16 UNK     1       4.073   1.834  -1.909  1.00  0.00     0.103 A 
HETATM   10  C17 UNK     1       3.645   2.833  -2.787  1.00  0.00     0.039 A 
HETATM   11  C15 UNK     1       2.309   2.891  -3.179  1.00  0.00     0.041 A 
HETATM   12  O1  UNK     1       0.074   2.027  -3.097  1.00  0.00    -0.274 OA
HETATM   13  C9  UNK     1      -0.890   1.125  -2.654  1.00  0.00     0.304 A 
HETATM   14  O3  UNK     1      -2.057   1.205  -3.021  1.00  0.00    -0.259 OA
BRANCH   9  15
HETATM   15  N2  UNK     1       5.435   1.779  -1.513  1.00  0.00    -0.116 N 
HETATM   16  O4  UNK     1       6.235   2.635  -1.964  1.00  0.00    -0.532 OA
HETATM   17  O5  UNK     1       5.803   0.875  -0.724  1.00  0.00    -0.532 OA
ENDBRANCH   9  15
ENDBRANCH   3   4
BRANCH   2  18
HETATM   18  C1  UNK     1      -1.778   0.645   0.711  1.00  0.00     0.171 C 
BRANCH  18  19
HETATM   19  C5  UNK     1      -1.223   0.393   2.080  1.00  0.00    -0.040 A 
HETATM   20  C13 UNK     1      -1.495   1.287   3.111  1.00  0.00     0.009 A 
HETATM   21  C20 UNK     1      -0.979   1.052   4.385  1.00  0.00     0.001 A 
HETATM   22  C23 UNK     1      -0.194  -0.076   4.622  1.00  0.00     0.000 A 
HETATM   23  C21 UNK     1       0.076  -0.969   3.585  1.00  0.00     0.001 A 
HETATM   24  C14 UNK     1      -0.440  -0.734   2.311  1.00  0.00     0.009 A 
ENDBRANCH  18  19
ENDBRANCH   2  18
BRANCH   2  25
HETATM   25  C4  UNK     1      -2.918  -1.607   0.609  1.00  0.00     0.037 A 
HETATM   26  C11 UNK     1      -2.676  -2.933   0.379  1.00  0.00     0.030 A 
HETATM   27  C18 UNK     1      -3.552  -3.863   0.938  1.00  0.00     0.002 A 
HETATM   28  C22 UNK     1      -4.634  -3.428   1.705  1.00  0.00     0.000 A 
HETATM   29  C19 UNK     1      -4.839  -2.064   1.911  1.00  0.00     0.002 A 
HETATM   30  C12 UNK     1      -3.963  -1.134   1.352  1.00  0.00     0.030 A 
ENDBRANCH   2  25
TORSDOF 5
