REMARK  2 active torsions:
REMARK  status: ('A' for Active; 'I' for Inactive)
REMARK       I    between atoms: C11_16  and  N1_4 
REMARK    1  A    between atoms: C12_17  and  N1_4 
REMARK    2  A    between atoms: C11_16  and  C7_12 
ROOT
HETATM    1  O1  UNK     1       0.627   0.444  -0.051  1.00  0.00    -0.304 OA
HETATM    2  O2  UNK     1       1.132   1.138  -4.037  1.00  0.00    -0.287 OA
HETATM    3  C1  UNK     1       2.019   1.300  -1.850  1.00  0.00     0.048 A 
HETATM    4  C2  UNK     1       1.782   1.035  -0.501  1.00  0.00     0.090 A 
HETATM    5  C3  UNK     1       4.168   2.241  -1.294  1.00  0.00    -0.061 A 
HETATM    6  C4  UNK     1       3.212   1.904  -2.252  1.00  0.00     0.025 A 
HETATM    7  C5  UNK     1       0.990   0.934  -2.839  1.00  0.00     0.187 A 
HETATM    8  C6  UNK     1       2.740   1.373   0.455  1.00  0.00     0.039 A 
HETATM    9  C7  UNK     1      -0.328   0.105  -0.985  1.00  0.00     0.147 A 
HETATM   10  C8  UNK     1       3.933   1.977   0.057  1.00  0.00     0.009 A 
HETATM   11  C9  UNK     1      -0.233   0.302  -2.305  1.00  0.00     0.098 A 
HETATM   12  C10 UNK     1       5.447   2.886  -1.712  1.00  0.00     0.048 C 
ENDROOT
BRANCH   9  13
HETATM   13  C11 UNK     1      -1.552  -0.523  -0.484  1.00  0.00     0.280 C 
HETATM   14  O3  UNK     1      -2.439  -0.846  -1.275  1.00  0.00    -0.265 OA
HETATM   15  N1  UNK     1      -1.533  -0.674   0.897  1.00  0.00    -0.320 N 
HETATM   16  H8  UNK     1      -0.712  -0.349   1.403  1.00  0.00     0.169 HD
BRANCH  15  17
HETATM   17  C12 UNK     1      -2.544  -1.236   1.681  1.00  0.00     0.052 A 
HETATM   18  C13 UNK     1      -2.406  -1.331   3.059  1.00  0.00     0.032 A 
HETATM   19  C15 UNK     1      -3.429  -1.894   3.813  1.00  0.00     0.021 A 
HETATM   20  C16 UNK     1      -4.557  -2.343   3.145  1.00  0.00     0.116 A 
HETATM   21  N2  UNK     1      -4.723  -2.266   1.805  1.00  0.00    -0.271 NA
HETATM   22  C14 UNK     1      -3.708  -1.712   1.105  1.00  0.00     0.145 A 
ENDBRANCH  15  17
ENDBRANCH   9  13
TORSDOF 2
