REMARK  3 active torsions:
REMARK  status: ('A' for Active; 'I' for Inactive)
REMARK    1  A    between atoms: C1_7  and  N1_5 
REMARK    2  A    between atoms: C9_15  and  N1_5 
REMARK    3  A    between atoms: C11_17  and  N2_6 
ROOT
HETATM    1  O1  UNK     1      -2.838  -1.786   0.909  1.00  0.00    -0.273 OA
HETATM    2  O2  UNK     1      -3.588  -2.008  -1.234  1.00  0.00    -0.257 OA
HETATM    3  C9  UNK     1      -0.976   0.182  -0.029  1.00  0.00     0.081 A 
HETATM    4  C10 UNK     1      -1.028  -0.207   1.404  1.00  0.00     0.027 A 
HETATM    5  C11 UNK     1      -1.845  -0.450  -0.836  1.00  0.00     0.205 A 
HETATM    6  C12 UNK     1      -1.955  -1.171   1.818  1.00  0.00     0.092 A 
HETATM    7  C13 UNK     1      -0.195   0.335   2.398  1.00  0.00     0.017 A 
HETATM    8  C14 UNK     1      -2.827  -1.470  -0.439  1.00  0.00     0.324 A 
HETATM    9  C15 UNK     1      -2.067  -1.589   3.148  1.00  0.00     0.038 A 
HETATM   10  C16 UNK     1      -0.296  -0.076   3.735  1.00  0.00     0.001 A 
HETATM   11  C17 UNK     1      -1.231  -1.036   4.109  1.00  0.00     0.003 A 
ENDROOT
BRANCH   3  12
HETATM   12  N1  UNK     1      -0.076   1.122  -0.402  1.00  0.00    -0.382 N 
HETATM   13  H16 UNK     1      -0.349   1.699  -1.191  1.00  0.00     0.160 HD
BRANCH  12  14
HETATM   14  C1  UNK     1       1.362   0.956  -0.256  1.00  0.00     0.082 C 
HETATM   15  C2  UNK     1       2.010   2.346  -0.191  1.00  0.00     0.025 C 
HETATM   16  C4  UNK     1       2.194   3.056  -1.537  1.00  0.00     0.002 C 
HETATM   17  C6  UNK     1       3.622   3.018  -2.086  1.00  0.00     0.000 C 
HETATM   18  C8  UNK     1       4.140   1.659  -2.562  1.00  0.00     0.000 C 
HETATM   19  C7  UNK     1       4.379   0.644  -1.444  1.00  0.00     0.000 C 
HETATM   20  C5  UNK     1       3.298  -0.425  -1.291  1.00  0.00     0.002 C 
HETATM   21  C3  UNK     1       1.839   0.019  -1.369  1.00  0.00     0.025 C 
ENDBRANCH  12  14
ENDBRANCH   3  12
BRANCH   5  22
HETATM   22  N2  UNK     1      -1.824  -0.104  -2.221  1.00  0.00    -0.107 N 
HETATM   23  O3  UNK     1      -1.006   0.753  -2.574  1.00  0.00    -0.531 OA
HETATM   24  O4  UNK     1      -2.627  -0.688  -2.958  1.00  0.00    -0.531 OA
ENDBRANCH   5  22
TORSDOF 3
