REMARK  5 active torsions:
REMARK  status: ('A' for Active; 'I' for Inactive)
REMARK    1  A    between atoms: C10_15  and  N1_4 
REMARK    2  A    between atoms: C8_13  and  N1_4 
REMARK    3  A    between atoms: C10_15  and  N2_5 
REMARK    4  A    between atoms: C11_16  and  N2_5 
REMARK    5  A    between atoms: C3_8  and  C8_13 
ROOT
HETATM    1  N2  UNK     1      -0.001  -0.685  -0.057  1.00  0.00    -0.333 N 
HETATM    2  H17 UNK     1      -0.047  -0.859   0.942  1.00  0.00     0.168 HD
ENDROOT
BRANCH   1   3
HETATM    3  C10 UNK     1      -0.783  -1.537  -0.829  1.00  0.00     0.172 C 
HETATM    4  S1  UNK     1      -0.628  -1.903  -2.461  1.00  0.00    -0.041 SA
BRANCH   3   5
HETATM    5  N1  UNK     1      -1.793  -2.188  -0.125  1.00  0.00    -0.362 N 
HETATM    6  H16 UNK     1      -2.344  -2.855  -0.658  1.00  0.00     0.162 HD
BRANCH   5   7
HETATM    7  C8  UNK     1      -2.097  -2.069   1.281  1.00  0.00     0.084 C 
HETATM    8  C9  UNK     1      -1.275  -3.071   2.084  1.00  0.00     0.032 C 
BRANCH   7   9
HETATM    9  C3  UNK     1      -3.586  -2.251   1.526  1.00  0.00     0.012 C 
HETATM   10  C1  UNK     1      -4.061  -2.030   2.982  1.00  0.00    -0.008 C 
HETATM   11  C4  UNK     1      -5.567  -1.850   2.768  1.00  0.00     0.010 C 
HETATM   12  C6  UNK     1      -3.670  -0.636   3.503  1.00  0.00     0.005 C 
HETATM   13  C2  UNK     1      -5.382  -0.669   1.815  1.00  0.00    -0.014 C 
HETATM   14  C5  UNK     1      -4.466  -1.266   0.730  1.00  0.00     0.011 C 
HETATM   15  C7  UNK     1      -4.557   0.304   2.675  1.00  0.00     0.005 C 
ENDBRANCH   7   9
ENDBRANCH   5   7
ENDBRANCH   3   5
ENDBRANCH   1   3
BRANCH   1  16
HETATM   16  C11 UNK     1       1.103   0.144  -0.383  1.00  0.00     0.036 A 
HETATM   17  C13 UNK     1       2.115   0.315   0.542  1.00  0.00     0.030 A 
HETATM   18  C16 UNK     1       3.207   1.132   0.227  1.00  0.00     0.017 A 
HETATM   19  C15 UNK     1       3.284   1.777  -1.015  1.00  0.00     0.004 A 
HETATM   20  C14 UNK     1       2.237   1.573  -1.916  1.00  0.00     0.092 A 
HETATM   21  C17 UNK     1       4.397   2.648  -1.415  1.00  0.00    -0.043 A 
HETATM   22  C12 UNK     1       1.142   0.761  -1.616  1.00  0.00     0.067 A 
HETATM   23  O1  UNK     1       2.239   2.185  -3.185  1.00  0.00    -0.275 OA
HETATM   24  C20 UNK     1       3.275   3.012  -3.590  1.00  0.00     0.288 A 
HETATM   25  C18 UNK     1       4.372   3.217  -2.628  1.00  0.00     0.090 A 
HETATM   26  O2  UNK     1       3.287   3.550  -4.692  1.00  0.00    -0.260 OA
HETATM   27  C19 UNK     1       5.537   2.887  -0.469  1.00  0.00     0.049 C 
ENDBRANCH   1  16
TORSDOF 5
