REMARK  3 active torsions:
REMARK  status: ('A' for Active; 'I' for Inactive)
REMARK    1  A    between atoms: C15_20  and  O3_3 
REMARK    2  A    between atoms: C19_24  and  O3_3 
REMARK       I    between atoms: C5_10  and  N1_5 
REMARK    3  A    between atoms: C5_10  and  C8_13 
ROOT
HETATM    1  O1  UNK     1      -1.015  -1.393   1.491  1.00  0.00    -0.271 OA
HETATM    2  O4  UNK     1       1.262  -1.202   1.474  1.00  0.00    -0.259 OA
HETATM    3  C8  UNK     1       0.128  -0.574  -0.510  1.00  0.00     0.108 A 
HETATM    4  C11 UNK     1      -1.038  -0.435  -1.152  1.00  0.00     0.037 A 
HETATM    5  C12 UNK     1      -2.286  -0.777  -0.487  1.00  0.00     0.002 A 
HETATM    6  C13 UNK     1      -2.245  -1.248   0.821  1.00  0.00     0.123 A 
HETATM    7  C14 UNK     1       0.196  -1.074   0.882  1.00  0.00     0.304 A 
HETATM    8  C15 UNK     1      -3.404  -1.593   1.514  1.00  0.00     0.103 A 
HETATM    9  C16 UNK     1      -3.526  -0.648  -1.119  1.00  0.00     0.014 A 
HETATM   10  C17 UNK     1      -4.636  -1.461   0.877  1.00  0.00     0.040 A 
HETATM   11  C18 UNK     1      -4.697  -0.989  -0.436  1.00  0.00     0.004 A 
ENDROOT
BRANCH   3  12
HETATM   12  C5  UNK     1       1.341  -0.201  -1.269  1.00  0.00     0.264 C 
HETATM   13  O2  UNK     1       1.889  -1.080  -1.932  1.00  0.00    -0.267 OA
HETATM   14  N1  UNK     1       1.745   1.120  -1.158  1.00  0.00    -0.313 N 
HETATM   15  C1  UNK     1       1.089   2.182  -0.361  1.00  0.00     0.137 A 
HETATM   16  C4  UNK     1       2.872   1.686  -1.795  1.00  0.00     0.043 A 
HETATM   17  C2  UNK     1       1.891   3.474  -0.545  1.00  0.00     0.061 A 
HETATM   18  C3  UNK     1       2.984   3.038  -1.464  1.00  0.00    -0.030 A 
HETATM   19  C6  UNK     1       4.012   3.822  -1.964  1.00  0.00     0.009 A 
HETATM   20  C9  UNK     1       4.945   3.230  -2.815  1.00  0.00     0.001 A 
HETATM   21  C10 UNK     1       4.837   1.873  -3.151  1.00  0.00     0.002 A 
HETATM   22  C7  UNK     1       3.796   1.090  -2.642  1.00  0.00     0.030 A 
ENDBRANCH   3  12
BRANCH   8  23
HETATM   23  O3  UNK     1      -3.349  -2.052   2.793  1.00  0.00    -0.349 OA
BRANCH  23  24
HETATM   24  C19 UNK     1      -4.467  -1.769   3.634  1.00  0.00     0.171 C 
HETATM   25  C20 UNK     1      -3.993  -1.671   5.068  1.00  0.00     0.034 C 
ENDBRANCH  23  24
ENDBRANCH   8  23
TORSDOF 3
