REMARK  2 active torsions:
REMARK  status: ('A' for Active; 'I' for Inactive)
REMARK    1  A    between atoms: C1_5  and  N1_4 
REMARK       I    between atoms: C9_13  and  N1_4 
REMARK    2  A    between atoms: C10_14  and  C9_13 
ROOT
HETATM    1  O1  UNK     1      -1.312   0.993  -2.087  1.00  0.00    -0.267 OA
HETATM    2  N1  UNK     1       0.775   0.497  -1.174  1.00  0.00    -0.352 N 
HETATM    3  C9  UNK     1      -0.604   0.511  -1.209  1.00  0.00     0.258 C 
HETATM    4  H16 UNK     1       1.262   0.089  -0.382  1.00  0.00     0.163 HD
ENDROOT
BRANCH   3   5
HETATM    5  C10 UNK     1      -1.207  -0.144  -0.033  1.00  0.00     0.108 A 
HETATM    6  C11 UNK     1      -2.395  -0.728  -0.226  1.00  0.00     0.037 A 
HETATM    7  C13 UNK     1      -3.070  -1.400   0.874  1.00  0.00    -0.001 A 
HETATM    8  C14 UNK     1      -2.459  -1.423   2.124  1.00  0.00     0.089 A 
HETATM    9  C15 UNK     1      -4.310  -2.023   0.718  1.00  0.00     0.014 A 
HETATM   10  O2  UNK     1      -1.208  -0.806   2.321  1.00  0.00    -0.274 OA
HETATM   11  C16 UNK     1      -3.052  -2.048   3.219  1.00  0.00     0.038 A 
HETATM   12  C12 UNK     1      -0.539  -0.156   1.288  1.00  0.00     0.304 A 
HETATM   13  O3  UNK     1       0.549   0.379   1.468  1.00  0.00    -0.259 OA
HETATM   14  C18 UNK     1      -4.289  -2.667   3.055  1.00  0.00     0.003 A 
HETATM   15  C17 UNK     1      -4.917  -2.655   1.807  1.00  0.00     0.001 A 
ENDBRANCH   3   5
BRANCH   2  16
HETATM   16  C1  UNK     1       1.590   1.078  -2.219  1.00  0.00     0.084 C 
HETATM   17  C2  UNK     1       2.860   0.242  -2.419  1.00  0.00     0.025 C 
HETATM   18  C4  UNK     1       3.896   0.852  -3.365  1.00  0.00     0.002 C 
HETATM   19  C6  UNK     1       5.097   1.490  -2.664  1.00  0.00     0.000 C 
HETATM   20  C8  UNK     1       4.832   2.775  -1.877  1.00  0.00     0.000 C 
HETATM   21  C7  UNK     1       3.993   2.585  -0.613  1.00  0.00     0.000 C 
HETATM   22  C5  UNK     1       2.531   3.010  -0.735  1.00  0.00     0.002 C 
HETATM   23  C3  UNK     1       1.770   2.582  -1.990  1.00  0.00     0.025 C 
ENDBRANCH   2  16
TORSDOF 2
