REMARK  7 active torsions:
REMARK  status: ('A' for Active; 'I' for Inactive)
REMARK    1  A    between atoms: C3_8  and  O1_1 
REMARK    2  A    between atoms: C9_14  and  O1_1 
REMARK    3  A    between atoms: C17_22  and  O4_4 
REMARK    4  A    between atoms: C11_16  and  C5_10 
REMARK    5  A    between atoms: C10_15  and  C9_14 
REMARK    6  A    between atoms: C10_15  and  C14_19 
REMARK    7  A    between atoms: C11_16  and  C17_22 
ROOT
HETATM    1  O2  UNK     1       0.066  -0.302  -2.927  1.00  0.00    -0.274 OA
HETATM    2  O3  UNK     1       2.264   0.085  -3.327  1.00  0.00    -0.259 OA
HETATM    3  C1  UNK     1      -0.834  -0.074  -0.679  1.00  0.00     0.038 A 
HETATM    4  C2  UNK     1       0.510   0.304  -0.198  1.00  0.00    -0.033 A 
HETATM    5  C3  UNK     1      -1.964  -0.174   0.149  1.00  0.00     0.082 A 
HETATM    6  C4  UNK     1      -1.010  -0.364  -2.028  1.00  0.00     0.093 A 
HETATM    7  C5  UNK     1       1.543   0.328  -1.068  1.00  0.00     0.034 A 
HETATM    8  C6  UNK     1      -3.353  -0.818  -1.727  1.00  0.00    -0.057 A 
HETATM    9  C7  UNK     1      -3.211  -0.541  -0.370  1.00  0.00     0.044 A 
HETATM   10  C8  UNK     1      -2.247  -0.731  -2.565  1.00  0.00     0.045 A 
HETATM   11  C12 UNK     1       0.696   0.699   1.247  1.00  0.00     0.050 C 
HETATM   12  C13 UNK     1       1.345   0.031  -2.516  1.00  0.00     0.295 A 
HETATM   13  C15 UNK     1      -4.682  -1.210  -2.278  1.00  0.00     0.048 C 
ENDROOT
BRANCH   5  14
HETATM   14  O1  UNK     1      -1.937   0.050   1.495  1.00  0.00    -0.350 OA
BRANCH  14  15
HETATM   15  C9  UNK     1      -2.304  -1.039   2.338  1.00  0.00     0.175 C 
BRANCH  15  16
HETATM   16  C10 UNK     1      -1.568  -0.904   3.664  1.00  0.00     0.026 C 
BRANCH  16  17
HETATM   17  C14 UNK     1      -1.903  -2.051   4.614  1.00  0.00    -0.002 C 
HETATM   18  C16 UNK     1      -1.133  -1.936   5.919  1.00  0.00     0.005 C 
ENDBRANCH  16  17
ENDBRANCH  15  16
ENDBRANCH  14  15
ENDBRANCH   5  14
BRANCH   7  19
HETATM   19  C11 UNK     1       2.973   0.633  -0.692  1.00  0.00     0.156 C 
BRANCH  19  20
HETATM   20  C17 UNK     1       3.238   2.111  -0.799  1.00  0.00     0.262 C 
HETATM   21  O5  UNK     1       2.433   2.973  -1.125  1.00  0.00    -0.265 OA
BRANCH  20  22
HETATM   22  O4  UNK     1       4.552   2.325  -0.484  1.00  0.00    -0.326 OA
HETATM   23  C18 UNK     1       4.989   3.686  -0.552  1.00  0.00     0.213 C 
ENDBRANCH  20  22
ENDBRANCH  19  20
ENDBRANCH   7  19
TORSDOF 7
