REMARK  5 active torsions:
REMARK  status: ('A' for Active; 'I' for Inactive)
REMARK    1  A    between atoms: C1_5  and  N1_4 
REMARK    2  A    between atoms: C2_6  and  N1_4 
REMARK       I    between atoms: C7_11  and  N1_4 
REMARK    3  A    between atoms: C1_5  and  C3_7 
REMARK    4  A    between atoms: C2_6  and  C4_8 
REMARK    5  A    between atoms: C10_14  and  C7_11 
ROOT
HETATM    1  O2  UNK     1       0.561   2.094  -2.122  1.00  0.00    -0.274 OA
HETATM    2  O3  UNK     1      -1.648   1.573  -1.859  1.00  0.00    -0.259 OA
HETATM    3  C10 UNK     1      -0.080   0.013  -1.011  1.00  0.00     0.108 A 
HETATM    4  C11 UNK     1       1.204  -0.315  -0.825  1.00  0.00     0.037 A 
HETATM    5  C12 UNK     1      -0.473   1.269  -1.688  1.00  0.00     0.304 A 
HETATM    6  C13 UNK     1       2.261   0.569  -1.291  1.00  0.00    -0.001 A 
HETATM    7  C14 UNK     1       1.914   1.755  -1.930  1.00  0.00     0.089 A 
HETATM    8  C15 UNK     1       3.614   0.267  -1.120  1.00  0.00     0.014 A 
HETATM    9  C16 UNK     1       2.878   2.645  -2.400  1.00  0.00     0.038 A 
HETATM   10  C17 UNK     1       4.593   1.150  -1.586  1.00  0.00     0.001 A 
HETATM   11  C18 UNK     1       4.225   2.336  -2.224  1.00  0.00     0.003 A 
ENDROOT
BRANCH   3  12
HETATM   12  C7  UNK     1      -1.073  -0.943  -0.505  1.00  0.00     0.260 C 
HETATM   13  O1  UNK     1      -1.453  -1.847  -1.259  1.00  0.00    -0.267 OA
HETATM   14  N1  UNK     1      -1.519  -0.779   0.810  1.00  0.00    -0.339 N 
BRANCH  14  15
HETATM   15  C1  UNK     1      -1.041   0.306   1.664  1.00  0.00     0.083 C 
HETATM   16  C5  UNK     1      -2.206   1.212   2.046  1.00  0.00     0.032 C 
BRANCH  15  17
HETATM   17  C3  UNK     1      -0.341  -0.240   2.916  1.00  0.00     0.020 C 
HETATM   18  C8  UNK     1       0.223   0.864   3.802  1.00  0.00     0.007 C 
ENDBRANCH  15  17
ENDBRANCH  14  15
BRANCH  14  19
HETATM   19  C2  UNK     1      -2.491  -1.678   1.417  1.00  0.00     0.083 C 
HETATM   20  C6  UNK     1      -1.916  -3.089   1.482  1.00  0.00     0.032 C 
BRANCH  19  21
HETATM   21  C4  UNK     1      -3.820  -1.665   0.651  1.00  0.00     0.020 C 
HETATM   22  C9  UNK     1      -4.879  -2.551   1.295  1.00  0.00     0.007 C 
ENDBRANCH  19  21
ENDBRANCH  14  19
ENDBRANCH   3  12
TORSDOF 5
