REMARK  2 active torsions:
REMARK  status: ('A' for Active; 'I' for Inactive)
REMARK    1  A    between atoms: C2_6  and  O1_2 
REMARK    2  A    between atoms: C7_11  and  O1_2 
ROOT
HETATM    1  F1  UNK     1       3.562   1.672  -0.219  1.00  0.00    -0.206 F 
HETATM    2  O2  UNK     1      -1.337  -0.030  -2.083  1.00  0.00    -0.275 OA
HETATM    3  O3  UNK     1      -3.311  -1.150  -1.788  1.00  0.00    -0.260 OA
HETATM    4  C1  UNK     1       0.258   0.113  -0.233  1.00  0.00     0.034 A 
HETATM    5  C2  UNK     1      -0.702  -0.631   0.588  1.00  0.00     0.087 A 
HETATM    6  C3  UNK     1      -0.100   0.396  -1.554  1.00  0.00     0.092 A 
HETATM    7  C4  UNK     1       1.515   0.553   0.202  1.00  0.00     0.059 A 
HETATM    8  C5  UNK     1       0.737   1.099  -2.424  1.00  0.00     0.041 A 
HETATM    9  C6  UNK     1      -1.863  -1.039   0.066  1.00  0.00     0.120 A 
HETATM   10  C8  UNK     1       2.366   1.259  -0.659  1.00  0.00     0.117 A 
HETATM   11  C9  UNK     1       1.976   1.534  -1.968  1.00  0.00     0.045 A 
HETATM   12  C10 UNK     1      -2.243  -0.760  -1.328  1.00  0.00     0.290 A 
ENDROOT
BRANCH   5  13
HETATM   13  O1  UNK     1      -0.416  -0.909   1.910  1.00  0.00    -0.350 OA
BRANCH  13  14
HETATM   14  C7  UNK     1      -0.882   0.127   2.752  1.00  0.00     0.171 C 
HETATM   15  C11 UNK     1      -0.561  -0.224   4.189  1.00  0.00     0.034 C 
ENDBRANCH  13  14
ENDBRANCH   5  13
TORSDOF 2
