REMARK  4 active torsions:
REMARK  status: ('A' for Active; 'I' for Inactive)
REMARK    1  A    between atoms: C5_10  and  O2_2 
REMARK    2  A    between atoms: C9_14  and  O3_3 
REMARK    3  A    between atoms: C13_18  and  O5_5 
REMARK    4  A    between atoms: C2_7  and  C4_9 
ROOT
HETATM    1  O1  UNK     1      -0.380  -0.389  -0.537  1.00  0.00    -0.306 OA
HETATM    2  O4  UNK     1      -1.207   1.491   2.982  1.00  0.00    -0.284 OA
HETATM    3  C1  UNK     1      -1.790  -0.184   1.427  1.00  0.00     0.053 A 
HETATM    4  C2  UNK     1       0.415   0.644  -0.065  1.00  0.00     0.123 A 
HETATM    5  C3  UNK     1      -1.455  -0.783   0.215  1.00  0.00     0.090 A 
HETATM    6  C5  UNK     1       0.196   1.311   1.083  1.00  0.00     0.152 A 
HETATM    7  C6  UNK     1      -0.959   0.922   1.927  1.00  0.00     0.220 A 
HETATM    8  C7  UNK     1      -2.899  -0.628   2.151  1.00  0.00     0.055 A 
HETATM    9  C8  UNK     1      -2.229  -1.833  -0.281  1.00  0.00     0.041 A 
HETATM   10  C9  UNK     1      -3.672  -1.678   1.653  1.00  0.00     0.069 A 
HETATM   11  C11 UNK     1      -3.337  -2.279   0.439  1.00  0.00     0.039 A 
ENDROOT
BRANCH   4  12
HETATM   12  C4  UNK     1       1.533   0.968  -0.968  1.00  0.00     0.003 A 
HETATM   13  C10 UNK     1       1.360   1.905  -1.987  1.00  0.00     0.051 A 
HETATM   14  C13 UNK     1       2.419   2.211  -2.841  1.00  0.00     0.069 A 
HETATM   15  C15 UNK     1       3.652   1.580  -2.678  1.00  0.00     0.037 A 
HETATM   16  C14 UNK     1       3.826   0.642  -1.659  1.00  0.00     0.004 A 
HETATM   17  C12 UNK     1       2.767   0.337  -0.805  1.00  0.00     0.014 A 
BRANCH  14  18
HETATM   18  O5  UNK     1       2.249   3.126  -3.835  1.00  0.00    -0.356 OA
HETATM   19  C17 UNK     1       3.374   3.391  -4.672  1.00  0.00     0.210 C 
ENDBRANCH  14  18
ENDBRANCH   4  12
BRANCH   6  20
HETATM   20  O2  UNK     1       0.987   2.357   1.508  1.00  0.00    -0.355 OA
HETATM   21  H8  UNK     1       1.700   2.512   0.868  1.00  0.00     0.218 HD
ENDBRANCH   6  20
BRANCH  10  22
HETATM   22  O3  UNK     1      -4.754  -2.117   2.352  1.00  0.00    -0.356 OA
HETATM   23  C16 UNK     1      -5.500  -3.193   1.785  1.00  0.00     0.210 C 
ENDBRANCH  10  22
TORSDOF 4
