REMARK  1 active torsions:
REMARK  status: ('A' for Active; 'I' for Inactive)
REMARK    1  A    between atoms: C1_5  and  C5_9 
ROOT
HETATM    1  O1  UNK     1       1.294   0.578   1.376  1.00  0.00    -0.277 OA
HETATM    2  O2  UNK     1       0.157   1.218  -2.627  1.00  0.00    -0.274 OA
HETATM    3  O3  UNK     1       0.770   0.174   3.541  1.00  0.00    -0.265 OA
HETATM    4  O4  UNK     1      -2.040   1.075  -2.031  1.00  0.00    -0.259 OA
HETATM    5  C1  UNK     1      -1.515   0.648   0.758  1.00  0.00     0.070 C 
HETATM    6  C2  UNK     1      -0.445   0.825  -0.287  1.00  0.00     0.061 A 
HETATM    7  C3  UNK     1      -0.976   1.030   2.140  1.00  0.00     0.126 C 
HETATM    8  C4  UNK     1       0.851   0.818   0.058  1.00  0.00     0.105 A 
HETATM    9  C6  UNK     1       1.899   0.995  -0.942  1.00  0.00     0.033 A 
HETATM   10  C7  UNK     1       0.417   0.525   2.419  1.00  0.00     0.265 C 
HETATM   11  C8  UNK     1      -0.861   1.046  -1.694  1.00  0.00     0.298 A 
HETATM   12  C9  UNK     1       1.518   1.191  -2.267  1.00  0.00     0.092 A 
HETATM   13  C12 UNK     1       3.267   0.980  -0.644  1.00  0.00     0.017 A 
HETATM   14  C13 UNK     1       2.450   1.370  -3.288  1.00  0.00     0.038 A 
HETATM   15  C16 UNK     1       4.214   1.157  -1.657  1.00  0.00     0.001 A 
HETATM   16  C18 UNK     1       3.807   1.352  -2.977  1.00  0.00     0.003 A 
ENDROOT
BRANCH   5  17
HETATM   17  C5  UNK     1      -2.141  -0.740   0.743  1.00  0.00    -0.049 A 
HETATM   18  C10 UNK     1      -1.354  -1.850   0.453  1.00  0.00     0.008 A 
HETATM   19  C14 UNK     1      -1.928  -3.121   0.440  1.00  0.00     0.001 A 
HETATM   20  C17 UNK     1      -3.286  -3.276   0.718  1.00  0.00     0.000 A 
HETATM   21  C15 UNK     1      -4.070  -2.160   1.008  1.00  0.00     0.001 A 
HETATM   22  C11 UNK     1      -3.497  -0.889   1.021  1.00  0.00     0.008 A 
ENDBRANCH   5  17
TORSDOF 1
