REMARK  5 active torsions:
REMARK  status: ('A' for Active; 'I' for Inactive)
REMARK    1  A    between atoms: C1_3  and  N1_2 
REMARK       I    between atoms: C6_8  and  N1_2 
REMARK    2  A    between atoms: C1_3  and  C2_4 
REMARK    3  A    between atoms: C6_8  and  C7_9 
REMARK    4  A    between atoms: C7_9  and  C8_10 
REMARK    5  A    between atoms: C10_12  and  C9_11 
ROOT
HETATM    1  C7  UNK     1       0.207   0.016   0.313  1.00  0.00     0.043 C 
HETATM    2  C9  UNK     1       1.382   0.535   0.726  1.00  0.00     0.029 C 
ENDROOT
BRANCH   1   3
HETATM    3  C6  UNK     1      -0.651  -0.613   1.382  1.00  0.00     0.253 C 
HETATM    4  O1  UNK     1      -0.285  -0.669   2.554  1.00  0.00    -0.268 OA
HETATM    5  N1  UNK     1      -1.852  -1.111   0.915  1.00  0.00    -0.348 N 
HETATM    6  H9  UNK     1      -2.096  -1.039  -0.067  1.00  0.00     0.163 HD
BRANCH   5   7
HETATM    7  C1  UNK     1      -2.809  -1.761   1.795  1.00  0.00     0.025 C 
HETATM    8  C3  UNK     1      -4.023  -2.190   0.955  1.00  0.00     0.038 C 
HETATM    9  C4  UNK     1      -2.164  -3.010   2.411  1.00  0.00     0.038 C 
BRANCH   7  10
HETATM   10  C2  UNK     1      -3.284  -0.772   2.886  1.00  0.00     0.026 C 
HETATM   11  C5  UNK     1      -3.938   0.502   2.361  1.00  0.00     0.007 C 
ENDBRANCH   7  10
ENDBRANCH   5   7
ENDBRANCH   1   3
BRANCH   1  12
HETATM   12  C8  UNK     1      -0.225   0.077  -1.097  1.00  0.00    -0.021 A 
HETATM   13  C11 UNK     1       0.119  -0.953  -1.955  1.00  0.00     0.012 A 
HETATM   14  C13 UNK     1      -0.290  -0.895  -3.288  1.00  0.00     0.001 A 
HETATM   15  C17 UNK     1      -1.037   0.192  -3.741  1.00  0.00     0.000 A 
HETATM   16  C14 UNK     1      -1.375   1.221  -2.863  1.00  0.00     0.001 A 
HETATM   17  C12 UNK     1      -0.966   1.164  -1.530  1.00  0.00     0.012 A 
ENDBRANCH   1  12
BRANCH   2  18
HETATM   18  C10 UNK     1       2.364   1.222  -0.126  1.00  0.00    -0.035 A 
HETATM   19  C16 UNK     1       2.285   2.598  -0.283  1.00  0.00     0.011 A 
HETATM   20  C19 UNK     1       3.217   3.250  -1.092  1.00  0.00     0.001 A 
HETATM   21  C20 UNK     1       4.216   2.519  -1.733  1.00  0.00     0.000 A 
HETATM   22  C18 UNK     1       4.285   1.136  -1.567  1.00  0.00     0.001 A 
HETATM   23  C15 UNK     1       3.353   0.484  -0.759  1.00  0.00     0.011 A 
ENDBRANCH   2  18
TORSDOF 5
