REMARK  8 active torsions:
REMARK  status: ('A' for Active; 'I' for Inactive)
REMARK    1  A    between atoms: C12_21  and  O1_2 
REMARK    2  A    between atoms: C9_18  and  O1_2 
REMARK       I    between atoms: C5_14  and  N1_8 
REMARK    3  A    between atoms: C6_15  and  N1_8 
REMARK    4  A    between atoms: C7_16  and  N1_8 
REMARK       I    between atoms: C13_22  and  N2_9 
REMARK    5  A    between atoms: C4_13  and  N2_9 
REMARK    6  A    between atoms: C2_11  and  C5_14 
REMARK    7  A    between atoms: C3_12  and  C9_18 
REMARK    8  A    between atoms: C13_22  and  C14_23 
ROOT
HETATM    1  S1  UNK     1      -2.316  -0.490  -0.504  1.00  0.00    -0.065 SA
HETATM    2  C1  UNK     1      -2.533  -0.402   2.055  1.00  0.00    -0.020 A 
HETATM    3  C2  UNK     1      -3.234  -0.744   0.919  1.00  0.00     0.082 A 
HETATM    4  C3  UNK     1      -1.225   0.074   1.753  1.00  0.00     0.080 A 
HETATM    5  C4  UNK     1      -0.976   0.079   0.398  1.00  0.00     0.094 A 
HETATM    6  C8  UNK     1      -3.077  -0.518   3.431  1.00  0.00     0.051 C 
ENDROOT
BRANCH   5   7
HETATM    7  N2  UNK     1       0.154   0.459  -0.332  1.00  0.00    -0.316 N 
HETATM    8  C13 UNK     1       0.288   0.418  -1.713  1.00  0.00     0.262 C 
HETATM    9  O5  UNK     1      -0.532   0.052  -2.553  1.00  0.00    -0.267 OA
HETATM   10  H8  UNK     1       0.935   0.797   0.227  1.00  0.00     0.169 HD
BRANCH   8  11
HETATM   11  C14 UNK     1       1.608   0.890  -2.149  1.00  0.00     0.108 A 
HETATM   12  C16 UNK     1       1.618   1.954  -2.960  1.00  0.00     0.037 A 
HETATM   13  C15 UNK     1       2.878   2.494  -3.446  1.00  0.00    -0.001 A 
HETATM   14  C19 UNK     1       4.067   1.886  -3.053  1.00  0.00     0.089 A 
HETATM   15  C21 UNK     1       2.936   3.602  -4.294  1.00  0.00     0.014 A 
HETATM   16  O3  UNK     1       4.050   0.767  -2.198  1.00  0.00    -0.274 OA
HETATM   17  C22 UNK     1       5.307   2.354  -3.483  1.00  0.00     0.038 A 
HETATM   18  C20 UNK     1       2.860   0.228  -1.718  1.00  0.00     0.304 A 
HETATM   19  O6  UNK     1       2.855  -0.748  -0.975  1.00  0.00    -0.259 OA
HETATM   20  C24 UNK     1       5.356   3.460  -4.329  1.00  0.00     0.003 A 
HETATM   21  C23 UNK     1       4.173   4.083  -4.733  1.00  0.00     0.001 A 
ENDBRANCH   8  11
ENDBRANCH   5   7
BRANCH   4  22
HETATM   22  C9  UNK     1      -0.249   0.509   2.721  1.00  0.00     0.297 C 
HETATM   23  O4  UNK     1      -0.538   1.023   3.811  1.00  0.00    -0.259 OA
BRANCH  22  24
HETATM   24  O1  UNK     1       1.056   0.304   2.330  1.00  0.00    -0.313 OA
BRANCH  24  25
HETATM   25  C12 UNK     1       2.078   0.714   3.245  1.00  0.00     0.124 C 
HETATM   26  C17 UNK     1       3.307   1.151   2.462  1.00  0.00     0.040 C 
HETATM   27  C18 UNK     1       2.390  -0.434   4.194  1.00  0.00     0.040 C 
ENDBRANCH  24  25
ENDBRANCH  22  24
ENDBRANCH   4  22
BRANCH   3  28
HETATM   28  C5  UNK     1      -4.562  -1.256   0.795  1.00  0.00     0.261 C 
HETATM   29  O2  UNK     1      -5.546  -0.496   0.674  1.00  0.00    -0.267 OA
HETATM   30  N1  UNK     1      -4.756  -2.667   0.813  1.00  0.00    -0.348 N 
BRANCH  30  31
HETATM   31  C6  UNK     1      -3.668  -3.636   0.926  1.00  0.00     0.121 C 
HETATM   32  C10 UNK     1      -3.139  -4.038  -0.435  1.00  0.00     0.026 C 
ENDBRANCH  30  31
BRANCH  30  33
HETATM   33  C7  UNK     1      -6.092  -3.236   0.691  1.00  0.00     0.121 C 
HETATM   34  C11 UNK     1      -6.744  -3.416   2.047  1.00  0.00     0.026 C 
ENDBRANCH  30  33
ENDBRANCH   3  28
TORSDOF 8
