REMARK  1 active torsions:
REMARK  status: ('A' for Active; 'I' for Inactive)
REMARK    1  A    between atoms: C12_17  and  C8_13 
ROOT
HETATM    1  O1  UNK     1       1.031   0.584   0.365  1.00  0.00    -0.305 OA
HETATM    2  O2  UNK     1      -1.553  -0.275  -2.666  1.00  0.00    -0.287 OA
HETATM    3  C1  UNK     1      -1.109  -0.335  -0.328  1.00  0.00     0.054 A 
HETATM    4  C2  UNK     1      -2.318  -0.940   0.023  1.00  0.00    -0.044 A 
HETATM    5  C3  UNK     1      -0.172  -0.011   0.652  1.00  0.00     0.091 A 
HETATM    6  C4  UNK     1      -1.647  -0.893   2.347  1.00  0.00    -0.059 A 
HETATM    7  C5  UNK     1      -2.584  -1.217   1.365  1.00  0.00     0.014 A 
HETATM    8  C6  UNK     1      -0.440  -0.290   1.993  1.00  0.00     0.045 A 
HETATM    9  C7  UNK     1      -0.801  -0.030  -1.733  1.00  0.00     0.188 A 
HETATM   10  C8  UNK     1       1.323   0.873  -0.958  1.00  0.00     0.163 A 
HETATM   11  C9  UNK     1       0.505   0.609  -1.988  1.00  0.00     0.098 A 
HETATM   12  C10 UNK     1      -3.372  -1.316  -0.968  1.00  0.00     0.049 C 
HETATM   13  C11 UNK     1      -1.937  -1.193   3.780  1.00  0.00     0.048 C 
ENDROOT
BRANCH  10  14
HETATM   14  C12 UNK     1       2.660   1.520  -1.147  1.00  0.00     0.439 C 
HETATM   15  F1  UNK     1       2.892   1.779  -2.450  1.00  0.00    -0.164 F 
HETATM   16  F2  UNK     1       2.733   2.687  -0.474  1.00  0.00    -0.164 F 
HETATM   17  F3  UNK     1       3.654   0.724  -0.702  1.00  0.00    -0.164 F 
ENDBRANCH  10  14
TORSDOF 1
