REMARK  4 active torsions:
REMARK  status: ('A' for Active; 'I' for Inactive)
REMARK    1  A    between atoms: C1_6  and  N1_5 
REMARK       I    between atoms: C9_14  and  N1_5 
REMARK    2  A    between atoms: C2_7  and  C4_9 
REMARK    3  A    between atoms: C3_8  and  C5_10 
REMARK    4  A    between atoms: C10_15  and  C9_14 
ROOT
HETATM    1  O2  UNK     1      -1.106   1.682   0.915  1.00  0.00    -0.267 OA
HETATM    2  N1  UNK     1      -1.253  -0.627   0.449  1.00  0.00    -0.322 N 
HETATM    3  C9  UNK     1      -0.747   0.660   0.332  1.00  0.00     0.262 C 
HETATM    4  H7  UNK     1      -0.762  -1.394  -0.004  1.00  0.00     0.169 HD
ENDROOT
BRANCH   3   5
HETATM    5  C10 UNK     1       0.357   0.728  -0.634  1.00  0.00     0.108 A 
HETATM    6  C14 UNK     1       1.288   1.662  -0.402  1.00  0.00     0.037 A 
HETATM    7  C13 UNK     1       2.421   1.806  -1.303  1.00  0.00     0.000 A 
HETATM    8  C15 UNK     1       2.517   0.962  -2.404  1.00  0.00     0.089 A 
HETATM    9  C17 UNK     1       3.416   2.765  -1.100  1.00  0.00     0.033 A 
HETATM   10  O1  UNK     1       1.534  -0.018  -2.643  1.00  0.00    -0.274 OA
HETATM   11  C18 UNK     1       3.576   1.049  -3.306  1.00  0.00     0.039 A 
HETATM   12  C16 UNK     1       0.439  -0.181  -1.798  1.00  0.00     0.304 A 
HETATM   13  O3  UNK     1      -0.412  -1.037  -2.014  1.00  0.00    -0.259 OA
HETATM   14  C20 UNK     1       4.564   2.008  -3.096  1.00  0.00     0.022 A 
HETATM   15  C19 UNK     1       4.485   2.865  -1.995  1.00  0.00     0.011 A 
HETATM   16 Br1  UNK     1       5.830   4.164  -1.715  1.00  0.00    -0.051 Br
ENDBRANCH   3   5
BRANCH   2  17
HETATM   17  C1  UNK     1      -2.304  -1.027   1.280  1.00  0.00     0.047 A 
HETATM   18  C2  UNK     1      -2.040  -1.456   2.581  1.00  0.00    -0.031 A 
HETATM   19  C6  UNK     1      -3.089  -1.855   3.410  1.00  0.00     0.009 A 
HETATM   20  C8  UNK     1      -4.401  -1.825   2.939  1.00  0.00     0.001 A 
HETATM   21  C7  UNK     1      -4.665  -1.397   1.638  1.00  0.00     0.009 A 
HETATM   22  C3  UNK     1      -3.617  -0.998   0.808  1.00  0.00    -0.031 A 
BRANCH  18  23
HETATM   23  C4  UNK     1      -0.645  -1.498   3.116  1.00  0.00     0.036 C 
HETATM   24  C11 UNK     1       0.029  -2.842   2.856  1.00  0.00     0.010 C 
ENDBRANCH  18  23
BRANCH  22  25
HETATM   25  C5  UNK     1      -3.932  -0.545  -0.580  1.00  0.00     0.036 C 
HETATM   26  C12 UNK     1      -3.915  -1.698  -1.580  1.00  0.00     0.010 C 
ENDBRANCH  22  25
ENDBRANCH   2  17
TORSDOF 4
