REMARK  3 active torsions:
REMARK  status: ('A' for Active; 'I' for Inactive)
REMARK    1  A    between atoms: C1_8  and  N1_6 
REMARK       I    between atoms: C7_14  and  N1_6 
REMARK    2  A    between atoms: C10_17  and  N2_7 
REMARK    3  A    between atoms: C4_11  and  C7_14 
ROOT
HETATM    1  O2  UNK     1       0.615   0.918   1.575  1.00  0.00    -0.267 OA
HETATM    2  N1  UNK     1      -0.673  -0.147  -0.084  1.00  0.00    -0.322 N 
HETATM    3  C7  UNK     1       0.377   0.617   0.407  1.00  0.00     0.262 C 
HETATM    4  H2  UNK     1      -0.702  -0.316  -1.084  1.00  0.00     0.169 HD
ENDROOT
BRANCH   3   5
HETATM    5  C4  UNK     1       1.267   1.085  -0.662  1.00  0.00     0.108 A 
HETATM    6  C12 UNK     1       0.777   1.350  -2.033  1.00  0.00     0.304 A 
HETATM    7  O1  UNK     1       1.718   1.791  -2.959  1.00  0.00    -0.274 OA
HETATM    8  O3  UNK     1      -0.399   1.190  -2.343  1.00  0.00    -0.259 OA
HETATM    9  C5  UNK     1       3.070   1.978  -2.613  1.00  0.00     0.089 A 
HETATM   10  C15 UNK     1       3.938   2.423  -3.609  1.00  0.00     0.038 A 
HETATM   11  C3  UNK     1       3.510   1.724  -1.318  1.00  0.00    -0.001 A 
HETATM   12  C17 UNK     1       5.281   2.618  -3.296  1.00  0.00     0.003 A 
HETATM   13  C16 UNK     1       5.742   2.367  -2.002  1.00  0.00     0.001 A 
HETATM   14  C14 UNK     1       4.859   1.921  -1.014  1.00  0.00     0.014 A 
HETATM   15  C6  UNK     1       2.551   1.262  -0.327  1.00  0.00     0.037 A 
ENDBRANCH   3   5
BRANCH   2  16
HETATM   16  C1  UNK     1      -1.715  -0.759   0.655  1.00  0.00     0.041 A 
HETATM   17  C2  UNK     1      -2.692  -1.493   0.003  1.00  0.00    -0.033 A 
HETATM   18  C13 UNK     1      -2.688  -1.669  -1.481  1.00  0.00     0.050 C 
HETATM   19  C8  UNK     1      -3.711  -2.087   0.748  1.00  0.00     0.045 A 
HETATM   20  C10 UNK     1      -3.739  -1.938   2.135  1.00  0.00     0.103 A 
HETATM   21  C11 UNK     1      -2.747  -1.196   2.777  1.00  0.00     0.038 A 
HETATM   22  C9  UNK     1      -1.728  -0.602   2.032  1.00  0.00     0.032 A 
BRANCH  20  23
HETATM   23  N2  UNK     1      -4.776  -2.541   2.894  1.00  0.00    -0.116 N 
HETATM   24  O4  UNK     1      -4.782  -2.395   4.140  1.00  0.00    -0.532 OA
HETATM   25  O5  UNK     1      -5.659  -3.204   2.297  1.00  0.00    -0.532 OA
ENDBRANCH  20  23
ENDBRANCH   2  16
TORSDOF 3
