REMARK  5 active torsions:
REMARK  status: ('A' for Active; 'I' for Inactive)
REMARK    1  A    between atoms: C13_21  and  O2_3 
REMARK    2  A    between atoms: C18_26  and  O2_3 
REMARK    3  A    between atoms: C2_10  and  N1_7 
REMARK       I    between atoms: C9_17  and  N1_7 
REMARK    4  A    between atoms: C13_21  and  C4_12 
REMARK    5  A    between atoms: C6_14  and  C9_17 
ROOT
HETATM    1  S1  UNK     1      -2.018  -1.175  -0.251  1.00  0.00    -0.064 SA
HETATM    2  N2  UNK     1       0.185   0.412   4.056  1.00  0.00    -0.191 NA
HETATM    3  C1  UNK     1      -2.478  -1.241   2.276  1.00  0.00    -0.015 A 
HETATM    4  C2  UNK     1      -0.898  -0.456   0.806  1.00  0.00     0.099 A 
HETATM    5  C3  UNK     1      -1.242  -0.550   2.117  1.00  0.00     0.086 A 
HETATM    6  C4  UNK     1      -3.009  -1.636   1.067  1.00  0.00     0.089 A 
HETATM    7  C10 UNK     1      -3.124  -1.506   3.587  1.00  0.00     0.051 C 
HETATM    8  C17 UNK     1      -0.455  -0.019   3.187  1.00  0.00     0.103 C 
ENDROOT
BRANCH   4   9
HETATM    9  N1  UNK     1       0.216   0.130   0.197  1.00  0.00    -0.316 N 
HETATM   10  C9  UNK     1       0.475   0.172  -1.166  1.00  0.00     0.262 C 
HETATM   11  O3  UNK     1      -0.198  -0.281  -2.090  1.00  0.00    -0.267 OA
HETATM   12  H1  UNK     1       0.863   0.572   0.845  1.00  0.00     0.170 HD
BRANCH  10  13
HETATM   13  C6  UNK     1       1.735   0.865  -1.461  1.00  0.00     0.108 A 
HETATM   14  C11 UNK     1       2.874   0.861  -0.516  1.00  0.00     0.304 A 
HETATM   15  O1  UNK     1       4.016   1.553  -0.910  1.00  0.00    -0.274 OA
HETATM   16  O4  UNK     1       2.820   0.277   0.561  1.00  0.00    -0.259 OA
HETATM   17  C8  UNK     1       4.089   2.225  -2.145  1.00  0.00     0.089 A 
HETATM   18  C14 UNK     1       5.274   2.890  -2.452  1.00  0.00     0.038 A 
HETATM   19  C5  UNK     1       3.006   2.217  -3.019  1.00  0.00    -0.001 A 
HETATM   20  C16 UNK     1       5.376   3.565  -3.666  1.00  0.00     0.003 A 
HETATM   21  C15 UNK     1       4.299   3.568  -4.556  1.00  0.00     0.001 A 
HETATM   22  C12 UNK     1       3.116   2.896  -4.235  1.00  0.00     0.014 A 
HETATM   23  C7  UNK     1       1.798   1.502  -2.636  1.00  0.00     0.037 A 
ENDBRANCH  10  13
ENDBRANCH   4   9
BRANCH   6  24
HETATM   24  C13 UNK     1      -4.219  -2.346   0.800  1.00  0.00     0.300 C 
HETATM   25  O5  UNK     1      -4.410  -3.118  -0.168  1.00  0.00    -0.259 OA
BRANCH  24  26
HETATM   26  O2  UNK     1      -5.197  -2.097   1.739  1.00  0.00    -0.317 OA
BRANCH  26  27
HETATM   27  C18 UNK     1      -6.459  -2.753   1.581  1.00  0.00     0.174 C 
HETATM   28  C19 UNK     1      -7.375  -2.339   2.713  1.00  0.00     0.034 C 
ENDBRANCH  26  27
ENDBRANCH  24  26
ENDBRANCH   6  24
TORSDOF 5
