REMARK  3 active torsions:
REMARK  status: ('A' for Active; 'I' for Inactive)
REMARK    1  A    between atoms: C7_11  and  O2_2 
REMARK    2  A    between atoms: C13_17  and  O4_4 
REMARK    3  A    between atoms: C3_7  and  C4_8 
ROOT
HETATM    1  O1  UNK     1       0.629  -0.762   1.634  1.00  0.00    -0.309 OA
HETATM    2  O3  UNK     1      -0.935   0.983  -1.699  1.00  0.00    -0.287 OA
HETATM    3  C1  UNK     1      -0.228   1.231   0.542  1.00  0.00     0.081 A 
HETATM    4  C2  UNK     1       0.311   0.572   1.646  1.00  0.00     0.093 A 
HETATM    5  C3  UNK     1       0.396  -1.486   0.475  1.00  0.00     0.090 A 
HETATM    6  C5  UNK     1      -0.468   0.468  -0.692  1.00  0.00     0.190 A 
HETATM    7  C6  UNK     1      -0.112  -0.965  -0.653  1.00  0.00     0.094 A 
HETATM    8  C7  UNK     1      -0.532   2.593   0.611  1.00  0.00     0.082 A 
HETATM    9  C8  UNK     1       0.549   1.273   2.828  1.00  0.00     0.038 A 
HETATM   10  C11 UNK     1      -0.293   3.291   1.795  1.00  0.00     0.037 A 
HETATM   11  C12 UNK     1       0.246   2.633   2.902  1.00  0.00     0.006 A 
ENDROOT
BRANCH   5  12
HETATM   12  C4  UNK     1       0.778  -2.909   0.570  1.00  0.00     0.001 A 
HETATM   13  C10 UNK     1       1.220  -3.593  -0.566  1.00  0.00     0.014 A 
HETATM   14  C14 UNK     1       1.583  -4.937  -0.477  1.00  0.00     0.004 A 
HETATM   15  C15 UNK     1       1.504  -5.602   0.747  1.00  0.00     0.036 A 
HETATM   16  C13 UNK     1       1.063  -4.922   1.883  1.00  0.00     0.066 A 
HETATM   17  C9  UNK     1       0.701  -3.578   1.794  1.00  0.00     0.050 A 
BRANCH  16  18
HETATM   18  O4  UNK     1       0.989  -5.571   3.077  1.00  0.00    -0.361 OA
HETATM   19  H10 UNK     1       1.277  -6.491   2.954  1.00  0.00     0.217 HD
ENDBRANCH  16  18
ENDBRANCH   5  12
BRANCH   8  20
HETATM   20  O2  UNK     1      -1.060   3.281  -0.439  1.00  0.00    -0.360 OA
HETATM   21  H9  UNK     1      -1.183   2.696  -1.202  1.00  0.00     0.217 HD
ENDBRANCH   8  20
TORSDOF 3
