REMARK  2 active torsions:
REMARK  status: ('A' for Active; 'I' for Inactive)
REMARK    1  A    between atoms: C8_14  and  N1_4 
REMARK    2  A    between atoms: C1_7  and  C5_11 
ROOT
HETATM    1  O1  UNK     1      -0.507   0.645  -2.155  1.00  0.00    -0.291 OA
HETATM    2  O2  UNK     1       2.750   0.308   0.449  1.00  0.00    -0.274 OA
HETATM    3  O3  UNK     1       1.623  -1.260   1.661  1.00  0.00    -0.259 OA
HETATM    4  N3  UNK     1      -3.819  -2.659  -1.006  1.00  0.00    -0.191 NA
HETATM    5  C1  UNK     1      -0.788  -1.117   0.094  1.00  0.00     0.110 C 
HETATM    6  C2  UNK     1       0.468  -0.315  -0.190  1.00  0.00     0.066 A 
HETATM    7  C3  UNK     1       0.532   0.500  -1.253  1.00  0.00     0.104 A 
HETATM    8  C4  UNK     1      -1.786  -1.052  -1.058  1.00  0.00     0.086 C 
HETATM    9  C6  UNK     1       1.724   1.301  -1.521  1.00  0.00     0.033 A 
HETATM   10  C7  UNK     1       1.634  -0.476   0.717  1.00  0.00     0.298 A 
HETATM   11  C8  UNK     1      -1.615  -0.198  -2.093  1.00  0.00     0.159 C 
HETATM   12  C9  UNK     1       2.805   1.184  -0.652  1.00  0.00     0.092 A 
HETATM   13  C11 UNK     1       1.839   2.183  -2.603  1.00  0.00     0.017 A 
HETATM   14  C13 UNK     1       3.981   1.913  -0.828  1.00  0.00     0.038 A 
HETATM   15  C14 UNK     1       3.012   2.921  -2.793  1.00  0.00     0.001 A 
HETATM   16  C15 UNK     1      -2.909  -1.940  -1.029  1.00  0.00     0.100 C 
HETATM   17  C16 UNK     1       4.081   2.786  -1.907  1.00  0.00     0.003 A 
ENDROOT
BRANCH   5  18
HETATM   18  C5  UNK     1      -1.436  -0.646   1.365  1.00  0.00    -0.026 A 
HETATM   19  C10 UNK     1      -1.902   0.651   1.477  1.00  0.00     0.011 A 
HETATM   20  C17 UNK     1      -2.499   1.058   2.665  1.00  0.00     0.020 A 
HETATM   21  C18 UNK     1      -2.597   0.133   3.691  1.00  0.00     0.116 A 
HETATM   22  N2  UNK     1      -2.150  -1.140   3.608  1.00  0.00    -0.273 NA
HETATM   23  C12 UNK     1      -1.576  -1.500   2.438  1.00  0.00     0.124 A 
ENDBRANCH   5  18
BRANCH  11  24
HETATM   24  N1  UNK     1      -2.467  -0.067  -3.155  1.00  0.00    -0.379 N 
HETATM   25  H8  UNK     1      -2.244   0.605  -3.879  1.00  0.00     0.158 HD
HETATM   26  H9  UNK     1      -3.308  -0.625  -3.221  1.00  0.00     0.158 HD
ENDBRANCH  11  24
TORSDOF 2
