REMARK  2 active torsions:
REMARK  status: ('A' for Active; 'I' for Inactive)
REMARK    1  A    between atoms: C6_12  and  N1_4 
REMARK    2  A    between atoms: C6_12  and  C7_13 
ROOT
HETATM    1  O1  UNK     1      -0.164   1.150  -0.847  1.00  0.00    -0.273 OA
HETATM    2  O2  UNK     1       4.328   2.544   0.036  1.00  0.00    -0.288 OA
HETATM    3  O3  UNK     1      -2.286   0.475  -1.243  1.00  0.00    -0.259 OA
HETATM    4  N2  UNK     1      -3.510  -1.067   0.414  1.00  0.00    -0.340 N 
HETATM    5  N3  UNK     1      -2.419  -1.755   2.292  1.00  0.00    -0.340 N 
HETATM    6  C7  UNK     1       2.089   1.897  -0.482  1.00  0.00     0.055 A 
HETATM    7  C8  UNK     1       1.025   1.182  -0.071  1.00  0.00     0.101 A 
HETATM    8  C9  UNK     1       1.051   0.426   1.169  1.00  0.00    -0.000 A 
HETATM    9  C10 UNK     1       3.330   1.909   0.363  1.00  0.00     0.182 A 
HETATM   10  C11 UNK     1      -1.232  -0.299   0.754  1.00  0.00     0.084 A 
HETATM   11  C12 UNK     1      -0.029  -0.273   1.548  1.00  0.00     0.035 A 
HETATM   12  C13 UNK     1       2.245   0.431   1.994  1.00  0.00     0.018 A 
HETATM   13  C14 UNK     1       3.327   1.126   1.627  1.00  0.00     0.056 A 
HETATM   14  C15 UNK     1      -2.316  -0.995   1.128  1.00  0.00     0.122 A 
HETATM   15  C16 UNK     1      -1.297   0.457  -0.520  1.00  0.00     0.302 A 
HETATM   16  C17 UNK     1      -4.381  -1.887   1.138  1.00  0.00     0.060 A 
HETATM   17  C18 UNK     1      -3.701  -2.316   2.311  1.00  0.00     0.060 A 
HETATM   18  C19 UNK     1      -5.673  -2.275   0.872  1.00  0.00     0.032 A 
HETATM   19  C20 UNK     1      -4.302  -3.141   3.232  1.00  0.00     0.032 A 
HETATM   20  C21 UNK     1      -6.292  -3.114   1.804  1.00  0.00     0.002 A 
HETATM   21  C22 UNK     1      -5.616  -3.541   2.968  1.00  0.00     0.002 A 
HETATM   22  H16 UNK     1      -3.701  -0.612  -0.461  1.00  0.00     0.167 HD
HETATM   23  H17 UNK     1      -1.706  -1.877   2.988  1.00  0.00     0.167 HD
ENDROOT
BRANCH   6  24
HETATM   24  C6  UNK     1       2.138   2.702  -1.746  1.00  0.00     0.318 C 
BRANCH  24  25
HETATM   25  N1  UNK     1       3.166   2.212  -2.663  1.00  0.00     0.092 N 
HETATM   26  C1  UNK     1       2.902   0.815  -3.032  1.00  0.00     0.272 C 
HETATM   27  C3  UNK     1       3.995   0.271  -3.953  1.00  0.00     0.030 C 
HETATM   28  C5  UNK     1       4.158   1.141  -5.195  1.00  0.00     0.003 C 
HETATM   29  C4  UNK     1       4.349   2.601  -4.801  1.00  0.00     0.030 C 
HETATM   30  C2  UNK     1       3.244   3.071  -3.853  1.00  0.00     0.272 C 
ENDBRANCH  24  25
ENDBRANCH   6  24
TORSDOF 2
