REMARK  1 active torsions:
REMARK  status: ('A' for Active; 'I' for Inactive)
REMARK    1  A    between atoms: C2_7  and  C4_9 
ROOT
HETATM    1 Cl2  UNK     1      -4.711  -2.407   3.034  1.00  0.00    -0.084 Cl
HETATM    2  O1  UNK     1       0.105   0.025   0.693  1.00  0.00    -0.309 OA
HETATM    3  O2  UNK     1      -2.849  -1.166  -1.850  1.00  0.00    -0.287 OA
HETATM    4  C1  UNK     1      -2.085  -0.979   0.379  1.00  0.00     0.050 A 
HETATM    5  C2  UNK     1       0.219   0.176  -0.680  1.00  0.00     0.091 A 
HETATM    6  C3  UNK     1      -1.037  -0.548   1.192  1.00  0.00     0.090 A 
HETATM    7  C5  UNK     1      -1.967  -0.813  -1.079  1.00  0.00     0.187 A 
HETATM    8  C6  UNK     1      -0.719  -0.193  -1.567  1.00  0.00     0.093 A 
HETATM    9  C7  UNK     1      -3.225  -1.556   0.942  1.00  0.00     0.042 A 
HETATM   10  C8  UNK     1      -1.125  -0.692   2.576  1.00  0.00     0.040 A 
HETATM   11  C11 UNK     1      -3.310  -1.699   2.328  1.00  0.00     0.035 A 
HETATM   12  C12 UNK     1      -2.262  -1.268   3.143  1.00  0.00     0.026 A 
ENDROOT
BRANCH   5  13
HETATM   13  C4  UNK     1       1.443   0.785  -1.106  1.00  0.00     0.020 A 
HETATM   14  C10 UNK     1       2.529  -0.049  -1.392  1.00  0.00     0.017 A 
HETATM   15  C14 UNK     1       3.743   0.496  -1.809  1.00  0.00     0.025 A 
HETATM   16  C15 UNK     1       3.878   1.878  -1.942  1.00  0.00     0.035 A 
HETATM   17  C13 UNK     1       2.799   2.715  -1.659  1.00  0.00     0.048 A 
HETATM   18 Cl3  UNK     1       5.377   2.550  -2.456  1.00  0.00    -0.084 Cl
HETATM   19  C9  UNK     1       1.584   2.170  -1.242  1.00  0.00     0.048 A 
HETATM   20 Cl1  UNK     1       0.278   3.252  -0.904  1.00  0.00    -0.083 Cl
ENDBRANCH   5  13
TORSDOF 1
