REMARK  3 active torsions:
REMARK  status: ('A' for Active; 'I' for Inactive)
REMARK    1  A    between atoms: C7_12  and  O2_2 
REMARK    2  A    between atoms: C1_6  and  N1_5 
REMARK       I    between atoms: C9_14  and  N1_5 
REMARK    3  A    between atoms: C3_8  and  C9_14 
ROOT
HETATM    1  O3  UNK     1       0.232   0.651   1.886  1.00  0.00    -0.267 OA
HETATM    2  N1  UNK     1      -1.045  -0.456   0.246  1.00  0.00    -0.320 N 
HETATM    3  C9  UNK     1      -0.010   0.338   0.722  1.00  0.00     0.262 C 
HETATM    4  H3  UNK     1      -1.093  -0.642  -0.753  1.00  0.00     0.169 HD
ENDROOT
BRANCH   3   5
HETATM    5  C3  UNK     1       0.857   0.824  -0.359  1.00  0.00     0.108 A 
HETATM    6  C12 UNK     1       0.345   1.068  -1.726  1.00  0.00     0.304 A 
HETATM    7  O1  UNK     1       1.265   1.530  -2.664  1.00  0.00    -0.274 OA
HETATM    8  O4  UNK     1      -0.829   0.877  -2.023  1.00  0.00    -0.259 OA
HETATM    9  C4  UNK     1       2.616   1.754  -2.333  1.00  0.00     0.089 A 
HETATM   10  C14 UNK     1       3.461   2.216  -3.339  1.00  0.00     0.038 A 
HETATM   11  C2  UNK     1       3.075   1.517  -1.041  1.00  0.00    -0.001 A 
HETATM   12  C17 UNK     1       4.802   2.447  -3.042  1.00  0.00     0.003 A 
HETATM   13  C16 UNK     1       5.282   2.215  -1.751  1.00  0.00     0.001 A 
HETATM   14  C13 UNK     1       4.422   1.751  -0.752  1.00  0.00     0.014 A 
HETATM   15  C5  UNK     1       2.139   1.035  -0.038  1.00  0.00     0.037 A 
ENDBRANCH   3   5
BRANCH   2  16
HETATM   16  C1  UNK     1      -2.063  -1.091   0.998  1.00  0.00     0.069 A 
HETATM   17  C7  UNK     1      -3.024  -1.854   0.355  1.00  0.00     0.095 A 
HETATM   18  C11 UNK     1      -4.021  -2.473   1.109  1.00  0.00     0.039 A 
HETATM   19  C10 UNK     1      -4.042  -2.321   2.496  1.00  0.00     0.009 A 
HETATM   20  C6  UNK     1      -3.067  -1.550   3.128  1.00  0.00    -0.060 A 
HETATM   21  C15 UNK     1      -3.090  -1.389   4.611  1.00  0.00     0.048 C 
HETATM   22  C8  UNK     1      -2.070  -0.931   2.374  1.00  0.00     0.039 A 
BRANCH  17  23
HETATM   23  O2  UNK     1      -3.019  -2.016  -0.998  1.00  0.00    -0.354 OA
HETATM   24  C18 UNK     1      -3.750  -1.063  -1.767  1.00  0.00     0.210 C 
ENDBRANCH  17  23
ENDBRANCH   2  16
TORSDOF 3
