REMARK  3 active torsions:
REMARK  status: ('A' for Active; 'I' for Inactive)
REMARK    1  A    between atoms: C11_18  and  O4_4 
REMARK       I    between atoms: C10_17  and  N1_7 
REMARK    2  A    between atoms: C2_9  and  N1_7 
REMARK    3  A    between atoms: C10_17  and  C5_12 
ROOT
HETATM    1  O1  UNK     1       2.881   1.017  -0.464  1.00  0.00    -0.271 OA
HETATM    2  O6  UNK     1       1.684  -0.119   1.115  1.00  0.00    -0.259 OA
HETATM    3  C1  UNK     1       1.872   1.491  -2.625  1.00  0.00     0.002 A 
HETATM    4  C3  UNK     1       2.954   1.576  -1.755  1.00  0.00     0.123 A 
HETATM    5  C5  UNK     1       0.600   0.284  -0.953  1.00  0.00     0.108 A 
HETATM    6  C7  UNK     1       0.664   0.813  -2.180  1.00  0.00     0.037 A 
HETATM    7  C11 UNK     1       4.140   2.211  -2.119  1.00  0.00     0.102 A 
HETATM    8  C13 UNK     1       1.982   2.058  -3.896  1.00  0.00     0.014 A 
HETATM    9  C14 UNK     1       1.739   0.364  -0.010  1.00  0.00     0.304 A 
HETATM   10  C16 UNK     1       4.242   2.775  -3.389  1.00  0.00     0.040 A 
HETATM   11  C17 UNK     1       3.166   2.699  -4.276  1.00  0.00     0.004 A 
ENDROOT
BRANCH   5  12
HETATM   12  C10 UNK     1      -0.661  -0.378  -0.597  1.00  0.00     0.262 C 
HETATM   13  O5  UNK     1      -1.338  -0.913  -1.473  1.00  0.00    -0.267 OA
HETATM   14  N1  UNK     1      -0.926  -0.302   0.763  1.00  0.00    -0.323 N 
HETATM   15  H3  UNK     1      -0.270   0.199   1.357  1.00  0.00     0.169 HD
BRANCH  14  16
HETATM   16  C2  UNK     1      -2.046  -0.825   1.456  1.00  0.00     0.037 A 
HETATM   17  C8  UNK     1      -3.021  -1.504   0.741  1.00  0.00     0.069 A 
HETATM   18  C4  UNK     1      -4.092  -1.996   1.459  1.00  0.00     0.107 A 
HETATM   19  O2  UNK     1      -5.148  -2.685   0.946  1.00  0.00    -0.323 OA
HETATM   20  C6  UNK     1      -4.192  -1.824   2.820  1.00  0.00     0.105 A 
HETATM   21  C15 UNK     1      -5.923  -2.928   2.138  1.00  0.00     0.352 A 
HETATM   22  O3  UNK     1      -5.322  -2.384   3.331  1.00  0.00    -0.323 OA
HETATM   23  C12 UNK     1      -3.226  -1.151   3.540  1.00  0.00     0.042 A 
HETATM   24  C9  UNK     1      -2.131  -0.642   2.837  1.00  0.00     0.032 A 
ENDBRANCH  14  16
ENDBRANCH   5  12
BRANCH   7  25
HETATM   25  O4  UNK     1       5.190   2.288  -1.259  1.00  0.00    -0.353 OA
HETATM   26  C18 UNK     1       5.243   3.423  -0.396  1.00  0.00     0.210 C 
ENDBRANCH   7  25
TORSDOF 3
