REMARK  2 active torsions:
REMARK  status: ('A' for Active; 'I' for Inactive)
REMARK    1  A    between atoms: C11_14  and  O3_3 
REMARK    2  A    between atoms: C1_4  and  C3_6 
ROOT
HETATM    1  O1  UNK     1      -0.278   0.211  -0.816  1.00  0.00    -0.340 OA
HETATM    2  O2  UNK     1      -0.230   2.003   2.875  1.00  0.00    -0.292 OA
HETATM    3  C1  UNK     1       0.924   0.808  -0.306  1.00  0.00     0.169 C 
HETATM    4  C2  UNK     1       0.604   1.976   0.626  1.00  0.00     0.121 C 
HETATM    5  C4  UNK     1      -1.149   0.353   1.458  1.00  0.00     0.043 A 
HETATM    6  C5  UNK     1      -0.242   1.477   1.768  1.00  0.00     0.165 C 
HETATM    7  C6  UNK     1      -1.131  -0.202   0.175  1.00  0.00     0.086 A 
HETATM    8  C7  UNK     1      -2.044  -0.122   2.420  1.00  0.00     0.021 A 
HETATM    9  C8  UNK     1      -2.036  -1.211  -0.157  1.00  0.00     0.074 A 
HETATM   10  C11 UNK     1      -2.932  -1.685   0.801  1.00  0.00     0.070 A 
HETATM   11  C12 UNK     1      -2.932  -1.145   2.088  1.00  0.00     0.038 A 
ENDROOT
BRANCH   3  12
HETATM   12  C3  UNK     1       1.769   1.261  -1.478  1.00  0.00    -0.029 A 
HETATM   13  C10 UNK     1       3.160   1.239  -1.384  1.00  0.00     0.010 A 
HETATM   14  C14 UNK     1       3.938   1.656  -2.464  1.00  0.00     0.001 A 
HETATM   15  C15 UNK     1       3.325   2.095  -3.637  1.00  0.00     0.000 A 
HETATM   16  C13 UNK     1       1.933   2.117  -3.731  1.00  0.00     0.001 A 
HETATM   17  C9  UNK     1       1.155   1.700  -2.651  1.00  0.00     0.010 A 
ENDBRANCH   3  12
BRANCH  10  18
HETATM   18  O3  UNK     1      -3.808  -2.677   0.481  1.00  0.00    -0.356 OA
HETATM   19  C16 UNK     1      -4.696  -3.115   1.508  1.00  0.00     0.210 C 
ENDBRANCH  10  18
TORSDOF 2
