REMARK  2 active torsions:
REMARK  status: ('A' for Active; 'I' for Inactive)
REMARK    1  A    between atoms: C1_6  and  C8_13 
REMARK    2  A    between atoms: C6_11  and  C9_14 
ROOT
HETATM    1  O1  UNK     1      -0.665   3.308  -1.424  1.00  0.00    -0.293 OA
HETATM    2  N1  UNK     1       1.739  -0.183   0.872  1.00  0.00    -0.357 N 
HETATM    3  N2  UNK     1      -0.585   1.336   2.033  1.00  0.00    -0.375 N 
HETATM    4  C1  UNK     1       2.364   1.665  -2.328  1.00  0.00     0.031 C 
HETATM    5  C2  UNK     1       2.717   0.983  -1.002  1.00  0.00     0.067 C 
HETATM    6  C3  UNK     1       0.407   1.556  -0.202  1.00  0.00     0.037 C 
HETATM    7  C4  UNK     1       1.529   0.816  -0.061  1.00  0.00     0.022 C 
HETATM    8  C5  UNK     1       1.600   2.950  -2.043  1.00  0.00     0.093 C 
HETATM    9  C6  UNK     1      -0.850   1.355   0.605  1.00  0.00     0.160 C 
HETATM   10  C7  UNK     1       0.355   2.642  -1.248  1.00  0.00     0.160 C 
HETATM   11  C10 UNK     1       1.159  -0.414   2.136  1.00  0.00     0.059 A 
HETATM   12  C11 UNK     1       0.119   0.344   2.700  1.00  0.00     0.055 A 
HETATM   13  C16 UNK     1       1.723  -1.462   2.902  1.00  0.00     0.032 A 
HETATM   14  C17 UNK     1      -0.282   0.056   4.025  1.00  0.00     0.031 A 
HETATM   15  C22 UNK     1       1.298  -1.740   4.200  1.00  0.00     0.002 A 
HETATM   16  C23 UNK     1       0.297  -0.971   4.767  1.00  0.00     0.002 A 
HETATM   17  H7  UNK     1       2.536  -0.781   0.671  1.00  0.00     0.166 HD
HETATM   18  H8  UNK     1      -1.191   1.917   2.605  1.00  0.00     0.160 HD
ENDROOT
BRANCH   9  19
HETATM   19  C9  UNK     1      -1.628   0.142   0.187  1.00  0.00     0.042 A 
HETATM   20  C14 UNK     1      -2.893  -0.170   0.900  1.00  0.00     0.195 A 
HETATM   21  O3  UNK     1      -3.315   0.529   1.812  1.00  0.00    -0.287 OA
HETATM   22  C18 UNK     1      -3.617  -1.373   0.449  1.00  0.00     0.049 A 
HETATM   23  C21 UNK     1      -3.088  -2.132  -0.595  1.00  0.00     0.089 A 
HETATM   24  C25 UNK     1      -4.818  -1.751   1.056  1.00  0.00     0.025 A 
HETATM   25  O2  UNK     1      -1.915  -1.807  -1.227  1.00  0.00    -0.321 OA
HETATM   26  C26 UNK     1      -3.757  -3.274  -1.038  1.00  0.00     0.039 A 
HETATM   27  C15 UNK     1      -1.251  -0.684  -0.797  1.00  0.00     0.156 A 
HETATM   28  C28 UNK     1      -4.955  -3.653  -0.433  1.00  0.00     0.009 A 
HETATM   29  C27 UNK     1      -5.484  -2.893   0.612  1.00  0.00    -0.061 A 
HETATM   30  C29 UNK     1      -6.767  -3.304   1.254  1.00  0.00     0.048 C 
ENDBRANCH   9  19
BRANCH   4  31
HETATM   31  C8  UNK     1       3.590   1.898  -3.190  1.00  0.00    -0.053 A 
HETATM   32  C12 UNK     1       4.307   3.087  -3.070  1.00  0.00     0.007 A 
HETATM   33  C19 UNK     1       5.434   3.302  -3.863  1.00  0.00     0.001 A 
HETATM   34  C24 UNK     1       5.842   2.328  -4.774  1.00  0.00     0.000 A 
HETATM   35  C20 UNK     1       5.123   1.139  -4.893  1.00  0.00     0.001 A 
HETATM   36  C13 UNK     1       3.996   0.924  -4.100  1.00  0.00     0.007 A 
ENDBRANCH   4  31
TORSDOF 2
