REMARK  6 active torsions:
REMARK  status: ('A' for Active; 'I' for Inactive)
REMARK    1  A    between atoms: C11_20  and  O2_3 
REMARK    2  A    between atoms: C3_12  and  N1_8 
REMARK       I    between atoms: C9_18  and  N1_8 
REMARK    3  A    between atoms: C15_24  and  N2_9 
REMARK       I    between atoms: C7_16  and  N2_9 
REMARK    4  A    between atoms: C11_20  and  C2_11 
REMARK    5  A    between atoms: C4_13  and  C7_16 
REMARK    6  A    between atoms: C6_15  and  C9_18 
ROOT
HETATM    1  S1  UNK     1      -1.359  -0.191   0.394  1.00  0.00    -0.065 SA
HETATM    2  C1  UNK     1      -0.798  -0.638   2.861  1.00  0.00    -0.020 A 
HETATM    3  C2  UNK     1       0.374  -0.069   2.286  1.00  0.00     0.080 A 
HETATM    4  C3  UNK     1       0.189   0.210   0.970  1.00  0.00     0.094 A 
HETATM    5  C4  UNK     1      -1.818  -0.761   1.942  1.00  0.00     0.082 A 
HETATM    6  C5  UNK     1      -0.909  -1.051   4.283  1.00  0.00     0.051 C 
ENDROOT
BRANCH   4   7
HETATM    7  N1  UNK     1       1.060   0.768   0.030  1.00  0.00    -0.316 N 
HETATM    8  C9  UNK     1       0.773   1.016  -1.305  1.00  0.00     0.262 C 
HETATM    9  O4  UNK     1      -0.272   0.804  -1.918  1.00  0.00    -0.267 OA
HETATM   10  H1  UNK     1       1.985   0.982   0.391  1.00  0.00     0.169 HD
BRANCH   8  11
HETATM   11  C6  UNK     1       1.916   1.608  -2.010  1.00  0.00     0.108 A 
HETATM   12  C10 UNK     1       2.016   1.330  -3.315  1.00  0.00     0.037 A 
HETATM   13  C8  UNK     1       3.115   1.871  -4.099  1.00  0.00    -0.001 A 
HETATM   14  C12 UNK     1       4.057   2.678  -3.469  1.00  0.00     0.089 A 
HETATM   15  C14 UNK     1       3.258   1.607  -5.463  1.00  0.00     0.014 A 
HETATM   16  O1  UNK     1       3.947   2.968  -2.095  1.00  0.00    -0.274 OA
HETATM   17  C16 UNK     1       5.134   3.227  -4.162  1.00  0.00     0.038 A 
HETATM   18  C13 UNK     1       2.907   2.465  -1.319  1.00  0.00     0.304 A 
HETATM   19  O6  UNK     1       2.820   2.722  -0.123  1.00  0.00    -0.259 OA
HETATM   20  C18 UNK     1       5.269   2.958  -5.523  1.00  0.00     0.003 A 
HETATM   21  C17 UNK     1       4.334   2.150  -6.172  1.00  0.00     0.001 A 
ENDBRANCH   8  11
ENDBRANCH   4   7
BRANCH   3  22
HETATM   22  C11 UNK     1       1.609   0.189   2.986  1.00  0.00     0.296 C 
HETATM   23  O5  UNK     1       1.676   0.458   4.194  1.00  0.00    -0.259 OA
BRANCH  22  24
HETATM   24  O2  UNK     1       2.730   0.110   2.188  1.00  0.00    -0.322 OA
HETATM   25  C24 UNK     1       3.991   0.355   2.820  1.00  0.00     0.213 C 
ENDBRANCH  22  24
ENDBRANCH   3  22
BRANCH   5  26
HETATM   26  C7  UNK     1      -3.137  -1.279   2.119  1.00  0.00     0.263 C 
HETATM   27  O3  UNK     1      -3.765  -1.179   3.199  1.00  0.00    -0.267 OA
HETATM   28  N2  UNK     1      -3.723  -1.885   0.984  1.00  0.00    -0.323 N 
HETATM   29  H6  UNK     1      -3.146  -1.921   0.146  1.00  0.00     0.169 HD
BRANCH  28  30
HETATM   30  C15 UNK     1      -5.014  -2.453   0.833  1.00  0.00     0.035 A 
HETATM   31  C19 UNK     1      -5.883  -2.451   1.909  1.00  0.00     0.029 A 
HETATM   32  C21 UNK     1      -7.152  -3.009   1.760  1.00  0.00     0.002 A 
HETATM   33  C23 UNK     1      -7.532  -3.560   0.537  1.00  0.00     0.000 A 
HETATM   34  C22 UNK     1      -6.643  -3.553  -0.538  1.00  0.00     0.002 A 
HETATM   35  C20 UNK     1      -5.373  -2.995  -0.389  1.00  0.00     0.029 A 
ENDBRANCH  28  30
ENDBRANCH   5  26
TORSDOF 6
