REMARK  6 active torsions:
REMARK  status: ('A' for Active; 'I' for Inactive)
REMARK    1  A    between atoms: C1_7  and  O1_4 
REMARK    2  A    between atoms: C4_10  and  O1_4 
REMARK    3  A    between atoms: C3_9  and  O2_5 
REMARK    4  A    between atoms: C2_8  and  C9_15 
REMARK    5  A    between atoms: C4_10  and  C6_12 
REMARK    6  A    between atoms: C10_16  and  C11_17 
ROOT
HETATM    1  N1  UNK     1      -3.520   1.490   1.330  1.00  0.00    -0.191 NA
HETATM    2  C9  UNK     1      -1.735  -1.444   1.019  1.00  0.00     0.036 C 
HETATM    3  C10 UNK     1      -2.971  -1.050   1.427  1.00  0.00     0.055 C 
HETATM    4  C23 UNK     1      -3.266   0.358   1.370  1.00  0.00     0.100 C 
ENDROOT
BRANCH   3   5
HETATM    5  C11 UNK     1      -3.996  -1.965   1.904  1.00  0.00    -0.015 A 
HETATM    6  C16 UNK     1      -4.896  -2.535   1.004  1.00  0.00     0.014 A 
HETATM    7  C19 UNK     1      -5.879  -3.412   1.462  1.00  0.00     0.024 A 
HETATM    8  C21 UNK     1      -5.962  -3.719   2.820  1.00  0.00     0.034 A 
HETATM    9  C20 UNK     1      -5.062  -3.149   3.720  1.00  0.00     0.024 A 
HETATM   10 Cl1  UNK     1      -7.176  -4.801   3.385  1.00  0.00    -0.084 Cl
HETATM   11  C17 UNK     1      -4.079  -2.272   3.262  1.00  0.00     0.014 A 
ENDBRANCH   3   5
BRANCH   2  12
HETATM   12  C2  UNK     1      -0.672  -0.557   0.525  1.00  0.00    -0.015 A 
HETATM   13  C5  UNK     1      -0.632  -0.319  -0.844  1.00  0.00     0.052 A 
HETATM   14  C3  UNK     1       0.355   0.515  -1.368  1.00  0.00     0.102 A 
HETATM   15  C1  UNK     1       1.294   1.104  -0.521  1.00  0.00     0.103 A 
HETATM   16  C7  UNK     1       1.245   0.859   0.852  1.00  0.00     0.059 A 
HETATM   17  C8  UNK     1       0.258   0.025   1.376  1.00  0.00     0.024 A 
HETATM   18 Br1  UNK     1       0.248  -0.267   3.254  1.00  0.00    -0.050 Br
BRANCH  14  19
HETATM   19  O2  UNK     1       0.393   0.747  -2.710  1.00  0.00    -0.353 OA
HETATM   20  C22 UNK     1      -0.355   1.860  -3.197  1.00  0.00     0.210 C 
ENDBRANCH  14  19
BRANCH  15  21
HETATM   21  O1  UNK     1       2.262   1.921  -1.021  1.00  0.00    -0.344 OA
BRANCH  21  22
HETATM   22  C4  UNK     1       3.616   1.529  -0.805  1.00  0.00     0.214 C 
BRANCH  22  23
HETATM   23  C6  UNK     1       4.464   2.057  -1.925  1.00  0.00    -0.034 A 
HETATM   24  C12 UNK     1       4.659   1.283  -3.064  1.00  0.00     0.011 A 
HETATM   25  C14 UNK     1       5.448   1.773  -4.104  1.00  0.00     0.019 A 
HETATM   26  C18 UNK     1       6.036   3.034  -4.000  1.00  0.00     0.011 A 
HETATM   27 Br2  UNK     1       7.106   3.697  -5.410  1.00  0.00    -0.051 Br
HETATM   28  C15 UNK     1       5.836   3.805  -2.855  1.00  0.00     0.019 A 
HETATM   29  C13 UNK     1       5.047   3.314  -1.814  1.00  0.00     0.011 A 
ENDBRANCH  22  23
ENDBRANCH  21  22
ENDBRANCH  15  21
ENDBRANCH   2  12
TORSDOF 6
