REMARK  2 active torsions:
REMARK  status: ('A' for Active; 'I' for Inactive)
REMARK    1  A    between atoms: C18_23  and  O4_4 
REMARK       I    between atoms: C6_11  and  N1_5 
REMARK    2  A    between atoms: C6_11  and  C9_14 
ROOT
HETATM    1  O2  UNK     1      -0.571  -0.918   2.527  1.00  0.00    -0.274 OA
HETATM    2  O3  UNK     1       1.422   0.191   2.387  1.00  0.00    -0.259 OA
HETATM    3  C9  UNK     1      -0.145   0.600   0.658  1.00  0.00     0.108 A 
HETATM    4  C12 UNK     1      -1.353   0.346   0.141  1.00  0.00     0.037 A 
HETATM    5  C13 UNK     1      -2.256  -0.579   0.808  1.00  0.00     0.002 A 
HETATM    6  C14 UNK     1       0.316  -0.039   1.911  1.00  0.00     0.304 A 
HETATM    7  C15 UNK     1      -1.843  -1.190   1.987  1.00  0.00     0.089 A 
HETATM    8  C16 UNK     1      -3.525  -0.875   0.304  1.00  0.00     0.051 A 
HETATM    9  C17 UNK     1      -2.660  -2.085   2.675  1.00  0.00     0.041 A 
HETATM   10  C18 UNK     1      -4.356  -1.771   0.983  1.00  0.00     0.069 A 
HETATM   11  C19 UNK     1      -3.924  -2.374   2.166  1.00  0.00     0.039 A 
ENDROOT
BRANCH   3  12
HETATM   12  C6  UNK     1       0.699   1.553  -0.093  1.00  0.00     0.264 C 
HETATM   13  O1  UNK     1       0.586   2.746   0.189  1.00  0.00    -0.267 OA
HETATM   14  N1  UNK     1       1.532   1.016  -1.063  1.00  0.00    -0.308 N 
HETATM   15  C1  UNK     1       1.701  -0.422  -1.438  1.00  0.00     0.093 C 
HETATM   16  C4  UNK     1       2.401   1.775  -1.887  1.00  0.00     0.044 A 
HETATM   17  C2  UNK     1       2.422  -0.431  -2.802  1.00  0.00     0.066 C 
HETATM   18  C5  UNK     1       2.531  -1.169  -0.387  1.00  0.00     0.033 C 
HETATM   19  C3  UNK     1       2.965   0.959  -2.871  1.00  0.00    -0.029 A 
HETATM   20  C7  UNK     1       3.851   1.464  -3.810  1.00  0.00     0.009 A 
HETATM   21  C10 UNK     1       4.183   2.817  -3.749  1.00  0.00     0.001 A 
HETATM   22  C11 UNK     1       3.618   3.641  -2.766  1.00  0.00     0.002 A 
HETATM   23  C8  UNK     1       2.717   3.125  -1.828  1.00  0.00     0.030 A 
ENDBRANCH   3  12
BRANCH  10  24
HETATM   24  O4  UNK     1      -5.592  -2.057   0.487  1.00  0.00    -0.356 OA
HETATM   25  C20 UNK     1      -6.389  -2.980   1.227  1.00  0.00     0.210 C 
ENDBRANCH  10  24
TORSDOF 2
