REMARK  2 active torsions:
REMARK  status: ('A' for Active; 'I' for Inactive)
REMARK    1  A    between atoms: C9_12  and  O2_2 
REMARK    2  A    between atoms: C1_4  and  C4_7 
ROOT
HETATM    1  O1  UNK     1       0.431  -1.210   1.739  1.00  0.00    -0.309 OA
HETATM    2  O3  UNK     1       0.258  -3.121  -1.855  1.00  0.00    -0.287 OA
HETATM    3  C1  UNK     1       0.048  -0.550   0.581  1.00  0.00     0.093 A 
HETATM    4  C2  UNK     1       0.705  -3.258   0.461  1.00  0.00     0.048 A 
HETATM    5  C3  UNK     1       0.746  -2.543   1.657  1.00  0.00     0.090 A 
HETATM    6  C5  UNK     1      -0.023  -1.126  -0.630  1.00  0.00     0.094 A 
HETATM    7  C6  UNK     1       0.310  -2.558  -0.771  1.00  0.00     0.187 A 
HETATM    8  C7  UNK     1       1.038  -4.614   0.437  1.00  0.00     0.018 A 
HETATM    9  C8  UNK     1       1.120  -3.182   2.839  1.00  0.00     0.038 A 
HETATM   10  C11 UNK     1       1.411  -5.251   1.621  1.00  0.00     0.001 A 
HETATM   11  C12 UNK     1       1.452  -4.537   2.819  1.00  0.00     0.003 A 
ENDROOT
BRANCH   3  12
HETATM   12  C4  UNK     1      -0.264   0.880   0.781  1.00  0.00     0.031 A 
HETATM   13  C10 UNK     1      -1.578   1.256   1.076  1.00  0.00     0.017 A 
HETATM   14  C14 UNK     1      -1.897   2.601   1.269  1.00  0.00     0.001 A 
HETATM   15  C15 UNK     1      -0.903   3.575   1.167  1.00  0.00     0.003 A 
HETATM   16  C13 UNK     1       0.409   3.204   0.873  1.00  0.00     0.037 A 
HETATM   17  C9  UNK     1       0.728   1.860   0.680  1.00  0.00     0.078 A 
BRANCH  17  18
HETATM   18  O2  UNK     1       2.019   1.526   0.394  1.00  0.00    -0.360 OA
HETATM   19  H10 UNK     1       2.559   2.334   0.365  1.00  0.00     0.217 HD
ENDBRANCH  17  18
ENDBRANCH   3  12
TORSDOF 2
