REMARK  8 active torsions:
REMARK  status: ('A' for Active; 'I' for Inactive)
REMARK    1  A    between atoms: C7_15  and  O2_2 
REMARK    2  A    between atoms: C10_18  and  O3_3 
REMARK    3  A    between atoms: C11_19  and  O5_5 
REMARK    4  A    between atoms: C1_9  and  N1_8 
REMARK       I    between atoms: C6_14  and  N1_8 
REMARK    5  A    between atoms: C1_9  and  C2_10 
REMARK    6  A    between atoms: C1_9  and  C3_11 
REMARK    7  A    between atoms: C11_19  and  C3_11 
REMARK    8  A    between atoms: C6_14  and  C8_16 
ROOT
HETATM    1  C1  UNK     1      -1.908  -0.451  -1.050  1.00  0.00     0.128 C 
ENDROOT
BRANCH   1   2
HETATM    2  N1  UNK     1      -0.576   0.013  -1.364  1.00  0.00    -0.348 N 
HETATM    3  C6  UNK     1      -0.244   1.353  -1.446  1.00  0.00     0.258 C 
HETATM    4  O4  UNK     1      -1.006   2.302  -1.270  1.00  0.00    -0.267 OA
HETATM    5  H4  UNK     1       0.155  -0.684  -1.480  1.00  0.00     0.163 HD
BRANCH   3   6
HETATM    6  C8  UNK     1       1.169   1.572  -1.776  1.00  0.00     0.108 A 
HETATM    7  C12 UNK     1       2.011   1.664  -0.739  1.00  0.00     0.037 A 
HETATM    8  C13 UNK     1       3.431   1.881  -0.965  1.00  0.00    -0.001 A 
HETATM    9  C14 UNK     1       3.896   1.991  -2.272  1.00  0.00     0.089 A 
HETATM   10  C16 UNK     1       4.346   1.983   0.086  1.00  0.00     0.014 A 
HETATM   11  O1  UNK     1       3.005   1.893  -3.359  1.00  0.00    -0.274 OA
HETATM   12  C17 UNK     1       5.244   2.200  -2.556  1.00  0.00     0.038 A 
HETATM   13  C15 UNK     1       1.641   1.685  -3.174  1.00  0.00     0.304 A 
HETATM   14  O7  UNK     1       0.873   1.602  -4.126  1.00  0.00    -0.259 OA
HETATM   15  C19 UNK     1       6.149   2.301  -1.502  1.00  0.00     0.003 A 
HETATM   16  C18 UNK     1       5.701   2.193  -0.184  1.00  0.00     0.001 A 
ENDBRANCH   3   6
ENDBRANCH   1   2
BRANCH   1  17
HETATM   17  C2  UNK     1      -2.085  -0.558   0.452  1.00  0.00    -0.032 A 
HETATM   18  C4  UNK     1      -1.331  -1.480   1.154  1.00  0.00     0.049 A 
HETATM   19  C7  UNK     1      -1.493  -1.579   2.535  1.00  0.00     0.102 A 
HETATM   20  C10 UNK     1      -2.408  -0.755   3.191  1.00  0.00     0.101 A 
HETATM   21  C9  UNK     1      -3.160   0.168   2.465  1.00  0.00     0.040 A 
HETATM   22  C5  UNK     1      -2.997   0.268   1.083  1.00  0.00     0.012 A 
BRANCH  19  23
HETATM   23  O2  UNK     1      -0.755  -2.486   3.234  1.00  0.00    -0.353 OA
HETATM   24  C20 UNK     1      -1.312  -3.789   3.395  1.00  0.00     0.210 C 
ENDBRANCH  19  23
BRANCH  20  25
HETATM   25  O3  UNK     1      -2.576  -0.843   4.540  1.00  0.00    -0.353 OA
HETATM   26  C21 UNK     1      -3.531   0.036   5.132  1.00  0.00     0.210 C 
ENDBRANCH  20  25
ENDBRANCH   1  17
BRANCH   1  27
HETATM   27  C3  UNK     1      -2.193  -1.762  -1.801  1.00  0.00     0.140 C 
BRANCH  27  28
HETATM   28  C11 UNK     1      -3.599  -2.283  -1.590  1.00  0.00     0.141 C 
HETATM   29  O6  UNK     1      -4.586  -1.596  -1.365  1.00  0.00    -0.650 OA
BRANCH  28  30
HETATM   30  O5  UNK     1      -3.642  -3.640  -1.654  1.00  0.00    -0.776 OA
HETATM   31  H13 UNK     1      -4.548  -3.984  -1.505  1.00  0.00     0.167 HD
ENDBRANCH  28  30
ENDBRANCH  27  28
ENDBRANCH   1  27
TORSDOF 8
