REMARK  6 active torsions:
REMARK  status: ('A' for Active; 'I' for Inactive)
REMARK    1  A    between atoms: C13_17  and  O2_2 
REMARK    2  A    between atoms: C15_19  and  O2_2 
REMARK    3  A    between atoms: C1_5  and  C2_6 
REMARK    4  A    between atoms: C1_5  and  C3_7 
REMARK    5  A    between atoms: C3_7  and  C6_10 
REMARK    6  A    between atoms: C15_19  and  C16_20 
ROOT
HETATM    1  O1  UNK     1       0.465  -0.619   1.203  1.00  0.00    -0.274 OA
HETATM    2  O3  UNK     1      -0.635  -1.583   2.939  1.00  0.00    -0.259 OA
HETATM    3  C2  UNK     1      -1.843  -1.403   0.894  1.00  0.00     0.024 A 
HETATM    4  C4  UNK     1      -1.853  -0.965  -0.383  1.00  0.00    -0.037 A 
HETATM    5  C5  UNK     1      -0.638  -0.343  -0.947  1.00  0.00     0.005 A 
HETATM    6  C7  UNK     1       0.480  -0.191  -0.133  1.00  0.00     0.092 A 
HETATM    7  C8  UNK     1      -0.647  -1.223   1.766  1.00  0.00     0.295 A 
HETATM    8  C9  UNK     1      -3.057  -1.057  -1.289  1.00  0.00     0.050 C 
HETATM    9  C10 UNK     1      -0.529   0.103  -2.274  1.00  0.00     0.017 A 
HETATM   10  C11 UNK     1       1.669   0.386  -0.587  1.00  0.00     0.075 A 
HETATM   11  C13 UNK     1       1.753   0.826  -1.902  1.00  0.00     0.071 A 
HETATM   12  C14 UNK     1       0.655   0.683  -2.746  1.00  0.00     0.038 A 
ENDROOT
BRANCH  11  13
HETATM   13  O2  UNK     1       2.901   1.390  -2.364  1.00  0.00    -0.344 OA
BRANCH  13  14
HETATM   14  C15 UNK     1       3.704   2.098  -1.419  1.00  0.00     0.253 C 
BRANCH  14  15
HETATM   15  C16 UNK     1       4.480   3.205  -2.100  1.00  0.00     0.146 C 
HETATM   16  O4  UNK     1       4.387   3.430  -3.306  1.00  0.00    -0.296 OA
HETATM   17  C17 UNK     1       5.382   4.027  -1.218  1.00  0.00     0.093 C 
ENDBRANCH  14  15
ENDBRANCH  13  14
ENDBRANCH  11  13
BRANCH   3  18
HETATM   18  C1  UNK     1      -2.989  -2.110   1.572  1.00  0.00     0.045 C 
BRANCH  18  19
HETATM   19  C3  UNK     1      -3.925  -1.120   2.253  1.00  0.00     0.004 C 
BRANCH  19  20
HETATM   20  C6  UNK     1      -5.098  -1.849   2.910  1.00  0.00    -0.004 C 
HETATM   21  C12 UNK     1      -6.064  -0.874   3.565  1.00  0.00     0.005 C 
ENDBRANCH  19  20
ENDBRANCH  18  19
ENDBRANCH   3  18
TORSDOF 6
