REMARK  2 active torsions:
REMARK  status: ('A' for Active; 'I' for Inactive)
REMARK    1  A    between atoms: C14_20  and  O5_5 
REMARK       I    between atoms: C7_13  and  N1_6 
REMARK    2  A    between atoms: C7_13  and  C8_14 
ROOT
HETATM    1  O3  UNK     1       2.369   0.685  -0.004  1.00  0.00    -0.271 OA
HETATM    2  O4  UNK     1       1.777  -0.229   2.005  1.00  0.00    -0.259 OA
HETATM    3  C8  UNK     1       0.029   0.708   0.708  1.00  0.00     0.108 A 
HETATM    4  C9  UNK     1      -0.335   1.334  -0.418  1.00  0.00     0.037 A 
HETATM    5  C10 UNK     1       0.661   1.678  -1.421  1.00  0.00     0.002 A 
HETATM    6  C11 UNK     1       1.439   0.344   0.975  1.00  0.00     0.304 A 
HETATM    7  C12 UNK     1       1.992   1.344  -1.190  1.00  0.00     0.123 A 
HETATM    8  C13 UNK     1       0.327   2.332  -2.609  1.00  0.00     0.014 A 
HETATM    9  C14 UNK     1       2.994   1.645  -2.110  1.00  0.00     0.102 A 
HETATM   10  C15 UNK     1       1.321   2.640  -3.542  1.00  0.00     0.004 A 
HETATM   11  C16 UNK     1       2.652   2.297  -3.292  1.00  0.00     0.040 A 
ENDROOT
BRANCH   3  12
HETATM   12  C7  UNK     1      -1.053   0.403   1.664  1.00  0.00     0.260 C 
HETATM   13  O2  UNK     1      -1.313   1.248   2.521  1.00  0.00    -0.267 OA
HETATM   14  N1  UNK     1      -1.705  -0.819   1.535  1.00  0.00    -0.343 N 
HETATM   15  C3  UNK     1      -2.781  -1.162   2.465  1.00  0.00     0.157 C 
HETATM   16  C4  UNK     1      -1.391  -1.885   0.576  1.00  0.00     0.157 C 
HETATM   17  C1  UNK     1      -4.021  -1.659   1.722  1.00  0.00     0.136 C 
HETATM   18  O1  UNK     1      -3.673  -2.711   0.813  1.00  0.00    -0.378 OA
HETATM   19  C5  UNK     1      -4.790  -0.538   1.028  1.00  0.00     0.041 C 
HETATM   20  C2  UNK     1      -2.664  -2.349  -0.137  1.00  0.00     0.136 C 
HETATM   21  C6  UNK     1      -2.389  -3.572  -1.001  1.00  0.00     0.041 C 
ENDBRANCH   3  12
BRANCH   9  22
HETATM   22  O5  UNK     1       4.291   1.312  -1.872  1.00  0.00    -0.353 OA
HETATM   23  C17 UNK     1       4.728   0.031  -2.324  1.00  0.00     0.210 C 
ENDBRANCH   9  22
TORSDOF 2
