REMARK  8 active torsions:
REMARK  status: ('A' for Active; 'I' for Inactive)
REMARK    1  A    between atoms: C1_9  and  O1_1 
REMARK    2  A    between atoms: C5_13  and  O1_1 
REMARK    3  A    between atoms: C10_18  and  O3_3 
REMARK    4  A    between atoms: C9_17  and  O3_3 
REMARK       I    between atoms: C7_15  and  N1_7 
REMARK    5  A    between atoms: N1_7  and  N2_8 
REMARK       I    between atoms: C15_23  and  N2_8 
REMARK    6  A    between atoms: C1_9  and  C7_15 
REMARK    7  A    between atoms: C15_23  and  C4_12 
REMARK    8  A    between atoms: C10_18  and  C14_22 
ROOT
HETATM    1  O4  UNK     1       1.590  -0.425   0.010  1.00  0.00    -0.269 OA
HETATM    2  N1  UNK     1       1.342   1.880   0.086  1.00  0.00    -0.265 N 
HETATM    3  C7  UNK     1       1.179   0.593   0.563  1.00  0.00     0.265 C 
HETATM    4  H14 UNK     1       0.969   2.708   0.537  1.00  0.00     0.190 HD
ENDROOT
BRANCH   3   5
HETATM    5  C1  UNK     1       0.437   0.558   1.891  1.00  0.00     0.218 C 
HETATM    6  C8  UNK     1       1.200   1.317   2.965  1.00  0.00     0.050 C 
BRANCH   5   7
HETATM    7  O1  UNK     1       0.296  -0.788   2.313  1.00  0.00    -0.337 OA
BRANCH   7   8
HETATM    8  C5  UNK     1      -0.982  -1.260   2.470  1.00  0.00     0.070 A 
HETATM    9  C12 UNK     1      -1.859  -1.274   1.385  1.00  0.00     0.039 A 
HETATM   10  C16 UNK     1      -3.158  -1.755   1.544  1.00  0.00     0.039 A 
HETATM   11  C9  UNK     1      -3.581  -2.222   2.789  1.00  0.00     0.069 A 
HETATM   12  C17 UNK     1      -2.705  -2.207   3.874  1.00  0.00     0.039 A 
HETATM   13  C13 UNK     1      -1.406  -1.726   3.715  1.00  0.00     0.039 A 
BRANCH  11  14
HETATM   14  O3  UNK     1      -4.849  -2.693   2.944  1.00  0.00    -0.347 OA
BRANCH  14  15
HETATM   15  C10 UNK     1      -5.691  -2.682   1.793  1.00  0.00     0.214 C 
BRANCH  15  16
HETATM   16  C14 UNK     1      -7.045  -3.205   2.171  1.00  0.00    -0.034 A 
HETATM   17  C22 UNK     1      -7.317  -4.570   2.075  1.00  0.00     0.009 A 
HETATM   18  C24 UNK     1      -8.576  -5.058   2.427  1.00  0.00     0.001 A 
HETATM   19  C26 UNK     1      -9.563  -4.180   2.875  1.00  0.00     0.000 A 
HETATM   20  C25 UNK     1      -9.291  -2.815   2.972  1.00  0.00     0.001 A 
HETATM   21  C23 UNK     1      -8.032  -2.328   2.620  1.00  0.00     0.009 A 
ENDBRANCH  15  16
ENDBRANCH  14  15
ENDBRANCH  11  14
ENDBRANCH   7   8
ENDBRANCH   5   7
ENDBRANCH   3   5
BRANCH   2  22
HETATM   22  N2  UNK     1       2.013   2.073  -1.096  1.00  0.00    -0.263 N 
HETATM   23  C15 UNK     1       3.379   2.259  -1.069  1.00  0.00     0.276 C 
HETATM   24  O5  UNK     1       4.093   2.272  -0.068  1.00  0.00    -0.266 OA
HETATM   25  H15 UNK     1       1.442   2.093  -1.934  1.00  0.00     0.190 HD
BRANCH  23  26
HETATM   26  C4  UNK     1       3.950   2.451  -2.408  1.00  0.00     0.110 A 
HETATM   27  C18 UNK     1       3.350   1.835  -3.613  1.00  0.00     0.304 A 
HETATM   28  O2  UNK     1       3.982   2.091  -4.826  1.00  0.00    -0.274 OA
HETATM   29  O6  UNK     1       2.345   1.134  -3.551  1.00  0.00    -0.259 OA
HETATM   30  C3  UNK     1       5.135   2.896  -4.908  1.00  0.00     0.089 A 
HETATM   31  C19 UNK     1       5.697   3.095  -6.168  1.00  0.00     0.038 A 
HETATM   32  C2  UNK     1       5.683   3.465  -3.763  1.00  0.00    -0.001 A 
HETATM   33  C21 UNK     1       6.838   3.886  -6.281  1.00  0.00     0.003 A 
HETATM   34  C20 UNK     1       7.403   4.465  -5.142  1.00  0.00     0.001 A 
HETATM   35  C11 UNK     1       6.828   4.256  -3.885  1.00  0.00     0.014 A 
HETATM   36  C6  UNK     1       5.045   3.216  -2.480  1.00  0.00     0.037 A 
ENDBRANCH  23  26
ENDBRANCH   2  22
TORSDOF 8
