REMARK  3 active torsions:
REMARK  status: ('A' for Active; 'I' for Inactive)
REMARK       I    between atoms: C10_14  and  N1_4 
REMARK    1  A    between atoms: C2_6  and  N1_4 
REMARK    2  A    between atoms: C1_5  and  C7_11 
REMARK    3  A    between atoms: C10_14  and  C13_17 
ROOT
HETATM    1  O1  UNK     1      -2.276  -1.474  -2.165  1.00  0.00    -0.267 OA
HETATM    2  N1  UNK     1      -0.856   0.249  -1.496  1.00  0.00    -0.352 N 
HETATM    3  C10 UNK     1      -1.750  -0.784  -1.299  1.00  0.00     0.258 C 
HETATM    4  H11 UNK     1      -0.470   0.743  -0.698  1.00  0.00     0.163 HD
ENDROOT
BRANCH   2   5
HETATM    5  C2  UNK     1      -0.413   0.661  -2.809  1.00  0.00     0.084 C 
HETATM    6  C5  UNK     1       0.800  -0.157  -3.258  1.00  0.00     0.026 C 
HETATM    7  C3  UNK     1       2.078   0.223  -2.508  1.00  0.00     0.011 C 
HETATM    8  C1  UNK     1       2.359   1.732  -2.605  1.00  0.00     0.019 C 
HETATM    9  C4  UNK     1       1.154   2.552  -2.113  1.00  0.00     0.011 C 
HETATM   10  C6  UNK     1      -0.129   2.166  -2.853  1.00  0.00     0.026 C 
BRANCH   8  11
HETATM   11  C7  UNK     1       3.636   2.116  -1.879  1.00  0.00    -0.054 A 
HETATM   12  C8  UNK     1       3.592   2.475  -0.532  1.00  0.00     0.007 A 
HETATM   13  C11 UNK     1       4.765   2.827   0.135  1.00  0.00     0.001 A 
HETATM   14  C14 UNK     1       5.983   2.821  -0.546  1.00  0.00     0.000 A 
HETATM   15  C12 UNK     1       6.027   2.463  -1.893  1.00  0.00     0.001 A 
HETATM   16  C9  UNK     1       4.854   2.110  -2.560  1.00  0.00     0.007 A 
ENDBRANCH   8  11
ENDBRANCH   2   5
BRANCH   3  17
HETATM   17  C13 UNK     1      -2.044  -1.016   0.127  1.00  0.00     0.108 A 
HETATM   18  C15 UNK     1      -3.261  -1.495   0.410  1.00  0.00     0.037 A 
HETATM   19  C17 UNK     1      -3.645  -1.757   1.788  1.00  0.00    -0.001 A 
HETATM   20  C18 UNK     1      -2.727  -1.500   2.802  1.00  0.00     0.089 A 
HETATM   21  C19 UNK     1      -4.904  -2.257   2.129  1.00  0.00     0.014 A 
HETATM   22  O2  UNK     1      -1.448  -0.995   2.499  1.00  0.00    -0.274 OA
HETATM   23  C20 UNK     1      -3.032  -1.728   4.143  1.00  0.00     0.038 A 
HETATM   24  C16 UNK     1      -1.052  -0.736   1.189  1.00  0.00     0.304 A 
HETATM   25  O3  UNK     1       0.064  -0.296   0.934  1.00  0.00    -0.259 OA
HETATM   26  C22 UNK     1      -4.290  -2.227   4.474  1.00  0.00     0.003 A 
HETATM   27  C21 UNK     1      -5.224  -2.491   3.470  1.00  0.00     0.001 A 
ENDBRANCH   3  17
TORSDOF 3
