REMARK  2 active torsions:
REMARK  status: ('A' for Active; 'I' for Inactive)
REMARK       I    between atoms: C5_10  and  N1_5 
REMARK    1  A    between atoms: C1_6  and  C4_9 
REMARK    2  A    between atoms: C5_10  and  C6_11 
ROOT
HETATM    1  S1  UNK     1       3.760   0.554  -1.662  1.00  0.00    -0.137 SA
HETATM    2  O1  UNK     1      -0.758   2.213  -2.734  1.00  0.00    -0.267 OA
HETATM    3  N1  UNK     1       1.232   1.324  -1.934  1.00  0.00    -0.329 N 
HETATM    4  C1  UNK     1       2.013   0.348  -1.152  1.00  0.00     0.183 C 
HETATM    5  C2  UNK     1       2.065   2.309  -2.623  1.00  0.00     0.138 C 
HETATM    6  C3  UNK     1       3.356   1.637  -3.048  1.00  0.00     0.096 C 
HETATM    7  C5  UNK     1      -0.150   1.377  -2.063  1.00  0.00     0.261 C 
ENDROOT
BRANCH   7   8
HETATM    8  C6  UNK     1      -0.940   0.356  -1.346  1.00  0.00     0.108 A 
HETATM    9  C11 UNK     1      -1.295  -0.941  -1.966  1.00  0.00     0.304 A 
HETATM   10  O2  UNK     1      -2.042  -1.821  -1.189  1.00  0.00    -0.274 OA
HETATM   11  O3  UNK     1      -0.949  -1.231  -3.106  1.00  0.00    -0.259 OA
HETATM   12  C14 UNK     1      -2.444  -1.499   0.122  1.00  0.00     0.089 A 
HETATM   13  C10 UNK     1      -2.100  -0.274   0.686  1.00  0.00    -0.001 A 
HETATM   14  C17 UNK     1      -3.189  -2.445   0.823  1.00  0.00     0.038 A 
HETATM   15  C9  UNK     1      -1.319   0.668  -0.101  1.00  0.00     0.037 A 
HETATM   16  C16 UNK     1      -2.517   0.010   1.988  1.00  0.00     0.014 A 
HETATM   17  C18 UNK     1      -3.266  -0.930   2.703  1.00  0.00     0.001 A 
HETATM   18  C19 UNK     1      -3.601  -2.154   2.121  1.00  0.00     0.003 A 
ENDBRANCH   7   8
BRANCH   4  19
HETATM   19  C4  UNK     1       1.880   0.489   0.351  1.00  0.00    -0.025 A 
HETATM   20  C7  UNK     1       2.001  -0.633   1.170  1.00  0.00     0.010 A 
HETATM   21  C12 UNK     1       1.878  -0.503   2.553  1.00  0.00     0.001 A 
HETATM   22  C15 UNK     1       1.634   0.749   3.117  1.00  0.00     0.000 A 
HETATM   23  C13 UNK     1       1.512   1.871   2.297  1.00  0.00     0.001 A 
HETATM   24  C8  UNK     1       1.636   1.741   0.914  1.00  0.00     0.010 A 
ENDBRANCH   4  19
TORSDOF 2
