REMARK  5 active torsions:
REMARK  status: ('A' for Active; 'I' for Inactive)
REMARK    1  A    between atoms: C12_18  and  O3_3 
REMARK    2  A    between atoms: C20_26  and  O3_3 
REMARK    3  A    between atoms: C7_13  and  N1_5 
REMARK    4  A    between atoms: C1_7  and  C3_9 
REMARK    5  A    between atoms: C20_26  and  C21_27 
ROOT
HETATM    1  O1  UNK     1      -0.655  -2.384   0.653  1.00  0.00    -0.291 OA
HETATM    2  O2  UNK     1      -2.838   0.709   2.434  1.00  0.00    -0.274 OA
HETATM    3  O4  UNK     1      -3.744   1.239   0.411  1.00  0.00    -0.259 OA
HETATM    4  N2  UNK     1      -1.955  -2.801  -3.967  1.00  0.00    -0.191 NA
HETATM    5  C1  UNK     1      -2.256  -0.734  -1.067  1.00  0.00     0.109 C 
HETATM    6  C2  UNK     1      -2.166  -0.540   0.435  1.00  0.00     0.066 A 
HETATM    7  C4  UNK     1      -1.391  -1.339   1.183  1.00  0.00     0.104 A 
HETATM    8  C5  UNK     1      -1.585  -2.027  -1.521  1.00  0.00     0.086 C 
HETATM    9  C6  UNK     1      -1.272  -1.144   2.625  1.00  0.00     0.033 A 
HETATM   10  C7  UNK     1      -0.833  -2.767  -0.676  1.00  0.00     0.159 C 
HETATM   11  C8  UNK     1      -2.981   0.534   1.062  1.00  0.00     0.298 A 
HETATM   12  C9  UNK     1      -2.001  -0.113   3.212  1.00  0.00     0.092 A 
HETATM   13  C13 UNK     1      -0.462  -1.933   3.451  1.00  0.00     0.017 A 
HETATM   14  C15 UNK     1      -1.944   0.149   4.581  1.00  0.00     0.038 A 
HETATM   15  C17 UNK     1      -1.790  -2.454  -2.872  1.00  0.00     0.100 C 
HETATM   16  C18 UNK     1      -0.395  -1.683   4.826  1.00  0.00     0.001 A 
HETATM   17  C19 UNK     1      -1.135  -0.643   5.389  1.00  0.00     0.003 A 
ENDROOT
BRANCH   5  18
HETATM   18  C3  UNK     1      -1.656   0.439  -1.785  1.00  0.00    -0.041 A 
HETATM   19  C10 UNK     1      -0.310   0.738  -1.610  1.00  0.00     0.044 A 
HETATM   20  C12 UNK     1       0.247   1.830  -2.277  1.00  0.00     0.069 A 
HETATM   21  C16 UNK     1      -0.546   2.614  -3.114  1.00  0.00     0.037 A 
HETATM   22  C14 UNK     1      -1.896   2.307  -3.285  1.00  0.00     0.003 A 
HETATM   23  C11 UNK     1      -2.453   1.216  -2.618  1.00  0.00     0.008 A 
BRANCH  20  24
HETATM   24  O3  UNK     1       1.565   2.129  -2.110  1.00  0.00    -0.347 OA
BRANCH  24  25
HETATM   25  C20 UNK     1       2.317   1.286  -1.239  1.00  0.00     0.214 C 
BRANCH  25  26
HETATM   26  C21 UNK     1       3.727   1.794  -1.163  1.00  0.00    -0.034 A 
HETATM   27  C22 UNK     1       4.676   1.329  -2.066  1.00  0.00     0.009 A 
HETATM   28  C24 UNK     1       5.987   1.801  -1.995  1.00  0.00     0.001 A 
HETATM   29  C26 UNK     1       6.340   2.736  -1.021  1.00  0.00     0.000 A 
HETATM   30  C25 UNK     1       5.382   3.198  -0.119  1.00  0.00     0.001 A 
HETATM   31  C23 UNK     1       4.071   2.725  -0.190  1.00  0.00     0.009 A 
ENDBRANCH  25  26
ENDBRANCH  24  25
ENDBRANCH  20  24
ENDBRANCH   5  18
BRANCH  10  32
HETATM   32  N1  UNK     1      -0.186  -3.926  -1.005  1.00  0.00    -0.379 N 
HETATM   33  H10 UNK     1      -0.239  -4.304  -1.942  1.00  0.00     0.158 HD
HETATM   34  H9  UNK     1       0.353  -4.403  -0.294  1.00  0.00     0.158 HD
ENDBRANCH  10  32
TORSDOF 5
