REMARK  3 active torsions:
REMARK  status: ('A' for Active; 'I' for Inactive)
REMARK    1  A    between atoms: C4_12  and  N1_6 
REMARK    2  A    between atoms: C7_15  and  N2_7 
REMARK    3  A    between atoms: C1_9  and  C5_13 
ROOT
HETATM    1  N3  UNK     1       2.614   3.535  -5.243  1.00  0.00    -0.191 NA
HETATM    2  C5  UNK     1       1.410   0.477  -0.991  1.00  0.00    -0.043 A 
HETATM    3  C10 UNK     1       2.404   0.068  -1.874  1.00  0.00     0.010 A 
HETATM    4  C11 UNK     1       0.725   1.669  -1.197  1.00  0.00     0.010 A 
HETATM    5  C14 UNK     1       2.716   0.862  -2.977  1.00  0.00     0.023 A 
HETATM    6  C15 UNK     1       1.038   2.463  -2.300  1.00  0.00     0.023 A 
HETATM    7  C17 UNK     1       2.033   2.060  -3.190  1.00  0.00     0.044 A 
HETATM    8  C19 UNK     1       2.354   2.873  -4.321  1.00  0.00     0.099 C 
ENDROOT
BRANCH   2   9
HETATM    9  C1  UNK     1       1.072  -0.379   0.194  1.00  0.00     0.121 C 
HETATM   10  C2  UNK     1      -0.378  -0.840   0.121  1.00  0.00     0.067 A 
HETATM   11  C3  UNK     1      -1.279  -0.428   1.031  1.00  0.00     0.104 A 
HETATM   12  C8  UNK     1      -0.764  -1.786  -0.958  1.00  0.00     0.298 A 
HETATM   13  C6  UNK     1      -2.677  -0.846   0.950  1.00  0.00     0.033 A 
HETATM   14  O1  UNK     1      -0.964   0.410   2.094  1.00  0.00    -0.290 OA
HETATM   15  C12 UNK     1      -3.663  -0.433   1.854  1.00  0.00     0.017 A 
HETATM   16  C9  UNK     1      -3.051  -1.700  -0.084  1.00  0.00     0.092 A 
HETATM   17  C16 UNK     1      -4.984  -0.872   1.711  1.00  0.00     0.001 A 
HETATM   18  C18 UNK     1      -5.333  -1.726   0.666  1.00  0.00     0.003 A 
HETATM   19  C13 UNK     1      -4.363  -2.146  -0.240  1.00  0.00     0.038 A 
HETATM   20  O2  UNK     1      -2.102  -2.156  -1.019  1.00  0.00    -0.274 OA
HETATM   21  C7  UNK     1       0.371   0.740   2.357  1.00  0.00     0.172 C 
HETATM   22  C4  UNK     1       1.313   0.370   1.475  1.00  0.00     0.144 C 
HETATM   23  O3  UNK     1       0.051  -2.226  -1.762  1.00  0.00    -0.259 OA
BRANCH  21  24
HETATM   24  N2  UNK     1       0.552   1.423   3.525  1.00  0.00    -0.378 N 
HETATM   25  H10 UNK     1      -0.254   1.637   4.097  1.00  0.00     0.158 HD
HETATM   26  H9  UNK     1       1.476   1.716   3.816  1.00  0.00     0.158 HD
ENDBRANCH  21  24
BRANCH  22  27
HETATM   27  N1  UNK     1       2.675   0.659   1.782  1.00  0.00    -0.114 N 
HETATM   28  O4  UNK     1       3.306  -0.200   2.411  1.00  0.00    -0.532 OA
HETATM   29  O5  UNK     1       3.121   1.746   1.396  1.00  0.00    -0.532 OA
ENDBRANCH  22  27
ENDBRANCH   2   9
TORSDOF 3
