REMARK  4 active torsions:
REMARK  status: ('A' for Active; 'I' for Inactive)
REMARK    1  A    between atoms: C8_15  and  O1_2 
REMARK    2  A    between atoms: C7_14  and  N1_7 
REMARK       I    between atoms: C9_16  and  N1_7 
REMARK    3  A    between atoms: C6_13  and  C8_15 
REMARK    4  A    between atoms: C10_17  and  C9_16 
ROOT
HETATM    1  O4  UNK     1       0.779  -0.155   2.062  1.00  0.00    -0.267 OA
HETATM    2  N1  UNK     1       0.445   0.271  -0.235  1.00  0.00    -0.316 N 
HETATM    3  C9  UNK     1       0.114  -0.198   1.028  1.00  0.00     0.262 C 
HETATM    4  H7  UNK     1      -0.226   0.181  -0.993  1.00  0.00     0.169 HD
ENDROOT
BRANCH   2   5
HETATM    5  C7  UNK     1       1.623   0.896  -0.588  1.00  0.00     0.094 A 
HETATM    6  C6  UNK     1       2.063   1.402  -1.800  1.00  0.00     0.080 A 
HETATM    7  C3  UNK     1       3.353   1.954  -1.667  1.00  0.00    -0.026 A 
HETATM    8  C1  UNK     1       4.334   2.622  -2.556  1.00  0.00     0.041 C 
HETATM    9  C5  UNK     1       3.833   1.849  -0.390  1.00  0.00    -0.008 A 
HETATM   10  C2  UNK     1       5.351   3.222  -1.534  1.00  0.00     0.010 C 
HETATM   11  C4  UNK     1       5.188   2.417  -0.206  1.00  0.00     0.047 C 
HETATM   12  S1  UNK     1       2.786   1.102   0.678  1.00  0.00    -0.075 SA
BRANCH   6  13
HETATM   13  C8  UNK     1       1.283   1.353  -3.011  1.00  0.00     0.296 C 
HETATM   14  O2  UNK     1       0.148   0.856  -3.086  1.00  0.00    -0.259 OA
BRANCH  13  15
HETATM   15  O1  UNK     1       1.911   1.907  -4.107  1.00  0.00    -0.322 OA
HETATM   16  C16 UNK     1       1.194   1.885  -5.347  1.00  0.00     0.213 C 
ENDBRANCH  13  15
ENDBRANCH   6  13
ENDBRANCH   2   5
BRANCH   3  17
HETATM   17  C10 UNK     1      -1.220  -0.811   1.052  1.00  0.00     0.108 A 
HETATM   18  C11 UNK     1      -1.888  -0.730   2.209  1.00  0.00     0.037 A 
HETATM   19  C12 UNK     1      -3.217  -1.308   2.330  1.00  0.00    -0.001 A 
HETATM   20  C13 UNK     1      -3.777  -1.945   1.227  1.00  0.00     0.089 A 
HETATM   21  C15 UNK     1      -3.950  -1.247   3.517  1.00  0.00     0.014 A 
HETATM   22  O3  UNK     1      -3.069  -2.027   0.012  1.00  0.00    -0.274 OA
HETATM   23  C17 UNK     1      -5.045  -2.520   1.277  1.00  0.00     0.038 A 
HETATM   24  C14 UNK     1      -1.796  -1.483  -0.134  1.00  0.00     0.304 A 
HETATM   25  O5  UNK     1      -1.187  -1.560  -1.196  1.00  0.00    -0.259 OA
HETATM   26  C19 UNK     1      -5.770  -2.454   2.465  1.00  0.00     0.003 A 
HETATM   27  C18 UNK     1      -5.224  -1.819   3.583  1.00  0.00     0.001 A 
ENDBRANCH   3  17
TORSDOF 4
