REMARK  7 active torsions:
REMARK  status: ('A' for Active; 'I' for Inactive)
REMARK    1  A    between atoms: C22_29  and  S1_1 
REMARK    2  A    between atoms: C23_30  and  S1_1 
REMARK    3  A    between atoms: C11_18  and  O3_4 
REMARK    4  A    between atoms: C19_26  and  O3_4 
REMARK    5  A    between atoms: C1_8  and  C10_17 
REMARK    6  A    between atoms: C11_18  and  C6_13 
REMARK    7  A    between atoms: C19_26  and  C22_29 
ROOT
HETATM    1  O1  UNK     1      -2.323  -3.114  -0.724  1.00  0.00    -0.293 OA
HETATM    2  N1  UNK     1      -2.438   0.387   2.464  1.00  0.00    -0.362 N 
HETATM    3  C1  UNK     1      -0.777  -1.299   0.901  1.00  0.00     0.104 C 
HETATM    4  C2  UNK     1      -2.299  -1.298   0.805  1.00  0.00     0.024 C 
HETATM    5  C3  UNK     1      -3.044  -0.457   1.554  1.00  0.00     0.020 C 
HETATM    6  C4  UNK     1      -4.545  -0.378   1.463  1.00  0.00     0.058 C 
HETATM    7  C5  UNK     1      -5.071  -0.933   0.146  1.00  0.00     0.014 C 
HETATM    8  C6  UNK     1      -0.253  -0.419   2.039  1.00  0.00     0.052 C 
HETATM    9  C7  UNK     1      -4.490  -2.308  -0.132  1.00  0.00     0.084 C 
HETATM   10  C8  UNK     1      -2.978  -2.288  -0.088  1.00  0.00     0.158 C 
HETATM   11  C9  UNK     1      -1.080   0.383   2.749  1.00  0.00     0.018 C 
HETATM   12  C13 UNK     1      -0.683   1.291   3.882  1.00  0.00     0.069 C 
HETATM   13  H8  UNK     1      -3.034   0.995   3.015  1.00  0.00     0.165 HD
ENDROOT
BRANCH   3  14
HETATM   14  C10 UNK     1      -0.175  -0.868  -0.410  1.00  0.00     0.029 A 
HETATM   15  C12 UNK     1      -0.469   0.498  -0.910  1.00  0.00     0.194 A 
HETATM   16  O5  UNK     1      -1.180   1.279  -0.291  1.00  0.00    -0.287 OA
HETATM   17  C15 UNK     1       0.144   0.869  -2.199  1.00  0.00     0.048 A 
HETATM   18  C16 UNK     1       0.946  -0.061  -2.861  1.00  0.00     0.089 A 
HETATM   19  C17 UNK     1      -0.073   2.132  -2.754  1.00  0.00     0.018 A 
HETATM   20  O2  UNK     1       1.193  -1.316  -2.362  1.00  0.00    -0.321 OA
HETATM   21  C18 UNK     1       1.536   0.268  -4.082  1.00  0.00     0.038 A 
HETATM   22  C14 UNK     1       0.615  -1.647  -1.161  1.00  0.00     0.154 A 
HETATM   23  C21 UNK     1       1.322   1.529  -4.638  1.00  0.00     0.003 A 
HETATM   24  C20 UNK     1       0.519   2.459  -3.975  1.00  0.00     0.001 A 
ENDBRANCH   3  14
BRANCH   8  25
HETATM   25  C11 UNK     1       1.191  -0.510   2.314  1.00  0.00     0.292 C 
HETATM   26  O4  UNK     1       1.674  -1.309   3.094  1.00  0.00    -0.259 OA
BRANCH  25  27
HETATM   27  O3  UNK     1       1.828   0.422   1.564  1.00  0.00    -0.317 OA
BRANCH  27  28
HETATM   28  C19 UNK     1       3.250   0.458   1.722  1.00  0.00     0.189 C 
BRANCH  28  29
HETATM   29  C22 UNK     1       3.906   0.921   0.430  1.00  0.00     0.100 C 
BRANCH  29  30
HETATM   30  S1  UNK     1       3.340   2.584  -0.043  1.00  0.00    -0.167 SA
BRANCH  30  31
HETATM   31  C23 UNK     1       4.307   2.765  -1.559  1.00  0.00     0.069 C 
HETATM   32  C24 UNK     1       4.035   4.109  -2.206  1.00  0.00     0.016 C 
ENDBRANCH  30  31
ENDBRANCH  29  30
ENDBRANCH  28  29
ENDBRANCH  27  28
ENDBRANCH  25  27
ENDBRANCH   8  25
TORSDOF 7
