REMARK  4 active torsions:
REMARK  status: ('A' for Active; 'I' for Inactive)
REMARK    1  A    between atoms: C5_13  and  N1_4 
REMARK    2  A    between atoms: C6_14  and  N2_5 
REMARK    3  A    between atoms: C5_13  and  N3_6 
REMARK    4  A    between atoms: C7_15  and  N3_6 
ROOT
HETATM    1  N3  UNK     1       0.535  -0.508   2.415  1.00  0.00    -0.333 N 
HETATM    2  H9  UNK     1       0.793  -1.219   3.097  1.00  0.00     0.168 HD
ENDROOT
BRANCH   1   3
HETATM    3  C5  UNK     1       1.556   0.372   2.100  1.00  0.00     0.174 C 
HETATM    4  S1  UNK     1       2.774   0.701   3.207  1.00  0.00    -0.041 SA
BRANCH   3   5
HETATM    5  N1  UNK     1       1.597   0.925   0.864  1.00  0.00    -0.355 N 
HETATM    6  C1  UNK     1       2.103   2.270   0.637  1.00  0.00     0.145 C 
HETATM    7  C3  UNK     1       3.152   2.274  -0.472  1.00  0.00     0.161 C 
HETATM    8  N2  UNK     1       2.641   1.571  -1.661  1.00  0.00    -0.211 N 
HETATM    9  C4  UNK     1       2.113   0.218  -1.431  1.00  0.00     0.161 C 
HETATM   10  C2  UNK     1       1.079   0.236  -0.307  1.00  0.00     0.145 C 
BRANCH   8  11
HETATM   11  C6  UNK     1       3.212   1.890  -2.899  1.00  0.00     0.724 A 
HETATM   12  N4  UNK     1       3.256   0.917  -3.856  1.00  0.00    -0.075 NA
HETATM   13  C14 UNK     1       3.813   1.258  -5.036  1.00  0.00     0.138 A 
HETATM   14  C17 UNK     1       4.324   2.510  -5.309  1.00  0.00     0.040 A 
HETATM   15  C15 UNK     1       4.235   3.428  -4.283  1.00  0.00     0.138 A 
HETATM   16  N5  UNK     1       3.692   3.156  -3.078  1.00  0.00    -0.075 NA
ENDBRANCH   8  11
ENDBRANCH   3   5
ENDBRANCH   1   3
BRANCH   1  17
HETATM   17  C7  UNK     1      -0.789  -0.590   1.984  1.00  0.00     0.036 A 
HETATM   18  C11 UNK     1      -1.468   0.562   1.590  1.00  0.00     0.030 A 
HETATM   19  C12 UNK     1      -2.797   0.488   1.158  1.00  0.00     0.017 A 
HETATM   20  C8  UNK     1      -3.467  -0.742   1.112  1.00  0.00     0.004 A 
HETATM   21  C10 UNK     1      -2.763  -1.878   1.513  1.00  0.00     0.092 A 
HETATM   22  C13 UNK     1      -4.860  -0.897   0.670  1.00  0.00    -0.043 A 
HETATM   23  O1  UNK     1      -3.365  -3.152   1.497  1.00  0.00    -0.275 OA
HETATM   24  C9  UNK     1      -1.437  -1.820   1.947  1.00  0.00     0.067 A 
HETATM   25  C19 UNK     1      -4.677  -3.329   1.085  1.00  0.00     0.288 A 
HETATM   26  C16 UNK     1      -5.407  -2.120   0.666  1.00  0.00     0.090 A 
HETATM   27  O2  UNK     1      -5.211  -4.432   1.068  1.00  0.00    -0.260 OA
HETATM   28  C18 UNK     1      -5.644   0.306   0.234  1.00  0.00     0.049 C 
ENDBRANCH   1  17
TORSDOF 4
