REMARK  4 active torsions:
REMARK  status: ('A' for Active; 'I' for Inactive)
REMARK       I    between atoms: C13_18  and  N2_5 
REMARK    1  A    between atoms: C6_11  and  N2_5 
REMARK    2  A    between atoms: C1_6  and  C4_9 
REMARK    3  A    between atoms: C4_9  and  C6_11 
REMARK    4  A    between atoms: C13_18  and  C14_19 
ROOT
HETATM    1  O2  UNK     1      -1.368   1.482  -2.956  1.00  0.00    -0.267 OA
HETATM    2  N2  UNK     1      -1.323  -0.561  -1.835  1.00  0.00    -0.356 N 
HETATM    3  C13 UNK     1      -0.769   0.597  -2.349  1.00  0.00     0.257 C 
HETATM    4  H12 UNK     1      -0.746  -1.218  -1.319  1.00  0.00     0.162 HD
ENDROOT
BRANCH   2   5
HETATM    5  C6  UNK     1      -2.727  -0.882  -1.952  1.00  0.00     0.127 C 
BRANCH   5   6
HETATM    6  C4  UNK     1      -3.552  -0.349  -0.782  1.00  0.00     0.061 C 
BRANCH   6   7
HETATM    7  C1  UNK     1      -3.133  -0.915   0.545  1.00  0.00    -0.022 A 
HETATM    8  C2  UNK     1      -2.160  -0.359   1.399  1.00  0.00    -0.001 A 
HETATM    9  C3  UNK     1      -2.089  -1.201   2.511  1.00  0.00     0.049 A 
HETATM   10  C8  UNK     1      -1.324   0.774   1.352  1.00  0.00     0.014 A 
HETATM   11  N1  UNK     1      -2.995  -2.217   2.309  1.00  0.00    -0.358 N 
HETATM   12  C7  UNK     1      -1.220  -0.966   3.583  1.00  0.00    -0.034 A 
HETATM   13  C5  UNK     1      -3.635  -2.047   1.110  1.00  0.00     0.013 A 
HETATM   14  H3  UNK     1      -3.166  -2.979   2.950  1.00  0.00     0.166 HD
HETATM   15  C9  UNK     1      -4.661  -3.005   0.654  1.00  0.00     0.068 C 
HETATM   16  C10 UNK     1      -0.400   0.164   3.514  1.00  0.00     0.009 A 
HETATM   17  C12 UNK     1      -1.141  -1.863   4.773  1.00  0.00     0.050 C 
HETATM   18  C11 UNK     1      -0.449   1.022   2.417  1.00  0.00     0.002 A 
ENDBRANCH   6   7
ENDBRANCH   5   6
ENDBRANCH   2   5
BRANCH   3  19
HETATM   19  C14 UNK     1       0.674   0.698  -2.101  1.00  0.00     0.108 A 
HETATM   20  C16 UNK     1       1.167   1.936  -1.977  1.00  0.00     0.037 A 
HETATM   21  C15 UNK     1       2.587   2.139  -1.729  1.00  0.00    -0.001 A 
HETATM   22  C17 UNK     1       3.417   1.028  -1.625  1.00  0.00     0.089 A 
HETATM   23  C19 UNK     1       3.144   3.413  -1.593  1.00  0.00     0.014 A 
HETATM   24  O1  UNK     1       2.892  -0.273  -1.756  1.00  0.00    -0.274 OA
HETATM   25  C20 UNK     1       4.785   1.153  -1.389  1.00  0.00     0.038 A 
HETATM   26  C18 UNK     1       1.539  -0.498  -1.993  1.00  0.00     0.304 A 
HETATM   27  O3  UNK     1       1.091  -1.634  -2.107  1.00  0.00    -0.259 OA
HETATM   28  C22 UNK     1       5.333   2.427  -1.255  1.00  0.00     0.003 A 
HETATM   29  C21 UNK     1       4.515   3.554  -1.356  1.00  0.00     0.001 A 
ENDBRANCH   3  19
TORSDOF 4
