REMARK  6 active torsions:
REMARK  status: ('A' for Active; 'I' for Inactive)
REMARK    1  A    between atoms: C11_18  and  O1_2 
REMARK    2  A    between atoms: C13_20  and  O1_2 
REMARK       I    between atoms: C12_19  and  N1_7 
REMARK    3  A    between atoms: C9_16  and  N1_7 
REMARK    4  A    between atoms: C1_8  and  C7_14 
REMARK    5  A    between atoms: C11_18  and  C8_15 
REMARK    6  A    between atoms: C12_19  and  C14_21 
ROOT
HETATM    1  S1  UNK     1      -2.306  -0.957  -0.946  1.00  0.00    -0.075 SA
HETATM    2  C1  UNK     1      -5.383  -2.389   1.374  1.00  0.00    -0.010 C 
HETATM    3  C2  UNK     1      -4.507  -2.700   2.608  1.00  0.00     0.009 C 
HETATM    4  C3  UNK     1      -4.527  -2.317   0.089  1.00  0.00     0.051 C 
HETATM    5  C4  UNK     1      -3.450  -1.609   2.843  1.00  0.00     0.041 C 
HETATM    6  C5  UNK     1      -2.759  -1.220   1.574  1.00  0.00    -0.026 A 
HETATM    7  C6  UNK     1      -3.275  -1.531   0.331  1.00  0.00    -0.008 A 
HETATM    8  C8  UNK     1      -1.540  -0.486   1.462  1.00  0.00     0.080 A 
HETATM    9  C9  UNK     1      -1.180  -0.274   0.149  1.00  0.00     0.094 A 
ENDROOT
BRANCH   9  10
HETATM   10  N1  UNK     1      -0.106   0.372  -0.401  1.00  0.00    -0.316 N 
HETATM   11  C12 UNK     1       0.167   0.530  -1.766  1.00  0.00     0.262 C 
HETATM   12  O3  UNK     1      -0.484   0.133  -2.724  1.00  0.00    -0.267 OA
HETATM   13  H13 UNK     1       0.552   0.751   0.274  1.00  0.00     0.169 HD
BRANCH  11  14
HETATM   14  C14 UNK     1       1.416   1.283  -2.009  1.00  0.00     0.108 A 
HETATM   15  C17 UNK     1       2.082   0.978  -3.130  1.00  0.00     0.037 A 
HETATM   16  C19 UNK     1       3.322   1.665  -3.455  1.00  0.00    -0.001 A 
HETATM   17  C20 UNK     1       3.801   2.638  -2.584  1.00  0.00     0.089 A 
HETATM   18  C21 UNK     1       4.050   1.380  -4.613  1.00  0.00     0.014 A 
HETATM   19  O4  UNK     1       3.096   2.955  -1.407  1.00  0.00    -0.274 OA
HETATM   20  C22 UNK     1       4.983   3.332  -2.837  1.00  0.00     0.038 A 
HETATM   21  C18 UNK     1       1.907   2.315  -1.068  1.00  0.00     0.304 A 
HETATM   22  O5  UNK     1       1.300   2.596  -0.040  1.00  0.00    -0.259 OA
HETATM   23  C24 UNK     1       5.702   3.041  -3.994  1.00  0.00     0.003 A 
HETATM   24  C23 UNK     1       5.237   2.068  -4.881  1.00  0.00     0.001 A 
ENDBRANCH  11  14
ENDBRANCH   9  10
BRANCH   8  25
HETATM   25  C11 UNK     1      -0.752   0.001   2.567  1.00  0.00     0.297 C 
HETATM   26  O2  UNK     1      -1.227   0.325   3.665  1.00  0.00    -0.259 OA
BRANCH  25  27
HETATM   27  O1  UNK     1       0.597   0.078   2.300  1.00  0.00    -0.313 OA
BRANCH  27  28
HETATM   28  C13 UNK     1       1.488  -0.104   3.407  1.00  0.00     0.124 C 
HETATM   29  C15 UNK     1       2.923   0.048   2.926  1.00  0.00     0.040 C 
HETATM   30  C16 UNK     1       1.240  -1.469   4.030  1.00  0.00     0.040 C 
ENDBRANCH  27  28
ENDBRANCH  25  27
ENDBRANCH   8  25
BRANCH   2  31
HETATM   31  C7  UNK     1      -6.491  -3.427   1.220  1.00  0.00     0.000 C 
HETATM   32  C10 UNK     1      -7.392  -3.105   0.044  1.00  0.00     0.005 C 
ENDBRANCH   2  31
TORSDOF 6
