REMARK  8 active torsions:
REMARK  status: ('A' for Active; 'I' for Inactive)
REMARK    1  A    between atoms: C12_22  and  S1_2 
REMARK    2  A    between atoms: C16_26  and  S1_2 
REMARK    3  A    between atoms: C13_23  and  N1_8 
REMARK    4  A    between atoms: C4_14  and  N1_8 
REMARK    5  A    between atoms: C13_23  and  N2_9 
REMARK    6  A    between atoms: N2_9  and  N3_10 
REMARK       I    between atoms: C19_29  and  N3_10 
REMARK    7  A    between atoms: C11_21  and  C12_22 
REMARK    8  A    between atoms: C16_26  and  C19_29 
ROOT
HETATM    1  N2  UNK     1      -1.338  -0.404  -2.917  1.00  0.00    -0.274 N 
HETATM    2  H15 UNK     1      -1.328  -0.443  -3.931  1.00  0.00     0.189 HD
ENDROOT
BRANCH   1   3
HETATM    3  C13 UNK     1      -2.214  -1.184  -2.168  1.00  0.00     0.191 C 
HETATM    4  S2  UNK     1      -3.267  -2.170  -3.021  1.00  0.00    -0.039 SA
BRANCH   3   5
HETATM    5  N1  UNK     1      -2.087  -1.018  -0.777  1.00  0.00    -0.332 N 
HETATM    6  H8  UNK     1      -1.557  -0.184  -0.539  1.00  0.00     0.168 HD
BRANCH   5   7
HETATM    7  C4  UNK     1      -2.737  -1.557   0.334  1.00  0.00     0.037 A 
HETATM    8  C6  UNK     1      -2.873  -0.805   1.496  1.00  0.00     0.067 A 
HETATM    9  C2  UNK     1      -3.527  -1.363   2.596  1.00  0.00     0.092 A 
HETATM   10  C1  UNK     1      -4.053  -2.656   2.573  1.00  0.00     0.004 A 
HETATM   11  O1  UNK     1      -3.634  -0.553   3.744  1.00  0.00    -0.275 OA
HETATM   12  C3  UNK     1      -4.727  -3.163   3.776  1.00  0.00    -0.043 A 
HETATM   13  C5  UNK     1      -3.906  -3.397   1.393  1.00  0.00     0.017 A 
HETATM   14  C8  UNK     1      -4.813  -2.370   4.854  1.00  0.00     0.090 A 
HETATM   15  C9  UNK     1      -5.303  -4.549   3.784  1.00  0.00     0.049 C 
HETATM   16  C10 UNK     1      -4.264  -1.005   4.894  1.00  0.00     0.288 A 
HETATM   17  O2  UNK     1      -4.362  -0.309   5.898  1.00  0.00    -0.260 OA
HETATM   18  C7  UNK     1      -3.253  -2.851   0.282  1.00  0.00     0.030 A 
ENDBRANCH   5   7
ENDBRANCH   3   5
ENDBRANCH   1   3
BRANCH   1  19
HETATM   19  N3  UNK     1      -0.446   0.458  -2.324  1.00  0.00    -0.267 N 
HETATM   20  C19 UNK     1      -0.079   1.609  -2.994  1.00  0.00     0.245 C 
HETATM   21  O3  UNK     1      -0.487   1.948  -4.104  1.00  0.00    -0.271 OA
HETATM   22  H17 UNK     1       0.027   0.137  -1.485  1.00  0.00     0.190 HD
BRANCH  20  23
HETATM   23  C16 UNK     1       0.927   2.432  -2.228  1.00  0.00     0.178 C 
BRANCH  23  24
HETATM   24  S1  UNK     1       2.590   1.914  -2.719  1.00  0.00    -0.155 SA
BRANCH  24  25
HETATM   25  C12 UNK     1       3.542   3.038  -1.671  1.00  0.00     0.117 C 
BRANCH  25  26
HETATM   26  C11 UNK     1       5.025   2.857  -1.845  1.00  0.00     0.011 A 
HETATM   27  C14 UNK     1       5.732   3.585  -2.795  1.00  0.00     0.044 A 
HETATM   28 Cl1  UNK     1       4.952   4.729  -3.826  1.00  0.00    -0.084 Cl
HETATM   29  C17 UNK     1       7.107   3.394  -2.929  1.00  0.00     0.024 A 
HETATM   30  C20 UNK     1       7.767   2.476  -2.111  1.00  0.00     0.005 A 
HETATM   31  C18 UNK     1       7.051   1.750  -1.159  1.00  0.00     0.043 A 
HETATM   32  C15 UNK     1       5.676   1.941  -1.026  1.00  0.00     0.125 A 
HETATM   33  F1  UNK     1       4.998   1.238  -0.108  1.00  0.00    -0.205 F 
ENDBRANCH  25  26
ENDBRANCH  24  25
ENDBRANCH  23  24
ENDBRANCH  20  23
ENDBRANCH   1  19
TORSDOF 8
