REMARK  5 active torsions:
REMARK  status: ('A' for Active; 'I' for Inactive)
REMARK    1  A    between atoms: C10_18  and  O2_2 
REMARK    2  A    between atoms: C11_19  and  O2_2 
REMARK    3  A    between atoms: C14_22  and  O4_4 
REMARK    4  A    between atoms: C6_14  and  N1_8 
REMARK    5  A    between atoms: C10_18  and  C4_12 
ROOT
HETATM    1  O1  UNK     1       0.564   0.513  -2.994  1.00  0.00    -0.274 OA
HETATM    2  O3  UNK     1      -1.470  -0.365  -2.432  1.00  0.00    -0.259 OA
HETATM    3  C1  UNK     1       2.040   1.335  -1.246  1.00  0.00     0.001 A 
HETATM    4  C2  UNK     1       1.779   1.100  -2.592  1.00  0.00     0.089 A 
HETATM    5  C3  UNK     1       1.037   0.964  -0.260  1.00  0.00     0.038 A 
HETATM    6  C4  UNK     1      -0.116   0.407  -0.647  1.00  0.00     0.116 A 
HETATM    7  C5  UNK     1       3.258   1.919  -0.887  1.00  0.00     0.050 A 
HETATM    8  C6  UNK     1       4.189   2.257  -1.873  1.00  0.00     0.103 A 
HETATM    9  C7  UNK     1       2.698   1.432  -3.586  1.00  0.00     0.041 A 
HETATM   10  C8  UNK     1       3.909   2.014  -3.220  1.00  0.00     0.039 A 
HETATM   11  C9  UNK     1      -0.415   0.148  -2.074  1.00  0.00     0.304 A 
ENDROOT
BRANCH   6  12
HETATM   12  C10 UNK     1      -1.063   0.067   0.421  1.00  0.00     0.304 C 
HETATM   13  O5  UNK     1      -1.143   0.682   1.473  1.00  0.00    -0.259 OA
BRANCH  12  14
HETATM   14  O2  UNK     1      -1.799  -1.027   0.007  1.00  0.00    -0.275 OA
BRANCH  14  15
HETATM   15  C11 UNK     1      -2.736  -1.431   0.961  1.00  0.00     0.079 A 
HETATM   16  C12 UNK     1      -3.999  -0.885   0.920  1.00  0.00     0.040 A 
HETATM   17  C15 UNK     1      -4.935  -1.288   1.872  1.00  0.00     0.039 A 
HETATM   18  C14 UNK     1      -4.583  -2.228   2.842  1.00  0.00     0.068 A 
HETATM   19  C16 UNK     1      -3.295  -2.763   2.858  1.00  0.00     0.039 A 
HETATM   20  C13 UNK     1      -2.359  -2.360   1.906  1.00  0.00     0.040 A 
BRANCH  18  21
HETATM   21  O4  UNK     1      -5.496  -2.621   3.771  1.00  0.00    -0.356 OA
HETATM   22  C17 UNK     1      -5.069  -3.585   4.733  1.00  0.00     0.210 C 
ENDBRANCH  18  21
ENDBRANCH  14  15
ENDBRANCH  12  14
ENDBRANCH   6  12
BRANCH   8  23
HETATM   23  N1  UNK     1       5.425   2.851  -1.505  1.00  0.00    -0.116 N 
HETATM   24  O6  UNK     1       6.249   3.147  -2.404  1.00  0.00    -0.532 OA
HETATM   25  O7  UNK     1       5.660   3.063  -0.291  1.00  0.00    -0.532 OA
ENDBRANCH   8  23
TORSDOF 5
