REMARK  4 active torsions:
REMARK  status: ('A' for Active; 'I' for Inactive)
REMARK    1  A    between atoms: C7_12  and  O3_3 
REMARK    2  A    between atoms: C12_17  and  O4_4 
REMARK    3  A    between atoms: C15_20  and  O5_5 
REMARK    4  A    between atoms: C1_6  and  C3_8 
ROOT
HETATM    1  O1  UNK     1      -0.489   0.054  -0.833  1.00  0.00    -0.340 OA
HETATM    2  O2  UNK     1       1.695   2.765   1.337  1.00  0.00    -0.292 OA
HETATM    3  C1  UNK     1      -0.422  -0.035   0.599  1.00  0.00     0.169 C 
HETATM    4  C2  UNK     1      -0.235   1.345   1.225  1.00  0.00     0.121 C 
HETATM    5  C4  UNK     1       1.403   1.586  -0.687  1.00  0.00     0.076 A 
HETATM    6  C5  UNK     1       1.034   1.959   0.694  1.00  0.00     0.167 C 
HETATM    7  C6  UNK     1       0.607   0.670  -1.381  1.00  0.00     0.089 A 
HETATM    8  C7  UNK     1       2.509   2.173  -1.308  1.00  0.00     0.085 A 
HETATM    9  C8  UNK     1       0.898   0.366  -2.712  1.00  0.00     0.074 A 
HETATM   10  C11 UNK     1       2.807   1.849  -2.632  1.00  0.00     0.074 A 
HETATM   11  C12 UNK     1       2.001   0.952  -3.334  1.00  0.00     0.071 A 
ENDROOT
BRANCH   3  12
HETATM   12  C3  UNK     1      -1.692  -0.694   1.097  1.00  0.00    -0.028 A 
HETATM   13  C10 UNK     1      -2.923  -0.072   0.897  1.00  0.00     0.012 A 
HETATM   14  C14 UNK     1      -4.093  -0.679   1.355  1.00  0.00     0.037 A 
HETATM   15  C15 UNK     1      -4.030  -1.907   2.012  1.00  0.00     0.065 A 
HETATM   16  C13 UNK     1      -2.797  -2.529   2.212  1.00  0.00     0.037 A 
HETATM   17  C9  UNK     1      -1.628  -1.922   1.754  1.00  0.00     0.012 A 
BRANCH  15  18
HETATM   18  O5  UNK     1      -5.170  -2.499   2.460  1.00  0.00    -0.361 OA
HETATM   19  H12 UNK     1      -5.928  -1.932   2.238  1.00  0.00     0.217 HD
ENDBRANCH  15  18
ENDBRANCH   3  12
BRANCH   8  20
HETATM   20  O3  UNK     1       3.319   3.067  -0.676  1.00  0.00    -0.360 OA
HETATM   21  H10 UNK     1       4.023   3.353  -1.283  1.00  0.00     0.217 HD
ENDBRANCH   8  20
BRANCH  11  22
HETATM   22  O4  UNK     1       2.292   0.647  -4.629  1.00  0.00    -0.361 OA
HETATM   23  H11 UNK     1       3.085   1.140  -4.899  1.00  0.00     0.217 HD
ENDBRANCH  11  22
TORSDOF 4
