REMARK  3 active torsions:
REMARK  status: ('A' for Active; 'I' for Inactive)
REMARK    1  A    between atoms: C10_14  and  O3_3 
REMARK    2  A    between atoms: C13_17  and  O4_4 
REMARK    3  A    between atoms: C3_7  and  C4_8 
ROOT
HETATM    1  O1  UNK     1       0.600  -1.076   1.391  1.00  0.00    -0.309 OA
HETATM    2  O2  UNK     1      -0.170  -3.031  -2.100  1.00  0.00    -0.287 OA
HETATM    3  C1  UNK     1       0.569  -3.159   0.141  1.00  0.00     0.048 A 
HETATM    4  C2  UNK     1       0.813  -2.429   1.303  1.00  0.00     0.093 A 
HETATM    5  C3  UNK     1       0.113  -0.411   0.276  1.00  0.00     0.090 A 
HETATM    6  C5  UNK     1       0.062  -2.454  -1.046  1.00  0.00     0.187 A 
HETATM    7  C6  UNK     1      -0.154  -1.001  -0.900  1.00  0.00     0.093 A 
HETATM    8  C7  UNK     1       0.806  -4.535   0.108  1.00  0.00     0.021 A 
HETATM    9  C8  UNK     1       1.297  -3.073   2.442  1.00  0.00     0.074 A 
HETATM   10  C10 UNK     1       1.534  -4.447   2.414  1.00  0.00     0.068 A 
HETATM   11  C12 UNK     1       1.289  -5.177   1.250  1.00  0.00     0.037 A 
ENDROOT
BRANCH   5  12
HETATM   12  C4  UNK     1      -0.074   1.040   0.478  1.00  0.00     0.001 A 
HETATM   13  C11 UNK     1       0.078   1.923  -0.594  1.00  0.00     0.014 A 
HETATM   14  C14 UNK     1      -0.100   3.293  -0.404  1.00  0.00     0.004 A 
HETATM   15  C15 UNK     1      -0.430   3.785   0.859  1.00  0.00     0.036 A 
HETATM   16  C13 UNK     1      -0.583   2.907   1.931  1.00  0.00     0.066 A 
HETATM   17  C9  UNK     1      -0.406   1.536   1.741  1.00  0.00     0.050 A 
BRANCH  16  18
HETATM   18  O4  UNK     1      -0.908   3.388   3.163  1.00  0.00    -0.361 OA
HETATM   19  H10 UNK     1      -0.992   4.355   3.111  1.00  0.00     0.217 HD
ENDBRANCH  16  18
ENDBRANCH   5  12
BRANCH  10  20
HETATM   20  O3  UNK     1       2.005  -5.078   3.525  1.00  0.00    -0.361 OA
HETATM   21  H9  UNK     1       2.117  -4.424   4.235  1.00  0.00     0.217 HD
ENDBRANCH  10  20
TORSDOF 3
