REMARK  4 active torsions:
REMARK  status: ('A' for Active; 'I' for Inactive)
REMARK    1  A    between atoms: C5_14  and  S1_1 
REMARK    2  A    between atoms: N1_8  and  S1_1 
REMARK       I    between atoms: C11_20  and  N2_9 
REMARK    3  A    between atoms: C8_17  and  N2_9 
REMARK    4  A    between atoms: C11_20  and  C12_21 
ROOT
HETATM    1  C5  UNK     1      -2.315  -0.475   2.258  1.00  0.00     0.076 A 
HETATM    2  C6  UNK     1      -1.541   0.071   1.234  1.00  0.00     0.054 A 
HETATM    3  C7  UNK     1      -1.707  -1.206   3.278  1.00  0.00     0.025 A 
HETATM    4  C8  UNK     1      -0.170  -0.123   1.246  1.00  0.00     0.036 A 
HETATM    5  C9  UNK     1      -0.325  -1.392   3.275  1.00  0.00     0.004 A 
HETATM    6  C10 UNK     1       0.449  -0.846   2.251  1.00  0.00     0.029 A 
ENDROOT
BRANCH   4   7
HETATM    7  N2  UNK     1       0.616   0.431   0.207  1.00  0.00    -0.323 N 
HETATM    8  C11 UNK     1       1.993   0.344   0.048  1.00  0.00     0.262 C 
HETATM    9  O5  UNK     1       2.805  -0.228   0.773  1.00  0.00    -0.267 OA
HETATM   10  H13 UNK     1       0.084   0.963  -0.477  1.00  0.00     0.169 HD
BRANCH   8  11
HETATM   11  C12 UNK     1       2.457   1.044  -1.155  1.00  0.00     0.108 A 
HETATM   12  C14 UNK     1       3.691   1.558  -1.102  1.00  0.00     0.037 A 
HETATM   13  C13 UNK     1       4.240   2.269  -2.246  1.00  0.00    -0.001 A 
HETATM   14  C15 UNK     1       3.461   2.405  -3.391  1.00  0.00     0.089 A 
HETATM   15  C17 UNK     1       5.523   2.821  -2.234  1.00  0.00     0.014 A 
HETATM   16  O4  UNK     1       2.162   1.862  -3.441  1.00  0.00    -0.274 OA
HETATM   17  C18 UNK     1       3.927   3.075  -4.520  1.00  0.00     0.038 A 
HETATM   18  C16 UNK     1       1.610   1.176  -2.362  1.00  0.00     0.304 A 
HETATM   19  O6  UNK     1       0.479   0.707  -2.415  1.00  0.00    -0.259 OA
HETATM   20  C20 UNK     1       5.208   3.622  -4.500  1.00  0.00     0.003 A 
HETATM   21  C19 UNK     1       6.005   3.496  -3.360  1.00  0.00     0.001 A 
ENDBRANCH   8  11
ENDBRANCH   4   7
BRANCH   1  22
HETATM   22  S1  UNK     1      -4.046  -0.243   2.262  1.00  0.00     0.243 S 
HETATM   23  O2  UNK     1      -4.523  -0.373   3.632  1.00  0.00    -0.206 OA
HETATM   24  O3  UNK     1      -4.354   0.959   1.499  1.00  0.00    -0.206 OA
BRANCH  22  25
HETATM   25  N1  UNK     1      -4.560  -1.609   1.367  1.00  0.00    -0.202 NA
HETATM   26  C1  UNK     1      -4.443  -2.920   2.070  1.00  0.00     0.134 C 
HETATM   27  C3  UNK     1      -5.165  -3.980   1.250  1.00  0.00     0.183 C 
HETATM   28  O1  UNK     1      -4.612  -4.052  -0.066  1.00  0.00    -0.389 OA
HETATM   29  C4  UNK     1      -4.771  -2.811  -0.758  1.00  0.00     0.183 C 
HETATM   30  C2  UNK     1      -4.032  -1.700  -0.026  1.00  0.00     0.134 C 
ENDBRANCH  22  25
ENDBRANCH   1  22
TORSDOF 4
