REMARK  6 active torsions:
REMARK  status: ('A' for Active; 'I' for Inactive)
REMARK    1  A    between atoms: C19_28  and  O2_4 
REMARK    2  A    between atoms: C9_18  and  O2_4 
REMARK    3  A    between atoms: C3_12  and  N1_9 
REMARK       I    between atoms: C8_17  and  N1_9 
REMARK    4  A    between atoms: C2_11  and  C9_18 
REMARK    5  A    between atoms: C11_20  and  C4_13 
REMARK    6  A    between atoms: C6_15  and  C8_17 
ROOT
HETATM    1  O3  UNK     1      -0.881  -0.382  -2.234  1.00  0.00    -0.267 OA
HETATM    2  N1  UNK     1      -0.589  -0.338   0.107  1.00  0.00    -0.316 N 
HETATM    3  C8  UNK     1      -0.228  -0.147  -1.219  1.00  0.00     0.262 C 
HETATM    4  H1  UNK     1       0.057  -0.074   0.846  1.00  0.00     0.169 HD
ENDROOT
BRANCH   2   5
HETATM    5  C3  UNK     1      -1.806  -0.852   0.564  1.00  0.00     0.094 A 
HETATM    6  C2  UNK     1      -2.251  -1.075   1.828  1.00  0.00     0.080 A 
HETATM    7  C1  UNK     1      -3.569  -1.616   1.822  1.00  0.00    -0.022 A 
HETATM    8  C4  UNK     1      -4.056  -1.776   0.543  1.00  0.00     0.059 A 
HETATM    9  C5  UNK     1      -4.327  -1.966   3.049  1.00  0.00     0.051 C 
HETATM   10  S1  UNK     1      -2.927  -1.275  -0.642  1.00  0.00    -0.067 SA
BRANCH   6  11
HETATM   11  C9  UNK     1      -1.468  -0.790   3.005  1.00  0.00     0.296 C 
HETATM   12  O4  UNK     1      -1.566  -1.419   4.069  1.00  0.00    -0.259 OA
BRANCH  11  13
HETATM   13  O2  UNK     1      -0.587   0.258   2.851  1.00  0.00    -0.318 OA
BRANCH  13  14
HETATM   14  C19 UNK     1       0.222   0.595   3.983  1.00  0.00     0.174 C 
HETATM   15  C20 UNK     1       1.117   1.761   3.620  1.00  0.00     0.034 C 
ENDBRANCH  13  14
ENDBRANCH  11  13
ENDBRANCH   6  11
BRANCH   8  16
HETATM   16  C11 UNK     1      -5.321  -2.282   0.114  1.00  0.00     0.163 C 
HETATM   17  O5  UNK     1      -5.994  -3.138   0.740  1.00  0.00    -0.292 OA
HETATM   18  C16 UNK     1      -5.942  -1.777  -1.192  1.00  0.00     0.097 C 
ENDBRANCH   8  16
ENDBRANCH   2   5
BRANCH   3  19
HETATM   19  C6  UNK     1       1.124   0.412  -1.342  1.00  0.00     0.108 A 
HETATM   20  C10 UNK     1       1.349   1.187  -2.410  1.00  0.00     0.037 A 
HETATM   21  C7  UNK     1       2.658   1.786  -2.619  1.00  0.00     0.001 A 
HETATM   22  C12 UNK     1       3.666   1.540  -1.693  1.00  0.00     0.089 A 
HETATM   23  C14 UNK     1       2.937   2.601  -3.718  1.00  0.00     0.038 A 
HETATM   24  O1  UNK     1       3.424   0.723  -0.571  1.00  0.00    -0.274 OA
HETATM   25  C15 UNK     1       4.942   2.082  -1.835  1.00  0.00     0.040 A 
HETATM   26  C13 UNK     1       2.182   0.136  -0.344  1.00  0.00     0.304 A 
HETATM   27  O6  UNK     1       1.980  -0.574   0.635  1.00  0.00    -0.259 OA
HETATM   28  C18 UNK     1       5.212   2.894  -2.934  1.00  0.00     0.026 A 
HETATM   29  C17 UNK     1       4.212   3.153  -3.874  1.00  0.00     0.035 A 
HETATM   30 Cl1  UNK     1       4.551   4.158  -5.231  1.00  0.00    -0.084 Cl
ENDBRANCH   3  19
TORSDOF 6
