REMARK  5 active torsions:
REMARK  status: ('A' for Active; 'I' for Inactive)
REMARK    1  A    between atoms: C17_25  and  O5_5 
REMARK    2  A    between atoms: C20_28  and  O5_5 
REMARK    3  A    between atoms: C7_15  and  N1_6 
REMARK       I    between atoms: C12_20  and  N2_7 
REMARK    4  A    between atoms: C1_9  and  C4_12 
REMARK    5  A    between atoms: C12_20  and  C3_11 
ROOT
HETATM    1  N3  UNK     1      -4.084  -3.152   5.716  1.00  0.00    -0.195 NA
HETATM    2  C20 UNK     1      -2.825  -2.890   3.429  1.00  0.00     0.299 C 
HETATM    3  C21 UNK     1      -3.528  -3.036   4.704  1.00  0.00     0.085 C 
ENDROOT
BRANCH   2   4
HETATM    4  O5  UNK     1      -3.594  -2.099   2.524  1.00  0.00    -0.338 OA
BRANCH   4   5
HETATM    5  C17 UNK     1      -2.908  -1.376   1.597  1.00  0.00     0.070 A 
HETATM    6  C14 UNK     1      -3.431  -0.172   1.124  1.00  0.00     0.037 A 
HETATM    7  C10 UNK     1      -2.728   0.569   0.175  1.00  0.00     0.011 A 
HETATM    8  C4  UNK     1      -1.506   0.101  -0.296  1.00  0.00    -0.044 A 
HETATM    9  C11 UNK     1      -0.978  -1.098   0.170  1.00  0.00     0.011 A 
HETATM   10  C15 UNK     1      -1.681  -1.839   1.119  1.00  0.00     0.037 A 
BRANCH   8  11
HETATM   11  C1  UNK     1      -0.750   0.898  -1.319  1.00  0.00     0.103 C 
HETATM   12  C2  UNK     1       0.593   1.333  -0.762  1.00  0.00     0.066 A 
HETATM   13  C5  UNK     1       1.734   0.837  -1.267  1.00  0.00     0.104 A 
HETATM   14  C8  UNK     1       0.618   2.340   0.331  1.00  0.00     0.298 A 
HETATM   15  C6  UNK     1       3.032   1.222  -0.720  1.00  0.00     0.033 A 
HETATM   16  O1  UNK     1       1.764  -0.063  -2.318  1.00  0.00    -0.292 OA
HETATM   17  C13 UNK     1       4.251   0.720  -1.190  1.00  0.00     0.017 A 
HETATM   18  C9  UNK     1       3.059   2.134   0.331  1.00  0.00     0.092 A 
HETATM   19  C18 UNK     1       5.457   1.131  -0.612  1.00  0.00     0.001 A 
HETATM   20  C19 UNK     1       5.457   2.045   0.442  1.00  0.00     0.003 A 
HETATM   21  C16 UNK     1       4.253   2.553   0.919  1.00  0.00     0.038 A 
HETATM   22  O2  UNK     1       1.866   2.678   0.842  1.00  0.00    -0.274 OA
HETATM   23  C7  UNK     1       0.601  -0.349  -3.037  1.00  0.00     0.154 C 
HETATM   24  C3  UNK     1      -0.596   0.097  -2.600  1.00  0.00     0.073 C 
HETATM   25  O3  UNK     1      -0.407   2.852   0.770  1.00  0.00    -0.259 OA
BRANCH  23  26
HETATM   26  N1  UNK     1       0.831  -1.086  -4.164  1.00  0.00    -0.379 N 
HETATM   27  H8  UNK     1       1.779  -1.360  -4.386  1.00  0.00     0.158 HD
HETATM   28  H9  UNK     1       0.065  -1.356  -4.767  1.00  0.00     0.158 HD
ENDBRANCH  23  26
BRANCH  24  29
HETATM   29  C12 UNK     1      -1.828  -0.151  -3.371  1.00  0.00     0.250 C 
HETATM   30  O4  UNK     1      -2.504  -1.154  -3.185  1.00  0.00    -0.268 OA
HETATM   31  N2  UNK     1      -2.103   0.840  -4.278  1.00  0.00    -0.366 N 
HETATM   32  H12 UNK     1      -2.925   0.788  -4.872  1.00  0.00     0.159 HD
HETATM   33  H13 UNK     1      -1.510   1.656  -4.395  1.00  0.00     0.159 HD
ENDBRANCH  24  29
ENDBRANCH   8  11
ENDBRANCH   4   5
ENDBRANCH   2   4
TORSDOF 5
