REMARK  6 active torsions:
REMARK  status: ('A' for Active; 'I' for Inactive)
REMARK       I    between atoms: C11_20  and  N1_7 
REMARK    1  A    between atoms: N1_7  and  N2_8 
REMARK       I    between atoms: C14_23  and  N2_8 
REMARK    2  A    between atoms: C17_26  and  N3_9 
REMARK    3  A    between atoms: C2_11  and  C4_13 
REMARK    4  A    between atoms: C12_21  and  C4_13 
REMARK    5  A    between atoms: C11_20  and  C8_17 
REMARK    6  A    between atoms: C13_22  and  C14_23 
ROOT
HETATM    1  O3  UNK     1      -1.188   0.267  -2.190  1.00  0.00    -0.266 OA
HETATM    2  N1  UNK     1      -0.323  -0.178  -0.075  1.00  0.00    -0.263 N 
HETATM    3  C11 UNK     1      -0.287   0.329  -1.356  1.00  0.00     0.276 C 
HETATM    4  H8  UNK     1       0.453  -0.143   0.578  1.00  0.00     0.190 HD
ENDROOT
BRANCH   3   5
HETATM    5  C8  UNK     1       0.988   0.986  -1.669  1.00  0.00     0.110 A 
HETATM    6  C10 UNK     1       1.802   1.654  -0.628  1.00  0.00     0.304 A 
HETATM    7  O1  UNK     1       2.992   2.243  -1.048  1.00  0.00    -0.273 OA
HETATM    8  O2  UNK     1       1.452   1.689   0.547  1.00  0.00    -0.259 OA
HETATM    9  C1  UNK     1       3.404   2.207  -2.394  1.00  0.00     0.096 A 
HETATM   10  C2  UNK     1       4.611   2.824  -2.718  1.00  0.00    -0.020 A 
HETATM   11  C3  UNK     1       2.624   1.575  -3.356  1.00  0.00    -0.000 A 
HETATM   12  C6  UNK     1       5.045   2.806  -4.041  1.00  0.00     0.010 A 
HETATM   13  C9  UNK     1       4.275   2.176  -5.021  1.00  0.00     0.002 A 
HETATM   14  C7  UNK     1       3.066   1.561  -4.681  1.00  0.00     0.014 A 
HETATM   15  C5  UNK     1       1.375   0.950  -2.949  1.00  0.00     0.037 A 
BRANCH  10  16
HETATM   16  C4  UNK     1       5.441   3.501  -1.679  1.00  0.00     0.067 C 
BRANCH  16  17
HETATM   17  C12 UNK     1       6.441   2.578  -1.031  1.00  0.00    -0.032 C 
HETATM   18  C20 UNK     1       6.444   2.266   0.270  1.00  0.00     0.007 C 
ENDBRANCH  16  17
ENDBRANCH  10  16
ENDBRANCH   3   5
BRANCH   2  19
HETATM   19  N2  UNK     1      -1.457  -0.823   0.356  1.00  0.00    -0.263 N 
HETATM   20  C14 UNK     1      -1.780  -0.777   1.699  1.00  0.00     0.270 C 
HETATM   21  O4  UNK     1      -1.125  -0.196   2.560  1.00  0.00    -0.266 OA
HETATM   22  H9  UNK     1      -1.960  -1.358  -0.344  1.00  0.00     0.190 HD
BRANCH  20  23
HETATM   23  C13 UNK     1      -3.030  -1.481   2.085  1.00  0.00     0.033 A 
HETATM   24  C15 UNK     1      -3.147  -1.973   3.368  1.00  0.00     0.019 A 
HETATM   25  C18 UNK     1      -4.320  -2.635   3.731  1.00  0.00     0.037 A 
HETATM   26  C17 UNK     1      -5.349  -2.790   2.803  1.00  0.00     0.102 A 
HETATM   27  C19 UNK     1      -5.206  -2.283   1.511  1.00  0.00     0.037 A 
HETATM   28  C16 UNK     1      -4.033  -1.621   1.148  1.00  0.00     0.019 A 
BRANCH  26  29
HETATM   29  N3  UNK     1      -6.542  -3.465   3.172  1.00  0.00    -0.116 N 
HETATM   30  O5  UNK     1      -6.651  -3.915   4.338  1.00  0.00    -0.532 OA
HETATM   31  O6  UNK     1      -7.457  -3.594   2.322  1.00  0.00    -0.532 OA
ENDBRANCH  26  29
ENDBRANCH  20  23
ENDBRANCH   2  19
TORSDOF 6
