REMARK  3 active torsions:
REMARK  status: ('A' for Active; 'I' for Inactive)
REMARK    1  A    between atoms: C1_6  and  N1_5 
REMARK       I    between atoms: C7_12  and  N1_5 
REMARK    2  A    between atoms: C1_6  and  C4_9 
REMARK    3  A    between atoms: C3_8  and  C7_12 
ROOT
HETATM    1  O2  UNK     1       0.668  -0.009   1.969  1.00  0.00    -0.267 OA
HETATM    2  N1  UNK     1      -0.421  -1.364   0.417  1.00  0.00    -0.352 N 
HETATM    3  C7  UNK     1       0.417  -0.337   0.812  1.00  0.00     0.258 C 
HETATM    4  H4  UNK     1      -0.552  -1.568  -0.569  1.00  0.00     0.163 HD
ENDROOT
BRANCH   3   5
HETATM    5  C3  UNK     1       1.021   0.374  -0.322  1.00  0.00     0.108 A 
HETATM    6  C6  UNK     1       2.231   0.905  -0.109  1.00  0.00     0.037 A 
HETATM    7  C2  UNK     1       2.911   1.629  -1.172  1.00  0.00    -0.001 A 
HETATM    8  C5  UNK     1       2.282   1.758  -2.407  1.00  0.00     0.089 A 
HETATM    9  C8  UNK     1       4.174   2.198  -0.996  1.00  0.00     0.014 A 
HETATM   10  C10 UNK     1       2.879   2.439  -3.466  1.00  0.00     0.038 A 
HETATM   11  O1  UNK     1       1.009   1.197  -2.624  1.00  0.00    -0.274 OA
HETATM   12  C14 UNK     1       4.139   3.005  -3.281  1.00  0.00     0.003 A 
HETATM   13  C13 UNK     1       4.785   2.885  -2.049  1.00  0.00     0.001 A 
HETATM   14  C9  UNK     1       0.334   0.499  -1.627  1.00  0.00     0.304 A 
HETATM   15  O3  UNK     1      -0.775   0.014  -1.825  1.00  0.00    -0.259 OA
ENDBRANCH   3   5
BRANCH   2  16
HETATM   16  C1  UNK     1      -1.128  -2.208   1.354  1.00  0.00     0.164 C 
BRANCH  16  17
HETATM   17  C4  UNK     1      -2.498  -1.678   1.664  1.00  0.00    -0.002 A 
HETATM   18  C11 UNK     1      -3.583  -2.072   0.890  1.00  0.00     0.124 A 
HETATM   19  F1  UNK     1      -3.422  -2.920  -0.135  1.00  0.00    -0.205 F 
HETATM   20  C15 UNK     1      -4.854  -1.577   1.181  1.00  0.00     0.043 A 
HETATM   21  C17 UNK     1      -5.032  -0.693   2.245  1.00  0.00     0.003 A 
HETATM   22  C16 UNK     1      -3.938  -0.302   3.017  1.00  0.00     0.001 A 
HETATM   23  C12 UNK     1      -2.667  -0.797   2.726  1.00  0.00     0.012 A 
ENDBRANCH  16  17
ENDBRANCH   2  16
TORSDOF 3
