REMARK  4 active torsions:
REMARK  status: ('A' for Active; 'I' for Inactive)
REMARK    1  A    between atoms: C13_20  and  O3_4 
REMARK    2  A    between atoms: C19_26  and  O3_4 
REMARK    3  A    between atoms: C1_8  and  C10_17 
REMARK    4  A    between atoms: C13_20  and  C6_13 
ROOT
HETATM    1  O1  UNK     1       1.369  -1.472  -3.113  1.00  0.00    -0.293 OA
HETATM    2  N1  UNK     1       1.638   2.819  -1.124  1.00  0.00    -0.362 N 
HETATM    3  C1  UNK     1       1.556   0.022  -0.653  1.00  0.00     0.104 C 
HETATM    4  C2  UNK     1       1.417   0.644  -2.038  1.00  0.00     0.024 C 
HETATM    5  C3  UNK     1       1.439   1.983  -2.207  1.00  0.00     0.020 C 
HETATM    6  C4  UNK     1       1.257   2.652  -3.544  1.00  0.00     0.058 C 
HETATM    7  C5  UNK     1       0.567   1.743  -4.552  1.00  0.00     0.014 C 
HETATM    8  C6  UNK     1       1.915   1.049   0.423  1.00  0.00     0.052 C 
HETATM    9  C7  UNK     1       1.243   0.385  -4.607  1.00  0.00     0.084 C 
HETATM   10  C8  UNK     1       1.320  -0.249  -3.235  1.00  0.00     0.158 C 
HETATM   11  C9  UNK     1       1.917   2.376   0.160  1.00  0.00     0.018 C 
HETATM   12  C12 UNK     1       2.205   3.466   1.157  1.00  0.00     0.069 C 
HETATM   13  H8  UNK     1       1.651   3.818  -1.293  1.00  0.00     0.165 HD
ENDROOT
BRANCH   3  14
HETATM   14  C10 UNK     1       0.290  -0.702  -0.279  1.00  0.00     0.029 A 
HETATM   15  C11 UNK     1      -0.965   0.081  -0.157  1.00  0.00     0.194 A 
HETATM   16  O4  UNK     1      -1.000   1.289  -0.352  1.00  0.00    -0.287 OA
HETATM   17  C15 UNK     1      -2.175  -0.676   0.213  1.00  0.00     0.050 A 
HETATM   18  C16 UNK     1      -2.076  -2.052   0.423  1.00  0.00     0.089 A 
HETATM   19  C17 UNK     1      -3.406  -0.030   0.353  1.00  0.00     0.042 A 
HETATM   20  O2  UNK     1      -0.894  -2.738   0.299  1.00  0.00    -0.321 OA
HETATM   21  C18 UNK     1      -3.208  -2.789   0.773  1.00  0.00     0.040 A 
HETATM   22  C14 UNK     1       0.224  -2.019  -0.046  1.00  0.00     0.154 A 
HETATM   23  C21 UNK     1      -4.438  -2.146   0.913  1.00  0.00     0.026 A 
HETATM   24  C20 UNK     1      -4.536  -0.769   0.703  1.00  0.00     0.035 A 
HETATM   25 Cl1  UNK     1      -6.057   0.018   0.877  1.00  0.00    -0.084 Cl
ENDBRANCH   3  14
BRANCH   8  26
HETATM   26  C13 UNK     1       2.304   0.513   1.738  1.00  0.00     0.292 C 
HETATM   27  O5  UNK     1       3.447   0.207   2.022  1.00  0.00    -0.259 OA
BRANCH  26  28
HETATM   28  O3  UNK     1       1.197   0.439   2.514  1.00  0.00    -0.318 OA
BRANCH  28  29
HETATM   29  C19 UNK     1       1.415  -0.068   3.835  1.00  0.00     0.174 C 
HETATM   30  C22 UNK     1       0.096  -0.092   4.578  1.00  0.00     0.034 C 
ENDBRANCH  28  29
ENDBRANCH  26  28
ENDBRANCH   8  26
TORSDOF 4
