REMARK  6 active torsions:
REMARK  status: ('A' for Active; 'I' for Inactive)
REMARK    1  A    between atoms: C11_19  and  O2_4 
REMARK    2  A    between atoms: C15_23  and  O3_5 
REMARK    3  A    between atoms: C13_21  and  N1_7 
REMARK    4  A    between atoms: C4_12  and  N1_7 
REMARK    5  A    between atoms: C13_21  and  N2_8 
REMARK    6  A    between atoms: C9_17  and  N2_8 
ROOT
HETATM    1  S1  UNK     1       0.101   0.593  -4.120  1.00  0.00    -0.041 SA
HETATM    2  C13 UNK     1      -0.285   0.186  -2.531  1.00  0.00     0.176 C 
ENDROOT
BRANCH   2   3
HETATM    3  N1  UNK     1      -1.520  -0.438  -2.309  1.00  0.00    -0.333 N 
HETATM    4  H5  UNK     1      -2.098  -0.490  -3.146  1.00  0.00     0.168 HD
BRANCH   3   5
HETATM    5  C4  UNK     1      -2.180  -0.808  -1.137  1.00  0.00     0.036 A 
HETATM    6  C5  UNK     1      -1.453  -1.110   0.009  1.00  0.00     0.067 A 
HETATM    7  C2  UNK     1      -2.134  -1.477   1.171  1.00  0.00     0.092 A 
HETATM    8  C1  UNK     1      -3.526  -1.553   1.227  1.00  0.00     0.004 A 
HETATM    9  O1  UNK     1      -1.342  -1.771   2.300  1.00  0.00    -0.275 OA
HETATM   10  C3  UNK     1      -4.159  -1.948   2.492  1.00  0.00    -0.043 A 
HETATM   11  C6  UNK     1      -4.241  -1.245   0.061  1.00  0.00     0.017 A 
HETATM   12  C10 UNK     1      -5.655  -2.039   2.584  1.00  0.00     0.049 C 
HETATM   13  C8  UNK     1      -3.382  -2.222   3.549  1.00  0.00     0.090 A 
HETATM   14  C12 UNK     1      -1.912  -2.146   3.506  1.00  0.00     0.288 A 
HETATM   15  O4  UNK     1      -1.233  -2.404   4.494  1.00  0.00    -0.260 OA
HETATM   16  C7  UNK     1      -3.572  -0.875  -1.111  1.00  0.00     0.030 A 
ENDBRANCH   3   5
ENDBRANCH   2   3
BRANCH   2  17
HETATM   17  N2  UNK     1       0.439   0.509  -1.397  1.00  0.00    -0.331 N 
HETATM   18  H9  UNK     1      -0.134   0.660  -0.574  1.00  0.00     0.168 HD
BRANCH  17  19
HETATM   19  C9  UNK     1       1.702   1.134  -1.246  1.00  0.00     0.070 A 
HETATM   20  C11 UNK     1       1.916   2.014  -0.198  1.00  0.00     0.096 A 
HETATM   21  C16 UNK     1       3.164   2.622  -0.062  1.00  0.00     0.065 A 
HETATM   22  C17 UNK     1       4.179   2.341  -0.976  1.00  0.00     0.070 A 
HETATM   23  C15 UNK     1       3.947   1.452  -2.026  1.00  0.00     0.092 A 
HETATM   24 Cl1  UNK     1       5.713   3.108  -0.785  1.00  0.00    -0.081 Cl
HETATM   25  C14 UNK     1       2.699   0.844  -2.162  1.00  0.00     0.071 A 
BRANCH  20  26
HETATM   26  O2  UNK     1       0.937   2.302   0.705  1.00  0.00    -0.354 OA
HETATM   27  C18 UNK     1       0.081   3.402   0.404  1.00  0.00     0.210 C 
ENDBRANCH  20  26
BRANCH  23  28
HETATM   28  O3  UNK     1       4.921   1.160  -2.934  1.00  0.00    -0.354 OA
HETATM   29  C19 UNK     1       4.992   1.985  -4.095  1.00  0.00     0.210 C 
ENDBRANCH  23  28
ENDBRANCH  17  19
ENDBRANCH   2  17
TORSDOF 6
