REMARK  1 active torsions:
REMARK  status: ('A' for Active; 'I' for Inactive)
REMARK    1  A    between atoms: C3_8  and  C8_13 
ROOT
HETATM    1 Cl1  UNK     1      -2.972  -1.093  -1.323  1.00  0.00    -0.077 Cl
HETATM    2  O1  UNK     1       0.059   0.053   1.057  1.00  0.00    -0.307 OA
HETATM    3  O2  UNK     1      -0.801   0.111  -2.925  1.00  0.00    -0.286 OA
HETATM    4  C1  UNK     1       0.720   0.620  -1.207  1.00  0.00     0.050 A 
HETATM    5  C2  UNK     1       0.957   0.574   0.164  1.00  0.00     0.090 A 
HETATM    6  C3  UNK     1      -1.144  -0.456   0.583  1.00  0.00     0.143 A 
HETATM    7  C4  UNK     1      -0.549   0.088  -1.727  1.00  0.00     0.209 A 
HETATM    8  C5  UNK     1      -1.485  -0.466  -0.718  1.00  0.00     0.120 A 
HETATM    9  C6  UNK     1       1.675   1.164  -2.070  1.00  0.00     0.018 A 
HETATM   10  C7  UNK     1       2.153   1.073   0.682  1.00  0.00     0.038 A 
HETATM   11  C9  UNK     1       2.870   1.662  -1.550  1.00  0.00     0.001 A 
HETATM   12  C10 UNK     1       3.109   1.617  -0.176  1.00  0.00     0.003 A 
ENDROOT
BRANCH   6  13
HETATM   13  C8  UNK     1      -1.996  -0.983   1.703  1.00  0.00     0.412 C 
HETATM   14  F1  UNK     1      -1.340  -1.959   2.367  1.00  0.00    -0.207 F 
HETATM   15  F2  UNK     1      -2.258   0.001   2.592  1.00  0.00    -0.207 F 
ENDBRANCH   6  13
TORSDOF 1
