REMARK  2 active torsions:
REMARK  status: ('A' for Active; 'I' for Inactive)
REMARK    1  A    between atoms: C8_13  and  O2_3 
REMARK    2  A    between atoms: C2_7  and  C5_10 
ROOT
HETATM    1  O1  UNK     1       2.036   1.402   0.059  1.00  0.00    -0.271 OA
HETATM    2  O3  UNK     1       0.928   0.722   1.935  1.00  0.00    -0.259 OA
HETATM    3  C1  UNK     1       1.144   0.872  -2.137  1.00  0.00     0.002 A 
HETATM    4  C2  UNK     1      -0.068   0.160  -0.154  1.00  0.00     0.076 A 
HETATM    5  C3  UNK     1       2.127   1.455  -1.345  1.00  0.00     0.123 A 
HETATM    6  C4  UNK     1       0.020   0.213  -1.491  1.00  0.00     0.035 A 
HETATM    7  C8  UNK     1       3.228   2.104  -1.900  1.00  0.00     0.102 A 
HETATM    8  C9  UNK     1       1.268   0.943  -3.526  1.00  0.00     0.014 A 
HETATM    9  C10 UNK     1       0.979   0.770   0.710  1.00  0.00     0.301 A 
HETATM   10  C11 UNK     1       3.345   2.170  -3.286  1.00  0.00     0.040 A 
HETATM   11  C12 UNK     1       2.367   1.591  -4.098  1.00  0.00     0.004 A 
ENDROOT
BRANCH   4  12
HETATM   12  C5  UNK     1      -1.191  -0.490   0.449  1.00  0.00     0.115 A 
HETATM   13  S1  UNK     1      -1.070  -2.166   0.788  1.00  0.00    -0.067 SA
HETATM   14  C6  UNK     1      -2.671  -2.148   1.429  1.00  0.00     0.035 A 
HETATM   15  C13 UNK     1      -3.417  -3.205   1.975  1.00  0.00     0.021 A 
HETATM   16  C7  UNK     1      -3.186  -0.852   1.336  1.00  0.00     0.075 A 
HETATM   17  C15 UNK     1      -4.709  -2.936   2.433  1.00  0.00     0.002 A 
HETATM   18  C16 UNK     1      -5.243  -1.655   2.351  1.00  0.00     0.002 A 
HETATM   19  C14 UNK     1      -4.494  -0.607   1.807  1.00  0.00     0.033 A 
HETATM   20  N1  UNK     1      -2.330   0.085   0.775  1.00  0.00    -0.239 NA
ENDBRANCH   4  12
BRANCH   7  21
HETATM   21  O2  UNK     1       4.182   2.669  -1.113  1.00  0.00    -0.353 OA
HETATM   22  C17 UNK     1       5.284   1.846  -0.734  1.00  0.00     0.210 C 
ENDBRANCH   7  21
TORSDOF 2
