REMARK  3 active torsions:
REMARK  status: ('A' for Active; 'I' for Inactive)
REMARK    1  A    between atoms: C3_7  and  O2_2 
REMARK    2  A    between atoms: C7_11  and  O3_3 
REMARK    3  A    between atoms: C4_8  and  C9_13 
ROOT
HETATM    1  O1  UNK     1      -0.096   0.365  -0.635  1.00  0.00    -0.306 OA
HETATM    2  O4  UNK     1       0.293   2.125   3.019  1.00  0.00    -0.287 OA
HETATM    3  C1  UNK     1      -0.961   0.037   0.378  1.00  0.00     0.126 A 
HETATM    4  C2  UNK     1      -0.886   0.601   1.650  1.00  0.00     0.051 A 
HETATM    5  C3  UNK     1      -1.949  -0.906   0.092  1.00  0.00     0.136 A 
HETATM    6  C4  UNK     1       0.891   1.305  -0.381  1.00  0.00     0.090 A 
HETATM    7  C5  UNK     1       0.166   1.592   1.925  1.00  0.00     0.187 A 
HETATM    8  C6  UNK     1      -1.794   0.229   2.644  1.00  0.00     0.021 A 
HETATM    9  C7  UNK     1      -2.858  -1.281   1.081  1.00  0.00     0.104 A 
HETATM   10  C8  UNK     1       1.070   1.913   0.802  1.00  0.00     0.093 A 
HETATM   11  C10 UNK     1      -2.781  -0.714   2.354  1.00  0.00     0.041 A 
ENDROOT
BRANCH   6  12
HETATM   12  C9  UNK     1       1.769   1.580  -1.537  1.00  0.00    -0.002 A 
HETATM   13  C11 UNK     1       3.103   1.941  -1.334  1.00  0.00     0.014 A 
HETATM   14  C13 UNK     1       3.933   2.200  -2.425  1.00  0.00     0.001 A 
HETATM   15  C15 UNK     1       3.431   2.098  -3.723  1.00  0.00     0.000 A 
HETATM   16  C14 UNK     1       2.099   1.737  -3.929  1.00  0.00     0.001 A 
HETATM   17  C12 UNK     1       1.269   1.478  -2.838  1.00  0.00     0.014 A 
ENDBRANCH   6  12
BRANCH   5  18
HETATM   18  O2  UNK     1      -2.029  -1.463  -1.150  1.00  0.00    -0.351 OA
HETATM   19  C16 UNK     1      -1.285  -2.658  -1.373  1.00  0.00     0.210 C 
ENDBRANCH   5  18
BRANCH   9  20
HETATM   20  O3  UNK     1      -3.828  -2.201   0.817  1.00  0.00    -0.353 OA
HETATM   21  C17 UNK     1      -4.717  -2.528   1.883  1.00  0.00     0.210 C 
ENDBRANCH   9  20
TORSDOF 3
