REMARK  2 active torsions:
REMARK  status: ('A' for Active; 'I' for Inactive)
REMARK    1  A    between atoms: C7_10  and  O3_3 
REMARK    2  A    between atoms: C1_4  and  C3_6 
ROOT
HETATM    1  O1  UNK     1      -0.231  -0.008  -1.097  1.00  0.00    -0.340 OA
HETATM    2  O2  UNK     1       1.377   3.240   0.825  1.00  0.00    -0.292 OA
HETATM    3  C1  UNK     1      -0.384   0.155   0.322  1.00  0.00     0.172 C 
HETATM    4  C2  UNK     1      -0.400   1.634   0.705  1.00  0.00     0.121 C 
HETATM    5  C4  UNK     1       0.887   2.273   0.254  1.00  0.00     0.165 C 
HETATM    6  C5  UNK     1       1.495   1.710  -0.969  1.00  0.00     0.043 A 
HETATM    7  C6  UNK     1       0.888   0.614  -1.588  1.00  0.00     0.083 A 
HETATM    8  C9  UNK     1       2.638   2.291  -1.525  1.00  0.00     0.018 A 
HETATM    9  C10 UNK     1       1.406   0.119  -2.786  1.00  0.00     0.038 A 
HETATM   10  C12 UNK     1       3.163   1.778  -2.712  1.00  0.00     0.001 A 
HETATM   11  C14 UNK     1       2.546   0.698  -3.343  1.00  0.00     0.003 A 
ENDROOT
BRANCH   3  12
HETATM   12  C3  UNK     1      -1.663  -0.534   0.748  1.00  0.00     0.005 A 
HETATM   13  C7  UNK     1      -1.762  -1.145   1.999  1.00  0.00     0.074 A 
HETATM   14  C11 UNK     1      -2.948  -1.775   2.376  1.00  0.00     0.037 A 
HETATM   15  C15 UNK     1      -4.036  -1.794   1.503  1.00  0.00     0.003 A 
HETATM   16  C13 UNK     1      -3.937  -1.184   0.252  1.00  0.00     0.001 A 
HETATM   17  C8  UNK     1      -2.752  -0.554  -0.125  1.00  0.00     0.012 A 
BRANCH  13  18
HETATM   18  O3  UNK     1      -0.710  -1.135   2.864  1.00  0.00    -0.360 OA
HETATM   19  H12 UNK     1      -0.963  -1.604   3.677  1.00  0.00     0.217 HD
ENDBRANCH  13  18
ENDBRANCH   3  12
TORSDOF 2
