REMARK  11 active torsions:
REMARK  status: ('A' for Active; 'I' for Inactive)
REMARK    1  A    between atoms: C1_11  and  O2_2 
REMARK    2  A    between atoms: C13_23  and  O2_2 
REMARK    3  A    between atoms: C7_17  and  O3_3 
REMARK    4  A    between atoms: C12_22  and  O4_4 
REMARK    5  A    between atoms: C14_24  and  O5_5 
REMARK    6  A    between atoms: C16_26  and  O7_7 
REMARK    7  A    between atoms: C20_30  and  O8_8 
REMARK    8  A    between atoms: C21_31  and  O9_9 
REMARK    9  A    between atoms: C22_32  and  O10_10 
REMARK   10  A    between atoms: C2_12  and  C6_16 
REMARK   11  A    between atoms: C13_23  and  C17_27 
ROOT
HETATM    1  O1  UNK     1      -1.413  -1.674  -0.573  1.00  0.00    -0.338 OA
HETATM    2  C1  UNK     1      -0.978  -0.544   1.574  1.00  0.00     0.170 C 
HETATM    3  C2  UNK     1      -2.017  -1.154   0.623  1.00  0.00     0.192 C 
HETATM    4  C3  UNK     1       0.015  -1.624   1.999  1.00  0.00     0.080 C 
HETATM    5  C4  UNK     1       0.415  -2.482   0.829  1.00  0.00     0.011 A 
HETATM    6  C5  UNK     1      -0.313  -2.466  -0.367  1.00  0.00     0.081 A 
HETATM    7  C7  UNK     1       1.525  -3.331   0.939  1.00  0.00     0.077 A 
HETATM    8  C8  UNK     1       0.087  -3.256  -1.448  1.00  0.00     0.074 A 
HETATM    9  C11 UNK     1       1.915  -4.130  -0.136  1.00  0.00     0.073 A 
HETATM   10  C12 UNK     1       1.198  -4.089  -1.331  1.00  0.00     0.071 A 
ENDROOT
BRANCH   2  11
HETATM   11  O2  UNK     1      -0.274   0.511   0.918  1.00  0.00    -0.309 OA
BRANCH  11  12
HETATM   12  C13 UNK     1       0.695   1.119   1.652  1.00  0.00     0.294 C 
HETATM   13  O6  UNK     1       0.706   1.251   2.866  1.00  0.00    -0.259 OA
BRANCH  12  14
HETATM   14  C17 UNK     1       1.777   1.622   0.768  1.00  0.00     0.045 A 
HETATM   15  C19 UNK     1       2.042   0.951  -0.408  1.00  0.00     0.057 A 
HETATM   16  C20 UNK     1       3.060   1.423  -1.238  1.00  0.00     0.102 A 
HETATM   17  C22 UNK     1       3.789   2.554  -0.873  1.00  0.00     0.132 A 
HETATM   18  C21 UNK     1       3.501   3.215   0.322  1.00  0.00     0.102 A 
HETATM   19  C18 UNK     1       2.484   2.743   1.151  1.00  0.00     0.057 A 
BRANCH  16  20
HETATM   20  O8  UNK     1       3.332   0.768  -2.401  1.00  0.00    -0.358 OA
HETATM   21  H16 UNK     1       2.730   0.009  -2.487  1.00  0.00     0.217 HD
ENDBRANCH  16  20
BRANCH  17  22
HETATM   22  O10 UNK     1       4.784   3.016  -1.684  1.00  0.00    -0.356 OA
HETATM   23  H18 UNK     1       5.176   3.804  -1.270  1.00  0.00     0.218 HD
ENDBRANCH  17  22
BRANCH  18  24
HETATM   24  O9  UNK     1       4.205   4.321   0.690  1.00  0.00    -0.358 OA
HETATM   25  H17 UNK     1       3.868   4.643   1.543  1.00  0.00     0.217 HD
ENDBRANCH  18  24
ENDBRANCH  12  14
ENDBRANCH  11  12
ENDBRANCH   2  11
BRANCH   3  26
HETATM   26  C6  UNK     1      -3.097  -0.155   0.252  1.00  0.00    -0.024 A 
HETATM   27  C10 UNK     1      -4.244  -0.047   1.037  1.00  0.00     0.013 A 
HETATM   28  C15 UNK     1      -5.237   0.872   0.697  1.00  0.00     0.040 A 
HETATM   29  C16 UNK     1      -5.081   1.682  -0.427  1.00  0.00     0.098 A 
HETATM   30  C14 UNK     1      -3.933   1.574  -1.212  1.00  0.00     0.099 A 
HETATM   31  C9  UNK     1      -2.941   0.655  -0.872  1.00  0.00     0.049 A 
BRANCH  29  32
HETATM   32  O7  UNK     1      -6.058   2.576  -0.749  1.00  0.00    -0.358 OA
HETATM   33  H15 UNK     1      -6.775   2.511  -0.095  1.00  0.00     0.217 HD
ENDBRANCH  29  32
BRANCH  30  34
HETATM   34  O5  UNK     1      -3.771   2.359  -2.313  1.00  0.00    -0.358 OA
HETATM   35  H14 UNK     1      -2.919   2.146  -2.732  1.00  0.00     0.217 HD
ENDBRANCH  30  34
ENDBRANCH   3  26
BRANCH   7  36
HETATM   36  O3  UNK     1       2.246  -3.395   2.095  1.00  0.00    -0.360 OA
HETATM   37  H10 UNK     1       2.973  -4.033   1.984  1.00  0.00     0.217 HD
ENDBRANCH   7  36
BRANCH  10  38
HETATM   38  O4  UNK     1       1.582  -4.864  -2.382  1.00  0.00    -0.361 OA
HETATM   39  H11 UNK     1       0.975  -4.709  -3.126  1.00  0.00     0.217 HD
ENDBRANCH  10  38
TORSDOF 11
