REMARK  6 active torsions:
REMARK  status: ('A' for Active; 'I' for Inactive)
REMARK    1  A    between atoms: C16_24  and  S1_1 
REMARK    2  A    between atoms: C22_30  and  S1_1 
REMARK    3  A    between atoms: C13_21  and  O3_4 
REMARK    4  A    between atoms: C8_16  and  N1_6 
REMARK    5  A    between atoms: C1_9  and  C3_11 
REMARK    6  A    between atoms: C11_19  and  C16_24 
ROOT
HETATM    1  O1  UNK     1       2.915  -0.420  -1.269  1.00  0.00    -0.291 OA
HETATM    2  O2  UNK     1       1.976   3.512  -0.193  1.00  0.00    -0.274 OA
HETATM    3  O4  UNK     1       0.361   3.570  -1.801  1.00  0.00    -0.259 OA
HETATM    4  N2  UNK     1       0.384  -1.653  -5.178  1.00  0.00    -0.191 NA
HETATM    5  C1  UNK     1       0.733   0.842  -2.642  1.00  0.00     0.109 C 
HETATM    6  C2  UNK     1       1.548   1.524  -1.561  1.00  0.00     0.066 A 
HETATM    7  C4  UNK     1       2.551   0.875  -0.949  1.00  0.00     0.104 A 
HETATM    8  C5  UNK     1       1.340  -0.492  -3.068  1.00  0.00     0.086 C 
HETATM    9  C6  UNK     1       3.324   1.510   0.115  1.00  0.00     0.033 A 
HETATM   10  C8  UNK     1       2.363  -1.051  -2.383  1.00  0.00     0.159 C 
HETATM   11  C9  UNK     1       1.233   2.936  -1.217  1.00  0.00     0.298 A 
HETATM   12  C12 UNK     1       3.008   2.819   0.468  1.00  0.00     0.092 A 
HETATM   13  C15 UNK     1       4.365   0.875   0.803  1.00  0.00     0.017 A 
HETATM   14  C17 UNK     1       3.690   3.501   1.475  1.00  0.00     0.038 A 
HETATM   15  C18 UNK     1       0.812  -1.133  -4.233  1.00  0.00     0.100 C 
HETATM   16  C19 UNK     1       5.059   1.545   1.815  1.00  0.00     0.001 A 
HETATM   17  C20 UNK     1       4.722   2.857   2.150  1.00  0.00     0.003 A 
ENDROOT
BRANCH   5  18
HETATM   18  C3  UNK     1      -0.683   0.641  -2.185  1.00  0.00    -0.043 A 
HETATM   19  C10 UNK     1      -1.722   1.257  -2.873  1.00  0.00     0.011 A 
HETATM   20  C14 UNK     1      -3.037   1.070  -2.449  1.00  0.00     0.038 A 
HETATM   21  C13 UNK     1      -3.305   0.267  -1.340  1.00  0.00     0.075 A 
HETATM   22  C11 UNK     1      -2.257  -0.347  -0.655  1.00  0.00    -0.015 A 
HETATM   23  C7  UNK     1      -0.941  -0.160  -1.079  1.00  0.00     0.019 A 
BRANCH  21  24
HETATM   24  O3  UNK     1      -4.595   0.095  -0.938  1.00  0.00    -0.355 OA
HETATM   25  C21 UNK     1      -5.309  -1.002  -1.505  1.00  0.00     0.210 C 
ENDBRANCH  21  24
BRANCH  22  26
HETATM   26  C16 UNK     1      -2.525  -1.208   0.535  1.00  0.00     0.122 C 
BRANCH  26  27
HETATM   27  S1  UNK     1      -2.519  -0.267   2.091  1.00  0.00    -0.106 SA
BRANCH  27  28
HETATM   28  C22 UNK     1      -2.861  -1.555   3.284  1.00  0.00     0.093 A 
HETATM   29  N3  UNK     1      -3.028  -2.800   2.790  1.00  0.00    -0.254 NA
HETATM   30  C25 UNK     1      -3.288  -3.771   3.694  1.00  0.00     0.118 A 
HETATM   31  C26 UNK     1      -3.388  -3.553   5.059  1.00  0.00     0.019 A 
HETATM   32  C24 UNK     1      -3.209  -2.255   5.525  1.00  0.00     0.004 A 
HETATM   33  C23 UNK     1      -2.940  -1.230   4.626  1.00  0.00     0.039 A 
ENDBRANCH  27  28
ENDBRANCH  26  27
ENDBRANCH  22  26
ENDBRANCH   5  18
BRANCH  10  34
HETATM   34  N1  UNK     1       2.954  -2.247  -2.686  1.00  0.00    -0.379 N 
HETATM   35  H10 UNK     1       2.639  -2.799  -3.473  1.00  0.00     0.158 HD
HETATM   36  H9  UNK     1       3.716  -2.575  -2.107  1.00  0.00     0.158 HD
ENDBRANCH  10  34
TORSDOF 6
