REMARK  8 active torsions:
REMARK  status: ('A' for Active; 'I' for Inactive)
REMARK    1  A    between atoms: C12_21  and  O2_2 
REMARK    2  A    between atoms: C14_23  and  O5_5 
REMARK    3  A    between atoms: C23_32  and  O5_5 
REMARK    4  A    between atoms: C25_34  and  O8_8 
REMARK    5  A    between atoms: C12_21  and  C2_11 
REMARK    6  A    between atoms: C11_20  and  C6_15 
REMARK    7  A    between atoms: C14_23  and  C8_17 
REMARK    8  A    between atoms: C23_32  and  C25_34 
ROOT
HETATM    1  O1  UNK     1       2.757  -0.607  -1.389  1.00  0.00    -0.292 OA
HETATM    2  N1  UNK     1      -1.006   1.960  -2.687  1.00  0.00    -0.362 N 
HETATM    3  C1  UNK     1       2.566   2.968  -1.970  1.00  0.00     0.008 C 
HETATM    4  C2  UNK     1       3.212   1.600  -2.227  1.00  0.00     0.164 C 
HETATM    5  C3  UNK     1       1.209   3.020  -2.690  1.00  0.00     0.063 C 
HETATM    6  C4  UNK     1       0.823   0.643  -1.956  1.00  0.00     0.025 C 
HETATM    7  C5  UNK     1       0.343   1.816  -2.421  1.00  0.00     0.020 C 
HETATM    8  C6  UNK     1      -0.112  -0.523  -1.639  1.00  0.00     0.104 C 
HETATM    9  C7  UNK     1       2.302   0.462  -1.796  1.00  0.00     0.172 C 
HETATM   10  C8  UNK     1      -1.532  -0.287  -2.162  1.00  0.00     0.052 C 
HETATM   11  C9  UNK     1       2.412   3.299  -0.477  1.00  0.00     0.011 C 
HETATM   12  C10 UNK     1      -1.923   0.923  -2.623  1.00  0.00     0.018 C 
HETATM   13  C13 UNK     1      -3.308   1.269  -3.101  1.00  0.00     0.069 C 
HETATM   14  H9  UNK     1      -1.326   2.854  -3.041  1.00  0.00     0.165 HD
ENDROOT
BRANCH   8  15
HETATM   15  C11 UNK     1      -0.142  -0.789  -0.155  1.00  0.00     0.029 A 
HETATM   16  C15 UNK     1      -0.639   0.280   0.748  1.00  0.00     0.194 A 
HETATM   17  O7  UNK     1      -1.021   1.363   0.325  1.00  0.00    -0.287 OA
HETATM   18  C17 UNK     1      -0.646  -0.032   2.189  1.00  0.00     0.049 A 
HETATM   19  C18 UNK     1      -0.197  -1.283   2.614  1.00  0.00     0.089 A 
HETATM   20  C19 UNK     1      -1.095   0.908   3.120  1.00  0.00     0.025 A 
HETATM   21  O3  UNK     1       0.254  -2.244   1.744  1.00  0.00    -0.321 OA
HETATM   22  C21 UNK     1      -0.195  -1.600   3.973  1.00  0.00     0.039 A 
HETATM   23  C16 UNK     1       0.255  -1.939   0.406  1.00  0.00     0.154 A 
HETATM   24  C24 UNK     1      -0.643  -0.663   4.904  1.00  0.00     0.009 A 
HETATM   25  C22 UNK     1      -1.092   0.588   4.478  1.00  0.00    -0.061 A 
HETATM   26  C26 UNK     1      -1.570   1.586   5.479  1.00  0.00     0.048 C 
ENDBRANCH   8  15
BRANCH  10  27
HETATM   27  C14 UNK     1      -2.428  -1.455  -2.193  1.00  0.00     0.292 C 
HETATM   28  O6  UNK     1      -2.491  -2.226  -3.132  1.00  0.00    -0.259 OA
BRANCH  27  29
HETATM   29  O5  UNK     1      -3.123  -1.489  -1.030  1.00  0.00    -0.316 OA
BRANCH  29  30
HETATM   30  C23 UNK     1      -4.045  -2.578  -0.907  1.00  0.00     0.205 C 
BRANCH  30  31
HETATM   31  C25 UNK     1      -4.744  -2.485   0.435  1.00  0.00     0.193 C 
BRANCH  31  32
HETATM   32  O8  UNK     1      -3.774  -2.575   1.471  1.00  0.00    -0.394 OA
HETATM   33  C27 UNK     1      -4.372  -2.472   2.756  1.00  0.00     0.201 C 
ENDBRANCH  31  32
ENDBRANCH  30  31
ENDBRANCH  29  30
ENDBRANCH  27  29
ENDBRANCH  10  27
BRANCH   4  34
HETATM   34  C12 UNK     1       4.583   1.539  -1.623  1.00  0.00     0.270 C 
HETATM   35  O4  UNK     1       4.931   0.706  -0.797  1.00  0.00    -0.264 OA
BRANCH  34  36
HETATM   36  O2  UNK     1       5.352   2.540  -2.138  1.00  0.00    -0.326 OA
HETATM   37  C20 UNK     1       6.694   2.599  -1.644  1.00  0.00     0.213 C 
ENDBRANCH  34  36
ENDBRANCH   4  34
TORSDOF 8
