REMARK  3 active torsions:
REMARK  status: ('A' for Active; 'I' for Inactive)
REMARK    1  A    between atoms: C3_11  and  N1_7 
REMARK       I    between atoms: C8_16  and  N1_7 
REMARK       I    between atoms: C12_20  and  N2_8 
REMARK    2  A    between atoms: C12_20  and  C2_10 
REMARK    3  A    between atoms: C5_13  and  C8_16 
ROOT
HETATM    1  O2  UNK     1       0.423   0.763   1.936  1.00  0.00    -0.267 OA
HETATM    2  N1  UNK     1      -1.067  -0.303   0.457  1.00  0.00    -0.316 N 
HETATM    3  C8  UNK     1       0.037   0.462   0.808  1.00  0.00     0.262 C 
HETATM    4  H1  UNK     1      -1.248  -0.485  -0.527  1.00  0.00     0.169 HD
ENDROOT
BRANCH   2   5
HETATM    5  C3  UNK     1      -2.005  -0.916   1.323  1.00  0.00     0.093 A 
HETATM    6  C2  UNK     1      -3.086  -1.664   1.034  1.00  0.00     0.072 A 
HETATM    7  C1  UNK     1      -3.744  -2.076   2.229  1.00  0.00    -0.031 A 
HETATM    8  C4  UNK     1      -3.109  -1.605   3.357  1.00  0.00    -0.012 A 
HETATM    9  C6  UNK     1      -4.969  -2.913   2.258  1.00  0.00     0.050 C 
HETATM   10  C10 UNK     1      -3.469  -1.807   4.779  1.00  0.00     0.057 C 
HETATM   11  S1  UNK     1      -1.725  -0.672   2.974  1.00  0.00    -0.076 SA
BRANCH   6  12
HETATM   12  C12 UNK     1      -3.503  -1.994  -0.307  1.00  0.00     0.252 C 
HETATM   13  O3  UNK     1      -4.273  -1.279  -0.975  1.00  0.00    -0.268 OA
HETATM   14  N2  UNK     1      -2.990  -3.160  -0.869  1.00  0.00    -0.366 N 
HETATM   15  H12 UNK     1      -2.353  -3.768  -0.363  1.00  0.00     0.159 HD
HETATM   16  H13 UNK     1      -3.241  -3.439  -1.811  1.00  0.00     0.159 HD
ENDBRANCH   6  12
ENDBRANCH   2   5
BRANCH   3  17
HETATM   17  C5  UNK     1       0.782   0.931  -0.366  1.00  0.00     0.108 A 
HETATM   18  C13 UNK     1       0.119   1.195  -1.663  1.00  0.00     0.304 A 
HETATM   19  O1  UNK     1       0.933   1.637  -2.702  1.00  0.00    -0.274 OA
HETATM   20  O4  UNK     1      -1.087   1.035  -1.819  1.00  0.00    -0.259 OA
HETATM   21  C11 UNK     1       2.318   1.826  -2.533  1.00  0.00     0.089 A 
HETATM   22  C7  UNK     1       2.921   1.571  -1.305  1.00  0.00     0.000 A 
HETATM   23  C15 UNK     1       3.050   2.271  -3.632  1.00  0.00     0.039 A 
HETATM   24  C14 UNK     1       4.298   1.770  -1.176  1.00  0.00     0.033 A 
HETATM   25  C9  UNK     1       2.098   1.108  -0.199  1.00  0.00     0.037 A 
HETATM   26  C16 UNK     1       5.046   2.216  -2.270  1.00  0.00     0.011 A 
HETATM   27 Br1  UNK     1       6.909   2.484  -2.090  1.00  0.00    -0.051 Br
HETATM   28  C17 UNK     1       4.423   2.467  -3.494  1.00  0.00     0.022 A 
ENDBRANCH   3  17
TORSDOF 3
