REMARK  2 active torsions:
REMARK  status: ('A' for Active; 'I' for Inactive)
REMARK    1  A    between atoms: C11_14  and  O2_2 
REMARK    2  A    between atoms: C3_6  and  O2_2 
ROOT
HETATM    1  O1  UNK     1      -0.673   0.282  -2.211  1.00  0.00    -0.275 OA
HETATM    2  O3  UNK     1      -2.688  -0.671  -2.728  1.00  0.00    -0.260 OA
HETATM    3  C1  UNK     1       0.243   0.022   0.043  1.00  0.00     0.031 A 
HETATM    4  C2  UNK     1       0.346   0.512  -1.262  1.00  0.00     0.093 A 
HETATM    5  C3  UNK     1      -0.967  -0.729   0.394  1.00  0.00     0.087 A 
HETATM    6  C4  UNK     1       2.497   1.489  -0.821  1.00  0.00    -0.059 A 
HETATM    7  C5  UNK     1       1.312   0.276   0.913  1.00  0.00     0.017 A 
HETATM    8  C6  UNK     1       1.452   1.241  -1.704  1.00  0.00     0.045 A 
HETATM    9  C7  UNK     1       2.428   1.005   0.484  1.00  0.00     0.008 A 
HETATM   10  C8  UNK     1      -1.914  -0.950  -0.522  1.00  0.00     0.120 A 
HETATM   11  C9  UNK     1       3.689   2.264  -1.269  1.00  0.00     0.048 C 
HETATM   12  C10 UNK     1      -1.809  -0.451  -1.902  1.00  0.00     0.290 A 
ENDROOT
BRANCH   5  13
HETATM   13  O2  UNK     1      -1.137  -1.208   1.678  1.00  0.00    -0.350 OA
BRANCH  13  14
HETATM   14  C11 UNK     1      -1.800  -0.253   2.484  1.00  0.00     0.171 C 
HETATM   15  C12 UNK     1      -1.980  -0.823   3.875  1.00  0.00     0.034 C 
ENDBRANCH  13  14
ENDBRANCH   5  13
TORSDOF 2
