REMARK  3 active torsions:
REMARK  status: ('A' for Active; 'I' for Inactive)
REMARK    1  A    between atoms: C6_11  and  N1_4 
REMARK    2  A    between atoms: C11_16  and  N2_5 
REMARK    3  A    between atoms: C6_11  and  N2_5 
ROOT
HETATM    1  N2  UNK     1      -1.162   0.697  -0.117  1.00  0.00    -0.333 N 
HETATM    2  H11 UNK     1      -1.638   1.255   0.589  1.00  0.00     0.168 HD
ENDROOT
BRANCH   1   3
HETATM    3  C11 UNK     1       0.074   1.243  -0.544  1.00  0.00     0.036 A 
HETATM    4  C13 UNK     1       1.001   0.423  -1.154  1.00  0.00     0.067 A 
HETATM    5  C14 UNK     1       2.212   0.981  -1.568  1.00  0.00     0.092 A 
HETATM    6  C12 UNK     1       2.511   2.332  -1.384  1.00  0.00     0.004 A 
HETATM    7  O1  UNK     1       3.130   0.110  -2.186  1.00  0.00    -0.275 OA
HETATM    8  C16 UNK     1       1.545   3.133  -0.761  1.00  0.00     0.017 A 
HETATM    9  C17 UNK     1       3.810   2.835  -1.851  1.00  0.00    -0.043 A 
HETATM   10  C15 UNK     1       0.326   2.588  -0.341  1.00  0.00     0.030 A 
HETATM   11  C18 UNK     1       4.664   1.983  -2.436  1.00  0.00     0.090 A 
HETATM   12  C19 UNK     1       4.162   4.283  -1.669  1.00  0.00     0.049 C 
HETATM   13  C20 UNK     1       4.363   0.555  -2.637  1.00  0.00     0.288 A 
HETATM   14  O2  UNK     1       5.169  -0.195  -3.176  1.00  0.00    -0.260 OA
ENDBRANCH   1   3
BRANCH   1  15
HETATM   15  C6  UNK     1      -1.895  -0.358  -0.594  1.00  0.00     0.179 C 
HETATM   16  S1  UNK     1      -1.792  -0.789  -2.212  1.00  0.00    -0.040 SA
BRANCH  15  17
HETATM   17  N1  UNK     1      -2.652  -1.088   0.252  1.00  0.00    -0.319 N 
HETATM   18  C1  UNK     1      -3.898  -1.789  -0.125  1.00  0.00     0.093 C 
HETATM   19  C2  UNK     1      -4.269  -2.686   1.078  1.00  0.00     0.066 C 
HETATM   20  C5  UNK     1      -5.015  -0.796  -0.447  1.00  0.00     0.033 C 
HETATM   21  C3  UNK     1      -3.323  -2.206   2.135  1.00  0.00    -0.029 A 
HETATM   22  C4  UNK     1      -2.387  -1.313   1.611  1.00  0.00     0.043 A 
HETATM   23  C7  UNK     1      -3.274  -2.591   3.465  1.00  0.00     0.009 A 
HETATM   24  C8  UNK     1      -1.377  -0.785   2.398  1.00  0.00     0.030 A 
HETATM   25  C10 UNK     1      -1.325  -1.163   3.742  1.00  0.00     0.002 A 
HETATM   26  C9  UNK     1      -2.268  -2.058   4.272  1.00  0.00     0.001 A 
ENDBRANCH  15  17
ENDBRANCH   1  15
TORSDOF 3
