REMARK  6 active torsions:
REMARK  status: ('A' for Active; 'I' for Inactive)
REMARK    1  A    between atoms: C1_7  and  O1_4 
REMARK    2  A    between atoms: C4_10  and  O1_4 
REMARK    3  A    between atoms: C3_9  and  O2_5 
REMARK    4  A    between atoms: C2_8  and  C9_15 
REMARK    5  A    between atoms: C4_10  and  C6_12 
REMARK    6  A    between atoms: C10_16  and  C11_17 
ROOT
HETATM    1  N1  UNK     1      -3.000   1.601   1.909  1.00  0.00    -0.191 NA
HETATM    2  C9  UNK     1      -1.681  -1.390   0.812  1.00  0.00     0.036 C 
HETATM    3  C10 UNK     1      -2.787  -0.953   1.471  1.00  0.00     0.055 C 
HETATM    4  C23 UNK     1      -2.896   0.462   1.709  1.00  0.00     0.100 C 
ENDROOT
BRANCH   3   5
HETATM    5  C11 UNK     1      -3.852  -1.829   1.934  1.00  0.00    -0.015 A 
HETATM    6  C16 UNK     1      -4.932  -2.115   1.100  1.00  0.00     0.014 A 
HETATM    7  C19 UNK     1      -5.954  -2.953   1.545  1.00  0.00     0.020 A 
HETATM    8  C21 UNK     1      -5.896  -3.506   2.824  1.00  0.00     0.011 A 
HETATM    9 Br2  UNK     1      -7.282  -4.641   3.428  1.00  0.00    -0.051 Br
HETATM   10  C20 UNK     1      -4.816  -3.220   3.659  1.00  0.00     0.020 A 
HETATM   11  C17 UNK     1      -3.794  -2.381   3.214  1.00  0.00     0.014 A 
ENDBRANCH   3   5
BRANCH   2  12
HETATM   12  C2  UNK     1      -0.585  -0.542   0.320  1.00  0.00    -0.015 A 
HETATM   13  C5  UNK     1      -0.697  -0.049  -0.974  1.00  0.00     0.052 A 
HETATM   14  C3  UNK     1       0.313   0.761  -1.492  1.00  0.00     0.102 A 
HETATM   15  C1  UNK     1       1.427   1.072  -0.711  1.00  0.00     0.103 A 
HETATM   16  C7  UNK     1       1.530   0.572   0.587  1.00  0.00     0.059 A 
HETATM   17  C8  UNK     1       0.520  -0.238   1.105  1.00  0.00     0.024 A 
HETATM   18 Br1  UNK     1       0.723  -0.885   2.880  1.00  0.00    -0.050 Br
BRANCH  14  19
HETATM   19  O2  UNK     1       0.201   1.243  -2.761  1.00  0.00    -0.353 OA
HETATM   20  C22 UNK     1      -0.968   0.879  -3.492  1.00  0.00     0.210 C 
ENDBRANCH  14  19
BRANCH  15  21
HETATM   21  O1  UNK     1       2.420   1.863  -1.206  1.00  0.00    -0.344 OA
BRANCH  21  22
HETATM   22  C4  UNK     1       3.726   1.295  -1.277  1.00  0.00     0.216 C 
BRANCH  22  23
HETATM   23  C6  UNK     1       4.478   1.937  -2.405  1.00  0.00    -0.012 A 
HETATM   24  C12 UNK     1       5.246   3.081  -2.209  1.00  0.00     0.042 A 
HETATM   25 Cl1  UNK     1       5.374   3.825  -0.657  1.00  0.00    -0.084 Cl
HETATM   26  C14 UNK     1       5.931   3.649  -3.282  1.00  0.00     0.024 A 
HETATM   27  C18 UNK     1       5.847   3.070  -4.549  1.00  0.00     0.002 A 
HETATM   28  C15 UNK     1       5.077   1.923  -4.741  1.00  0.00     0.001 A 
HETATM   29  C13 UNK     1       4.391   1.355  -3.667  1.00  0.00     0.011 A 
ENDBRANCH  22  23
ENDBRANCH  21  22
ENDBRANCH  15  21
ENDBRANCH   2  12
TORSDOF 6
