REMARK  2 active torsions:
REMARK  status: ('A' for Active; 'I' for Inactive)
REMARK    1  A    between atoms: C3_9  and  N1_6 
REMARK       I    between atoms: C7_13  and  N1_6 
REMARK    2  A    between atoms: C2_8  and  C7_13 
ROOT
HETATM    1 Cl1  UNK     1       5.778   3.826  -1.362  1.00  0.00    -0.084 Cl
HETATM    2  O1  UNK     1       1.157   0.456  -2.804  1.00  0.00    -0.274 OA
HETATM    3  O3  UNK     1      -0.645  -0.807  -2.191  1.00  0.00    -0.259 OA
HETATM    4  C1  UNK     1       2.524   1.509  -1.090  1.00  0.00     0.001 A 
HETATM    5  C2  UNK     1       0.613   0.171  -0.437  1.00  0.00     0.108 A 
HETATM    6  C4  UNK     1       2.254   1.258  -2.432  1.00  0.00     0.089 A 
HETATM    7  C5  UNK     1       1.654   0.931  -0.078  1.00  0.00     0.037 A 
HETATM    8  C8  UNK     1       3.620   2.309  -0.761  1.00  0.00     0.038 A 
HETATM    9  C9  UNK     1       0.307  -0.110  -1.858  1.00  0.00     0.304 A 
HETATM   10  C11 UNK     1       3.048   1.782  -3.450  1.00  0.00     0.040 A 
HETATM   11  C14 UNK     1       4.426   2.842  -1.772  1.00  0.00     0.035 A 
HETATM   12  C15 UNK     1       4.140   2.579  -3.113  1.00  0.00     0.026 A 
ENDROOT
BRANCH   5  13
HETATM   13  C7  UNK     1      -0.206  -0.368   0.657  1.00  0.00     0.262 C 
HETATM   14  O2  UNK     1       0.313  -0.608   1.746  1.00  0.00    -0.267 OA
HETATM   15  N1  UNK     1      -1.531  -0.541   0.282  1.00  0.00    -0.322 N 
HETATM   16  H2  UNK     1      -1.792  -0.267  -0.660  1.00  0.00     0.169 HD
BRANCH  15  17
HETATM   17  C3  UNK     1      -2.594  -1.038   1.075  1.00  0.00     0.043 A 
HETATM   18  C10 UNK     1      -2.326  -1.405   2.384  1.00  0.00     0.072 A 
HETATM   19  C16 UNK     1      -3.361  -1.897   3.180  1.00  0.00     0.118 A 
HETATM   20  F1  UNK     1      -3.118  -2.256   4.448  1.00  0.00    -0.206 F 
HETATM   21  C17 UNK     1      -4.649  -2.014   2.657  1.00  0.00     0.043 A 
HETATM   22  C12 UNK     1      -4.902  -1.639   1.338  1.00  0.00     0.012 A 
HETATM   23  C6  UNK     1      -3.868  -1.148   0.541  1.00  0.00    -0.035 A 
HETATM   24  C13 UNK     1      -4.168  -0.753  -0.869  1.00  0.00     0.050 C 
ENDBRANCH  15  17
ENDBRANCH   5  13
TORSDOF 2
