REMARK  3 active torsions:
REMARK  status: ('A' for Active; 'I' for Inactive)
REMARK       I    between atoms: C15_20  and  N1_4 
REMARK    1  A    between atoms: N1_4  and  N2_5 
REMARK    2  A    between atoms: C3_8  and  C6_11 
REMARK    3  A    between atoms: C15_20  and  C4_9 
ROOT
HETATM    1  O3  UNK     1       1.427  -0.258   1.281  1.00  0.00    -0.266 OA
HETATM    2  N1  UNK     1      -0.415  -0.040  -0.126  1.00  0.00    -0.242 N 
HETATM    3  C15 UNK     1       0.914   0.094   0.221  1.00  0.00     0.277 C 
HETATM    4  H16 UNK     1      -0.783   0.267  -1.018  1.00  0.00     0.192 HD
ENDROOT
BRANCH   3   5
HETATM    5  C4  UNK     1       1.715   0.726  -0.834  1.00  0.00     0.110 A 
HETATM    6  C12 UNK     1       1.379   0.582  -2.268  1.00  0.00     0.304 A 
HETATM    7  O1  UNK     1       2.214   1.229  -3.175  1.00  0.00    -0.274 OA
HETATM    8  O2  UNK     1       0.413  -0.073  -2.645  1.00  0.00    -0.259 OA
HETATM    9  C2  UNK     1       3.325   1.984  -2.752  1.00  0.00     0.089 A 
HETATM   10  C1  UNK     1       3.624   2.107  -1.399  1.00  0.00    -0.001 A 
HETATM   11  C11 UNK     1       4.103   2.596  -3.734  1.00  0.00     0.038 A 
HETATM   12  C5  UNK     1       2.770   1.442  -0.427  1.00  0.00     0.037 A 
HETATM   13  C8  UNK     1       4.735   2.864  -1.020  1.00  0.00     0.014 A 
HETATM   14  C16 UNK     1       5.524   3.484  -1.993  1.00  0.00     0.001 A 
HETATM   15  C17 UNK     1       5.209   3.350  -3.347  1.00  0.00     0.003 A 
ENDBRANCH   3   5
BRANCH   2  16
HETATM   16  N2  UNK     1      -1.260  -0.609   0.762  1.00  0.00    -0.176 NA
HETATM   17  C6  UNK     1      -2.511  -0.731   0.426  1.00  0.00     0.061 C 
HETATM   18  C18 UNK     1      -3.099  -0.248  -0.885  1.00  0.00     0.073 C 
BRANCH  17  19
HETATM   19  C3  UNK     1      -3.429  -1.392   1.393  1.00  0.00    -0.010 A 
HETATM   20  C10 UNK     1      -3.161  -1.285   2.740  1.00  0.00     0.014 A 
HETATM   21  C14 UNK     1      -4.020  -1.906   3.647  1.00  0.00     0.007 A 
HETATM   22  C7  UNK     1      -5.126  -2.619   3.184  1.00  0.00    -0.062 A 
HETATM   23  C13 UNK     1      -5.373  -2.710   1.814  1.00  0.00     0.007 A 
HETATM   24  C19 UNK     1      -6.046  -3.282   4.152  1.00  0.00     0.048 C 
HETATM   25  C9  UNK     1      -4.514  -2.089   0.907  1.00  0.00     0.014 A 
ENDBRANCH  17  19
ENDBRANCH   2  16
TORSDOF 3
