REMARK  3 active torsions:
REMARK  status: ('A' for Active; 'I' for Inactive)
REMARK    1  A    between atoms: C1_7  and  N1_6 
REMARK       I    between atoms: C7_13  and  N1_6 
REMARK    2  A    between atoms: C1_7  and  C4_10 
REMARK    3  A    between atoms: C3_9  and  C7_13 
ROOT
HETATM    1  O2  UNK     1      -1.336   0.392  -1.817  1.00  0.00    -0.267 OA
HETATM    2  N1  UNK     1      -1.228   1.237   0.353  1.00  0.00    -0.352 N 
HETATM    3  C7  UNK     1      -0.706   0.859  -0.871  1.00  0.00     0.258 C 
HETATM    4  H4  UNK     1      -0.624   1.629   1.068  1.00  0.00     0.163 HD
ENDROOT
BRANCH   3   5
HETATM    5  C3  UNK     1       0.744   1.072  -0.963  1.00  0.00     0.108 A 
HETATM    6  C6  UNK     1       1.226   1.340  -2.182  1.00  0.00     0.037 A 
HETATM    7  C2  UNK     1       2.650   1.565  -2.374  1.00  0.00    -0.001 A 
HETATM    8  C5  UNK     1       3.497   1.498  -1.272  1.00  0.00     0.089 A 
HETATM    9  C9  UNK     1       3.197   1.848  -3.628  1.00  0.00     0.014 A 
HETATM   10  C12 UNK     1       4.870   1.704  -1.388  1.00  0.00     0.038 A 
HETATM   11  O1  UNK     1       2.983   1.216   0.009  1.00  0.00    -0.274 OA
HETATM   12  C14 UNK     1       5.408   1.985  -2.643  1.00  0.00     0.003 A 
HETATM   13  C13 UNK     1       4.573   2.057  -3.760  1.00  0.00     0.001 A 
HETATM   14  C8  UNK     1       1.626   0.996   0.223  1.00  0.00     0.304 A 
HETATM   15  O3  UNK     1       1.188   0.750   1.342  1.00  0.00    -0.259 OA
ENDBRANCH   3   5
BRANCH   2  16
HETATM   16  C1  UNK     1      -2.632   1.124   0.679  1.00  0.00     0.161 C 
BRANCH  16  17
HETATM   17  C4  UNK     1      -2.960  -0.205   1.295  1.00  0.00    -0.039 A 
HETATM   18  C10 UNK     1      -3.329  -1.269   0.480  1.00  0.00     0.034 A 
HETATM   19  C15 UNK     1      -3.633  -2.504   1.053  1.00  0.00     0.056 A 
HETATM   20 Cl1  UNK     1      -4.085  -3.795  -0.005  1.00  0.00    -0.083 Cl
HETATM   21  C17 UNK     1      -3.567  -2.666   2.437  1.00  0.00     0.055 A 
HETATM   22  C16 UNK     1      -3.197  -1.593   3.248  1.00  0.00     0.026 A 
HETATM   23 Cl2  UNK     1      -3.934  -4.170   3.206  1.00  0.00    -0.083 Cl
HETATM   24  C11 UNK     1      -2.892  -0.359   2.675  1.00  0.00     0.010 A 
ENDBRANCH  16  17
ENDBRANCH   2  16
TORSDOF 3
