REMARK  5 active torsions:
REMARK  status: ('A' for Active; 'I' for Inactive)
REMARK    1  A    between atoms: C6_12  and  O2_2 
REMARK    2  A    between atoms: C5_11  and  N1_4 
REMARK    3  A    between atoms: C1_7  and  C5_11 
REMARK    4  A    between atoms: C4_10  and  C9_15 
REMARK    5  A    between atoms: C10_16  and  C11_17 
ROOT
HETATM    1  O1  UNK     1      -1.638  -0.048  -1.145  1.00  0.00    -0.320 OA
HETATM    2  O3  UNK     1       1.685   0.556   1.150  1.00  0.00    -0.286 OA
HETATM    3  C1  UNK     1      -2.876  -0.773   0.730  1.00  0.00     0.038 A 
HETATM    4  C2  UNK     1      -1.674  -0.300   0.203  1.00  0.00     0.100 A 
HETATM    5  C3  UNK     1      -0.574  -0.104   1.037  1.00  0.00     0.050 A 
HETATM    6  C4  UNK     1      -1.873  -0.851   2.929  1.00  0.00    -0.024 A 
HETATM    7  C6  UNK     1      -2.974  -1.047   2.095  1.00  0.00     0.082 A 
HETATM    8  C7  UNK     1      -0.670  -0.379   2.404  1.00  0.00     0.028 A 
HETATM    9  C8  UNK     1       0.688   0.393   0.458  1.00  0.00     0.200 A 
HETATM   10  C10 UNK     1       0.674   0.669  -1.004  1.00  0.00     0.083 A 
HETATM   11  C12 UNK     1      -0.463   0.431  -1.673  1.00  0.00     0.162 A 
ENDROOT
BRANCH  10  12
HETATM   12  C11 UNK     1       1.826   1.177  -1.677  1.00  0.00     0.145 A 
HETATM   13  N2  UNK     1       2.683   1.963  -0.955  1.00  0.00    -0.338 N 
HETATM   14  C14 UNK     1       3.710   2.339  -1.783  1.00  0.00     0.062 A 
HETATM   15  H10 UNK     1       2.586   2.235   0.015  1.00  0.00     0.167 HD
HETATM   16  C15 UNK     1       3.408   1.739  -3.003  1.00  0.00     0.086 A 
HETATM   17  C18 UNK     1       4.842   3.128  -1.577  1.00  0.00     0.032 A 
HETATM   18  C19 UNK     1       4.275   1.927  -4.092  1.00  0.00     0.034 A 
HETATM   19  N3  UNK     1       2.236   1.023  -2.919  1.00  0.00    -0.228 NA
HETATM   20  C21 UNK     1       5.418   2.715  -3.908  1.00  0.00     0.002 A 
HETATM   21  C20 UNK     1       5.694   3.305  -2.672  1.00  0.00     0.002 A 
ENDBRANCH  10  12
BRANCH   3  22
HETATM   22  C5  UNK     1      -4.061  -0.985  -0.158  1.00  0.00     0.315 C 
BRANCH  22  23
HETATM   23  N1  UNK     1      -4.728  -2.260   0.104  1.00  0.00     0.084 N 
HETATM   24  C16 UNK     1      -3.806  -3.374  -0.116  1.00  0.00     0.309 C 
HETATM   25  C17 UNK     1      -5.912  -2.401  -0.743  1.00  0.00     0.309 C 
ENDBRANCH  22  23
ENDBRANCH   3  22
BRANCH   6  26
HETATM   26  C9  UNK     1      -1.964  -1.140   4.392  1.00  0.00     0.037 C 
HETATM   27  C13 UNK     1      -1.582  -2.580   4.722  1.00  0.00     0.010 C 
ENDBRANCH   6  26
BRANCH   7  28
HETATM   28  O2  UNK     1      -4.148  -1.509   2.615  1.00  0.00    -0.359 OA
HETATM   29  H17 UNK     1      -4.867  -1.442   1.968  1.00  0.00     0.217 HD
ENDBRANCH   7  28
TORSDOF 5
