REMARK  6 active torsions:
REMARK  status: ('A' for Active; 'I' for Inactive)
REMARK    1  A    between atoms: C12_19  and  S1_1 
REMARK    2  A    between atoms: C13_20  and  S1_1 
REMARK    3  A    between atoms: C11_18  and  O2_3 
REMARK    4  A    between atoms: C6_13  and  O2_3 
REMARK    5  A    between atoms: C13_20  and  N1_6 
REMARK    6  A    between atoms: C11_18  and  C12_19 
ROOT
HETATM    1  O1  UNK     1      -3.008  -1.477  -0.369  1.00  0.00    -0.275 OA
HETATM    2  O3  UNK     1      -5.206  -2.105  -0.297  1.00  0.00    -0.260 OA
HETATM    3  C1  UNK     1      -1.851  -0.938   1.714  1.00  0.00     0.004 A 
HETATM    4  C2  UNK     1      -1.850  -1.074   0.325  1.00  0.00     0.092 A 
HETATM    5  C3  UNK     1      -3.091  -1.224   2.447  1.00  0.00    -0.043 A 
HETATM    6  C4  UNK     1      -0.659  -0.533   2.328  1.00  0.00     0.017 A 
HETATM    7  C5  UNK     1      -0.715  -0.822  -0.448  1.00  0.00     0.075 A 
HETATM    8  C6  UNK     1       0.459  -0.421   0.181  1.00  0.00     0.082 A 
HETATM    9  C7  UNK     1       0.487  -0.277   1.567  1.00  0.00     0.038 A 
HETATM   10  C8  UNK     1      -4.178  -1.606   1.762  1.00  0.00     0.090 A 
HETATM   11  C9  UNK     1      -3.125  -1.087   3.941  1.00  0.00     0.049 C 
HETATM   12  C10 UNK     1      -4.192  -1.754   0.296  1.00  0.00     0.288 A 
ENDROOT
BRANCH   8  13
HETATM   13  O2  UNK     1       1.576  -0.170  -0.554  1.00  0.00    -0.278 OA
BRANCH  13  14
HETATM   14  C11 UNK     1       1.701   1.166  -0.990  1.00  0.00     0.273 C 
HETATM   15  O4  UNK     1       0.897   2.056  -0.748  1.00  0.00    -0.264 OA
BRANCH  14  16
HETATM   16  C12 UNK     1       2.975   1.301  -1.787  1.00  0.00     0.193 C 
BRANCH  16  17
HETATM   17  S1  UNK     1       3.206   2.995  -2.375  1.00  0.00    -0.083 SA
BRANCH  17  18
HETATM   18  C13 UNK     1       4.729   2.870  -3.252  1.00  0.00     0.153 C 
HETATM   19  N2  UNK     1       5.353   1.737  -3.323  1.00  0.00    -0.278 NA
HETATM   20  H12 UNK     1       6.212   1.866  -3.869  1.00  0.00     0.189 HD
BRANCH  18  21
HETATM   21  N1  UNK     1       5.157   4.039  -3.816  1.00  0.00    -0.379 N 
HETATM   22  H10 UNK     1       6.022   4.086  -4.344  1.00  0.00     0.158 HD
HETATM   23  H11 UNK     1       4.622   4.895  -3.723  1.00  0.00     0.158 HD
ENDBRANCH  18  21
ENDBRANCH  17  18
ENDBRANCH  16  17
ENDBRANCH  14  16
ENDBRANCH  13  14
ENDBRANCH   8  13
TORSDOF 6
