REMARK  1 active torsions:
REMARK  status: ('A' for Active; 'I' for Inactive)
REMARK    1  A    between atoms: C1_7  and  C5_11 
ROOT
HETATM    1  O1  UNK     1      -0.570   0.533  -1.847  1.00  0.00    -0.289 OA
HETATM    2  O2  UNK     1       3.268   0.648  -0.181  1.00  0.00    -0.274 OA
HETATM    3  O3  UNK     1       2.590  -0.751   1.488  1.00  0.00    -0.259 OA
HETATM    4  O4  UNK     1      -2.363  -2.673   1.180  1.00  0.00    -0.267 OA
HETATM    5  N1  UNK     1      -3.563  -1.981  -0.658  1.00  0.00    -0.311 N 
HETATM    6  N2  UNK     1      -2.690  -0.401  -2.176  1.00  0.00    -0.210 NA
HETATM    7  C1  UNK     1      -0.151  -0.886   0.621  1.00  0.00     0.103 C 
HETATM    8  C2  UNK     1       0.939  -0.109  -0.097  1.00  0.00     0.066 A 
HETATM    9  C3  UNK     1      -1.395  -1.019  -0.237  1.00  0.00     0.076 A 
HETATM   10  C4  UNK     1       0.675   0.544  -1.240  1.00  0.00     0.104 A 
HETATM   11  C6  UNK     1      -1.565  -0.328  -1.385  1.00  0.00     0.184 A 
HETATM   12  C7  UNK     1       1.707   1.324  -1.920  1.00  0.00     0.033 A 
HETATM   13  C8  UNK     1       2.309  -0.113   0.479  1.00  0.00     0.298 A 
HETATM   14  C9  UNK     1      -2.467  -1.970   0.180  1.00  0.00     0.258 A 
HETATM   15  C10 UNK     1       2.981   1.358  -1.362  1.00  0.00     0.092 A 
HETATM   16  C13 UNK     1      -3.630  -1.204  -1.791  1.00  0.00     0.105 A 
HETATM   17  C14 UNK     1       1.483   2.044  -3.099  1.00  0.00     0.017 A 
HETATM   18  C15 UNK     1       4.025   2.081  -1.939  1.00  0.00     0.038 A 
HETATM   19  C18 UNK     1       2.519   2.775  -3.691  1.00  0.00     0.001 A 
HETATM   20  C20 UNK     1       3.788   2.793  -3.112  1.00  0.00     0.003 A 
HETATM   21  C21 UNK     1      -4.888  -1.338  -2.599  1.00  0.00     0.091 C 
HETATM   22  H4  UNK     1      -4.335  -2.599  -0.424  1.00  0.00     0.170 HD
ENDROOT
BRANCH   7  23
HETATM   23  C5  UNK     1      -0.489  -0.228   1.926  1.00  0.00    -0.045 A 
HETATM   24  C11 UNK     1      -0.294  -0.919   3.117  1.00  0.00     0.008 A 
HETATM   25  C16 UNK     1      -0.608  -0.307   4.330  1.00  0.00     0.001 A 
HETATM   26  C19 UNK     1      -1.114   0.993   4.345  1.00  0.00     0.000 A 
HETATM   27  C17 UNK     1      -1.306   1.680   3.147  1.00  0.00     0.001 A 
HETATM   28  C12 UNK     1      -0.993   1.068   1.934  1.00  0.00     0.008 A 
ENDBRANCH   7  23
TORSDOF 1
