REMARK  4 active torsions:
REMARK  status: ('A' for Active; 'I' for Inactive)
REMARK    1  A    between atoms: C14_16  and  O1_1 
REMARK    2  A    between atoms: C1_3  and  C2_4 
REMARK    3  A    between atoms: C14_16  and  C2_4 
REMARK    4  A    between atoms: C3_5  and  C4_6 
ROOT
HETATM    1  C2  UNK     1       0.232   0.435  -1.558  1.00  0.00     0.048 C 
HETATM    2  C4  UNK     1      -1.000  -0.132  -1.502  1.00  0.00     0.030 C 
ENDROOT
BRANCH   1   3
HETATM    3  C1  UNK     1       1.038   0.666  -0.345  1.00  0.00    -0.019 A 
HETATM    4  C5  UNK     1       1.906  -0.322   0.089  1.00  0.00     0.012 A 
HETATM    5  C9  UNK     1       2.669  -0.103   1.237  1.00  0.00     0.001 A 
HETATM    6  C11 UNK     1       2.553   1.100   1.932  1.00  0.00     0.000 A 
HETATM    7  C10 UNK     1       1.674   2.085   1.481  1.00  0.00     0.001 A 
HETATM    8  C6  UNK     1       0.911   1.867   0.334  1.00  0.00     0.012 A 
ENDBRANCH   1   3
BRANCH   1   9
HETATM    9  C14 UNK     1       0.730   0.821  -2.910  1.00  0.00     0.177 C 
HETATM   10  O2  UNK     1       0.129   0.665  -3.962  1.00  0.00    -0.646 OA
BRANCH   9  11
HETATM   11  O1  UNK     1       1.959   1.385  -2.825  1.00  0.00    -0.773 OA
HETATM   12  H12 UNK     1       2.303   1.649  -3.704  1.00  0.00     0.167 HD
ENDBRANCH   9  11
ENDBRANCH   1   9
BRANCH   2  13
HETATM   13  C3  UNK     1      -1.675  -0.591  -0.298  1.00  0.00    -0.035 A 
HETATM   14  C7  UNK     1      -1.515  -1.909   0.132  1.00  0.00     0.011 A 
HETATM   15  C12 UNK     1      -2.163  -2.350   1.286  1.00  0.00     0.001 A 
HETATM   16  C15 UNK     1      -2.970  -1.473   2.011  1.00  0.00     0.000 A 
HETATM   17  C13 UNK     1      -3.130  -0.156   1.581  1.00  0.00     0.001 A 
HETATM   18  C8  UNK     1      -2.483   0.285   0.427  1.00  0.00     0.011 A 
ENDBRANCH   2  13
TORSDOF 4
