REMARK  4 active torsions:
REMARK  status: ('A' for Active; 'I' for Inactive)
REMARK    1  A    between atoms: C5_10  and  N1_3 
REMARK    2  A    between atoms: C6_11  and  N2_4 
REMARK    3  A    between atoms: C5_10  and  C7_12 
REMARK    4  A    between atoms: C6_11  and  C8_13 
ROOT
HETATM    1  N3  UNK     1       7.179   2.720  -5.226  1.00  0.00    -0.191 NA
HETATM    2  C8  UNK     1       3.044   2.866  -1.788  1.00  0.00    -0.030 A 
HETATM    3  C12 UNK     1       4.177   2.111  -1.484  1.00  0.00     0.010 A 
HETATM    4  C13 UNK     1       2.983   3.582  -2.983  1.00  0.00     0.010 A 
HETATM    5  C19 UNK     1       5.249   2.073  -2.376  1.00  0.00     0.023 A 
HETATM    6  C20 UNK     1       4.055   3.544  -3.875  1.00  0.00     0.023 A 
HETATM    7  C21 UNK     1       5.188   2.790  -3.571  1.00  0.00     0.044 A 
HETATM    8  C23 UNK     1       6.287   2.751  -4.484  1.00  0.00     0.099 C 
ENDROOT
BRANCH   2   9
HETATM    9  C6  UNK     1       1.892   2.906  -0.830  1.00  0.00     0.311 C 
BRANCH   9  10
HETATM   10  N2  UNK     1       1.602   1.554  -0.356  1.00  0.00     0.096 N 
HETATM   11  C3  UNK     1       0.837   1.594   0.896  1.00  0.00     0.303 C 
HETATM   12  C1  UNK     1       0.528   0.177   1.392  1.00  0.00     0.303 C 
HETATM   13  N1  UNK     1      -0.197  -0.588   0.371  1.00  0.00     0.096 N 
HETATM   14  C2  UNK     1       0.570  -0.629  -0.880  1.00  0.00     0.303 C 
HETATM   15  C4  UNK     1       0.877   0.788  -1.377  1.00  0.00     0.303 C 
BRANCH  13  16
HETATM   16  C5  UNK     1      -0.489  -1.940   0.845  1.00  0.00     0.312 C 
BRANCH  16  17
HETATM   17  C7  UNK     1      -1.681  -1.825   1.726  1.00  0.00    -0.011 A 
HETATM   18  C10 UNK     1      -1.552  -1.602   3.041  1.00  0.00     0.092 A 
HETATM   19  C15 UNK     1      -2.702  -1.481   3.953  1.00  0.00     0.288 A 
HETATM   20  O1  UNK     1      -3.961  -1.610   3.387  1.00  0.00    -0.275 OA
HETATM   21  O2  UNK     1      -2.545  -1.277   5.151  1.00  0.00    -0.260 OA
HETATM   22  C11 UNK     1      -4.129  -1.844   2.008  1.00  0.00     0.090 A 
HETATM   23  C9  UNK     1      -3.029  -1.957   1.156  1.00  0.00     0.006 A 
HETATM   24  C16 UNK     1      -5.443  -1.956   1.549  1.00  0.00     0.045 A 
HETATM   25  C14 UNK     1      -3.281  -2.191  -0.203  1.00  0.00     0.015 A 
HETATM   26  C18 UNK     1      -4.592  -2.306  -0.678  1.00  0.00     0.007 A 
HETATM   27  C17 UNK     1      -5.671  -2.189   0.197  1.00  0.00    -0.059 A 
HETATM   28  C22 UNK     1      -7.065  -2.313  -0.317  1.00  0.00     0.048 C 
ENDBRANCH  16  17
ENDBRANCH  13  16
ENDBRANCH   9  10
ENDBRANCH   2   9
TORSDOF 4
