REMARK  7 active torsions:
REMARK  status: ('A' for Active; 'I' for Inactive)
REMARK    1  A    between atoms: C3_13  and  O1_2 
REMARK    2  A    between atoms: C6_16  and  O1_2 
REMARK    3  A    between atoms: C21_31  and  N1_8 
REMARK    4  A    between atoms: C5_15  and  N1_8 
REMARK       I    between atoms: C17_27  and  N2_9 
REMARK    5  A    between atoms: N2_9  and  N3_10 
REMARK    6  A    between atoms: C21_31  and  N3_10 
REMARK    7  A    between atoms: C17_27  and  C3_13 
ROOT
HETATM    1  N3  UNK     1      -0.087   0.611  -4.082  1.00  0.00    -0.273 N 
HETATM    2  H19 UNK     1      -0.032   0.790  -5.079  1.00  0.00     0.189 HD
ENDROOT
BRANCH   1   3
HETATM    3  C21 UNK     1      -0.981  -0.318  -3.558  1.00  0.00     0.191 C 
HETATM    4  S1  UNK     1      -1.943  -1.144  -4.654  1.00  0.00    -0.039 SA
BRANCH   3   5
HETATM    5  N1  UNK     1      -0.935  -0.435  -2.157  1.00  0.00    -0.332 N 
HETATM    6  H17 UNK     1      -0.041  -0.145  -1.767  1.00  0.00     0.168 HD
BRANCH   5   7
HETATM    7  C5  UNK     1      -1.865  -0.776  -1.174  1.00  0.00     0.037 A 
HETATM    8  C12 UNK     1      -3.179  -1.074  -1.530  1.00  0.00     0.030 A 
HETATM    9  C10 UNK     1      -4.117  -1.416  -0.549  1.00  0.00     0.017 A 
HETATM   10  C1  UNK     1      -3.754  -1.464   0.803  1.00  0.00     0.004 A 
HETATM   11  C2  UNK     1      -2.431  -1.161   1.130  1.00  0.00     0.092 A 
HETATM   12  C4  UNK     1      -4.683  -1.814   1.886  1.00  0.00    -0.043 A 
HETATM   13  O2  UNK     1      -1.986  -1.186   2.467  1.00  0.00    -0.275 OA
HETATM   14  C9  UNK     1      -1.484  -0.818   0.163  1.00  0.00     0.067 A 
HETATM   15  C20 UNK     1      -2.840  -1.512   3.509  1.00  0.00     0.288 A 
HETATM   16  C15 UNK     1      -4.232  -1.830   3.149  1.00  0.00     0.090 A 
HETATM   17  O6  UNK     1      -2.464  -1.537   4.675  1.00  0.00    -0.260 OA
HETATM   18  C18 UNK     1      -6.112  -2.146   1.568  1.00  0.00     0.049 C 
ENDBRANCH   5   7
ENDBRANCH   3   5
ENDBRANCH   1   3
BRANCH   1  19
HETATM   19  N2  UNK     1       0.767   1.328  -3.278  1.00  0.00    -0.266 N 
HETATM   20  C17 UNK     1       1.995   1.718  -3.779  1.00  0.00     0.265 C 
HETATM   21  O5  UNK     1       2.407   1.475  -4.912  1.00  0.00    -0.269 OA
HETATM   22  H18 UNK     1       0.416   1.626  -2.374  1.00  0.00     0.190 HD
BRANCH  20  23
HETATM   23  C3  UNK     1       2.816   2.490  -2.757  1.00  0.00     0.218 C 
HETATM   24  C16 UNK     1       3.777   3.450  -3.441  1.00  0.00     0.050 C 
BRANCH  23  25
HETATM   25  O1  UNK     1       3.575   1.577  -1.983  1.00  0.00    -0.337 OA
BRANCH  25  26
HETATM   26  C6  UNK     1       3.338   1.560  -0.632  1.00  0.00     0.072 A 
HETATM   27  C11 UNK     1       2.899   0.385  -0.028  1.00  0.00     0.076 A 
HETATM   28  C7  UNK     1       2.675   0.418   1.333  1.00  0.00     0.107 A 
HETATM   29  O3  UNK     1       2.246  -0.623   2.097  1.00  0.00    -0.323 OA
HETATM   30  C8  UNK     1       2.876   1.561   2.072  1.00  0.00     0.105 A 
HETATM   31  C19 UNK     1       2.199  -0.007   3.400  1.00  0.00     0.352 A 
HETATM   32  O4  UNK     1       2.597   1.379   3.392  1.00  0.00    -0.323 OA
HETATM   33  C14 UNK     1       3.311   2.735   1.491  1.00  0.00     0.042 A 
HETATM   34  C13 UNK     1       3.545   2.728   0.114  1.00  0.00     0.040 A 
ENDBRANCH  25  26
ENDBRANCH  23  25
ENDBRANCH  20  23
ENDBRANCH   1  19
TORSDOF 7
