REMARK  5 active torsions:
REMARK  status: ('A' for Active; 'I' for Inactive)
REMARK    1  A    between atoms: C5_12  and  N1_5 
REMARK    2  A    between atoms: C6_13  and  N2_6 
REMARK    3  A    between atoms: C6_13  and  N3_7 
REMARK    4  A    between atoms: C9_16  and  N3_7 
REMARK    5  A    between atoms: C12_19  and  C19_26 
ROOT
HETATM    1  S1  UNK     1      -3.172  -2.102  -3.883  1.00  0.00    -0.041 SA
HETATM    2  C6  UNK     1      -2.778  -1.301  -2.462  1.00  0.00     0.174 C 
ENDROOT
BRANCH   2   3
HETATM    3  N2  UNK     1      -1.594  -0.648  -2.359  1.00  0.00    -0.355 N 
HETATM    4  C3  UNK     1      -0.404  -1.133  -3.043  1.00  0.00     0.145 C 
HETATM    5  C1  UNK     1       0.879  -0.715  -2.328  1.00  0.00     0.143 C 
HETATM    6  N1  UNK     1       0.920   0.740  -2.142  1.00  0.00    -0.378 N 
HETATM    7  C2  UNK     1      -0.351   1.470  -2.069  1.00  0.00     0.143 C 
HETATM    8  C4  UNK     1      -1.468   0.562  -1.561  1.00  0.00     0.145 C 
BRANCH   6   9
HETATM    9  C5  UNK     1       2.136   1.412  -2.040  1.00  0.00     0.030 A 
HETATM   10  C7  UNK     1       3.281   0.785  -1.493  1.00  0.00     0.030 A 
HETATM   11  C10 UNK     1       4.498   1.458  -1.390  1.00  0.00     0.017 A 
HETATM   12  C12 UNK     1       4.606   2.776  -1.832  1.00  0.00     0.009 A 
HETATM   13  C11 UNK     1       3.496   3.422  -2.377  1.00  0.00     0.017 A 
HETATM   14  C8  UNK     1       2.278   2.750  -2.479  1.00  0.00     0.030 A 
BRANCH  12  15
HETATM   15  C19 UNK     1       5.876   3.478  -1.726  1.00  0.00     0.155 C 
HETATM   16  O2  UNK     1       6.014   4.650  -2.108  1.00  0.00    -0.293 OA
HETATM   17  C23 UNK     1       7.087   2.778  -1.135  1.00  0.00     0.096 C 
ENDBRANCH  12  15
ENDBRANCH   6   9
ENDBRANCH   2   3
BRANCH   2  18
HETATM   18  N3  UNK     1      -3.676  -1.248  -1.409  1.00  0.00    -0.333 N 
HETATM   19  H11 UNK     1      -4.652  -1.311  -1.690  1.00  0.00     0.168 HD
BRANCH  18  20
HETATM   20  C9  UNK     1      -3.488  -1.142  -0.031  1.00  0.00     0.036 A 
HETATM   21  C13 UNK     1      -2.334  -1.650   0.557  1.00  0.00     0.067 A 
HETATM   22  C16 UNK     1      -2.166  -1.533   1.938  1.00  0.00     0.092 A 
HETATM   23  C14 UNK     1      -3.118  -0.922   2.756  1.00  0.00     0.004 A 
HETATM   24  O1  UNK     1      -0.977  -2.065   2.476  1.00  0.00    -0.275 OA
HETATM   25  C17 UNK     1      -4.273  -0.417   2.144  1.00  0.00     0.017 A 
HETATM   26  C18 UNK     1      -2.858  -0.843   4.200  1.00  0.00    -0.043 A 
HETATM   27  C15 UNK     1      -4.456  -0.527   0.761  1.00  0.00     0.030 A 
HETATM   28  C20 UNK     1      -1.719  -1.358   4.684  1.00  0.00     0.090 A 
HETATM   29  C21 UNK     1      -3.862  -0.192   5.106  1.00  0.00     0.049 C 
HETATM   30  C22 UNK     1      -0.705  -2.005   3.834  1.00  0.00     0.288 A 
HETATM   31  O3  UNK     1       0.326  -2.465   4.313  1.00  0.00    -0.260 OA
ENDBRANCH  18  20
ENDBRANCH   2  18
TORSDOF 5
