REMARK  1 active torsions:
REMARK  status: ('A' for Active; 'I' for Inactive)
REMARK    1  A    between atoms: C5_9  and  N1_4 
ROOT
HETATM    1  O1  UNK     1      -0.249   0.270  -2.118  1.00  0.00    -0.274 OA
HETATM    2  O2  UNK     1       0.449   0.141   1.924  1.00  0.00    -0.286 OA
HETATM    3  O3  UNK     1      -2.296  -0.711  -1.884  1.00  0.00    -0.259 OA
HETATM    4  C1  UNK     1      -1.010  -0.333   0.094  1.00  0.00     0.112 A 
HETATM    5  C2  UNK     1       1.219   0.741  -0.211  1.00  0.00     0.049 A 
HETATM    6  C3  UNK     1       0.233   0.177   0.720  1.00  0.00     0.203 A 
HETATM    7  C4  UNK     1       0.950   0.768  -1.573  1.00  0.00     0.093 A 
HETATM    8  C5  UNK     1      -1.951  -0.861   0.890  1.00  0.00     0.021 C 
HETATM    9  C6  UNK     1      -1.271  -0.291  -1.361  1.00  0.00     0.304 A 
HETATM   10  C7  UNK     1       2.431   1.252   0.263  1.00  0.00     0.018 A 
HETATM   11  C8  UNK     1       1.871   1.299  -2.477  1.00  0.00     0.038 A 
HETATM   12  C9  UNK     1      -3.232  -1.394   0.312  1.00  0.00     0.069 C 
HETATM   13  C10 UNK     1       3.358   1.785  -0.636  1.00  0.00     0.001 A 
HETATM   14  C11 UNK     1       3.079   1.808  -2.003  1.00  0.00     0.003 A 
ENDROOT
BRANCH   8  15
HETATM   15  N1  UNK     1      -1.825  -0.956   2.249  1.00  0.00    -0.397 N 
HETATM   16  C12 UNK     1      -2.823  -1.553   3.094  1.00  0.00     0.146 C 
HETATM   17  H6  UNK     1      -0.985  -0.607   2.693  1.00  0.00     0.158 HD
ENDBRANCH   8  15
TORSDOF 1
