REMARK  3 active torsions:
REMARK  status: ('A' for Active; 'I' for Inactive)
REMARK    1  A    between atoms: C16_21  and  O2_3 
REMARK    2  A    between atoms: C9_14  and  O2_3 
REMARK    3  A    between atoms: C2_7  and  C5_10 
ROOT
HETATM    1  O1  UNK     1       1.231   0.314   1.061  1.00  0.00    -0.274 OA
HETATM    2  O3  UNK     1      -0.128  -0.279   2.794  1.00  0.00    -0.259 OA
HETATM    3  C1  UNK     1       0.419   0.167  -1.221  1.00  0.00    -0.001 A 
HETATM    4  C2  UNK     1      -1.040  -0.504   0.608  1.00  0.00     0.051 A 
HETATM    5  C3  UNK     1       1.429   0.483  -0.321  1.00  0.00     0.092 A 
HETATM    6  C4  UNK     1      -0.842  -0.345  -0.710  1.00  0.00     0.032 A 
HETATM    7  C6  UNK     1       0.650   0.350  -2.587  1.00  0.00     0.017 A 
HETATM    8  C7  UNK     1       2.662   0.976  -0.745  1.00  0.00     0.075 A 
HETATM    9  C8  UNK     1       0.031  -0.161   1.584  1.00  0.00     0.299 A 
HETATM   10  C9  UNK     1       2.885   1.155  -2.108  1.00  0.00     0.081 A 
HETATM   11  C10 UNK     1       1.882   0.843  -3.028  1.00  0.00     0.038 A 
ENDROOT
BRANCH   4  12
HETATM   12  C5  UNK     1      -2.331  -1.042   1.077  1.00  0.00    -0.020 A 
HETATM   13  C11 UNK     1      -2.498  -2.418   1.231  1.00  0.00     0.014 A 
HETATM   14  C13 UNK     1      -3.719  -2.927   1.675  1.00  0.00     0.024 A 
HETATM   15  C15 UNK     1      -4.772  -2.059   1.965  1.00  0.00     0.034 A 
HETATM   16  C14 UNK     1      -4.604  -0.683   1.811  1.00  0.00     0.024 A 
HETATM   17 Cl1  UNK     1      -6.278  -2.687   2.511  1.00  0.00    -0.084 Cl
HETATM   18  C12 UNK     1      -3.383  -0.174   1.367  1.00  0.00     0.014 A 
ENDBRANCH   4  12
BRANCH  10  19
HETATM   19  O2  UNK     1       4.082   1.634  -2.545  1.00  0.00    -0.279 OA
BRANCH  19  20
HETATM   20  C16 UNK     1       4.138   3.034  -2.645  1.00  0.00     0.260 C 
HETATM   21  O4  UNK     1       3.226   3.807  -2.380  1.00  0.00    -0.265 OA
HETATM   22  C17 UNK     1       5.491   3.461  -3.131  1.00  0.00     0.126 C 
ENDBRANCH  19  20
ENDBRANCH  10  19
TORSDOF 3
