REMARK  1 active torsions:
REMARK  status: ('A' for Active; 'I' for Inactive)
REMARK    1  A    between atoms: C9_16  and  N2_6 
ROOT
HETATM    1  O1  UNK     1      -2.093  -0.210  -1.324  1.00  0.00    -0.291 OA
HETATM    2  O2  UNK     1      -0.637  -0.986   2.512  1.00  0.00    -0.274 OA
HETATM    3  O3  UNK     1       1.666  -2.001  -1.414  1.00  0.00    -0.271 OA
HETATM    4  O4  UNK     1       1.465  -0.426   1.868  1.00  0.00    -0.259 OA
HETATM    5  N1  UNK     1       3.053  -0.187  -0.865  1.00  0.00    -0.325 N 
HETATM    6  N3  UNK     1       1.421   1.187  -4.289  1.00  0.00    -0.191 NA
HETATM    7  C1  UNK     1       0.709   0.232  -0.891  1.00  0.00     0.147 A 
HETATM    8  C2  UNK     1       1.509   1.454  -0.489  1.00  0.00    -0.003 A 
HETATM    9  C3  UNK     1      -0.235  -0.262   0.194  1.00  0.00     0.080 A 
HETATM   10  C4  UNK     1       1.830  -0.832  -1.099  1.00  0.00     0.246 A 
HETATM   11  C5  UNK     1       0.020   0.421  -2.243  1.00  0.00     0.100 A 
HETATM   12  C6  UNK     1       2.870   1.146  -0.506  1.00  0.00     0.043 A 
HETATM   13  C7  UNK     1      -1.538  -0.444  -0.080  1.00  0.00     0.105 A 
HETATM   14  C8  UNK     1       1.082   2.726  -0.147  1.00  0.00     0.011 A 
HETATM   15  C9  UNK     1      -1.305   0.201  -2.392  1.00  0.00     0.160 A 
HETATM   16  C10 UNK     1       0.284  -0.553   1.564  1.00  0.00     0.299 A 
HETATM   17  C11 UNK     1      -2.480  -0.909   0.937  1.00  0.00     0.033 A 
HETATM   18  C12 UNK     1       3.845   2.070  -0.191  1.00  0.00     0.030 A 
HETATM   19  C13 UNK     1      -1.998  -1.166   2.214  1.00  0.00     0.092 A 
HETATM   20  C14 UNK     1       2.052   3.680   0.177  1.00  0.00     0.001 A 
HETATM   21  C15 UNK     1       3.421   3.354   0.155  1.00  0.00     0.002 A 
HETATM   22  C16 UNK     1       0.795   0.845  -3.375  1.00  0.00     0.101 C 
HETATM   23  C17 UNK     1      -3.846  -1.108   0.697  1.00  0.00     0.017 A 
HETATM   24  C18 UNK     1      -2.824  -1.610   3.246  1.00  0.00     0.038 A 
HETATM   25  C19 UNK     1      -4.689  -1.553   1.721  1.00  0.00     0.001 A 
HETATM   26  C20 UNK     1      -4.179  -1.803   2.994  1.00  0.00     0.003 A 
HETATM   27  H1  UNK     1       3.963  -0.628  -0.932  1.00  0.00     0.169 HD
ENDROOT
BRANCH  15  28
HETATM   28  N2  UNK     1      -2.004   0.349  -3.559  1.00  0.00    -0.379 N 
HETATM   29  H7  UNK     1      -2.997   0.158  -3.560  1.00  0.00     0.158 HD
HETATM   30  H8  UNK     1      -1.542   0.646  -4.410  1.00  0.00     0.158 HD
ENDBRANCH  15  28
TORSDOF 1
