REMARK  4 active torsions:
REMARK  status: ('A' for Active; 'I' for Inactive)
REMARK    1  A    between atoms: C8_14  and  O2_2 
REMARK    2  A    between atoms: C9_15  and  O3_3 
REMARK    3  A    between atoms: C1_7  and  N1_6 
REMARK       I    between atoms: C7_13  and  N1_6 
REMARK    4  A    between atoms: C3_9  and  C7_13 
ROOT
HETATM    1  O4  UNK     1       0.720   2.456  -0.005  1.00  0.00    -0.267 OA
HETATM    2  N1  UNK     1       0.429   0.176  -0.497  1.00  0.00    -0.323 N 
HETATM    3  C7  UNK     1       1.060   1.424  -0.574  1.00  0.00     0.261 C 
HETATM    4  H2  UNK     1       0.845  -0.580  -1.037  1.00  0.00     0.169 HD
ENDROOT
BRANCH   2   5
HETATM    5  C1  UNK     1      -0.710  -0.168   0.233  1.00  0.00     0.035 A 
HETATM    6  C4  UNK     1      -1.198  -1.477   0.186  1.00  0.00     0.043 A 
HETATM    7  C2  UNK     1      -2.338  -1.824   0.915  1.00  0.00     0.000 A 
HETATM    8  C11 UNK     1      -2.887  -3.169   0.903  1.00  0.00     0.020 A 
HETATM    9  C5  UNK     1      -2.969  -0.847   1.681  1.00  0.00     0.089 A 
HETATM   10  C15 UNK     1      -3.979  -3.455   1.616  1.00  0.00     0.083 A 
HETATM   11  C16 UNK     1      -4.666  -2.438   2.434  1.00  0.00     0.288 A 
HETATM   12  O1  UNK     1      -4.122  -1.158   2.431  1.00  0.00    -0.275 OA
HETATM   13  O5  UNK     1      -5.668  -2.716   3.084  1.00  0.00    -0.260 OA
HETATM   14  C10 UNK     1      -2.494   0.462   1.737  1.00  0.00     0.040 A 
HETATM   15  C6  UNK     1      -1.357   0.799   1.007  1.00  0.00     0.032 A 
ENDBRANCH   2   5
BRANCH   3  16
HETATM   16  C3  UNK     1       2.248   1.483  -1.465  1.00  0.00     0.098 A 
HETATM   17  C8  UNK     1       2.072   1.813  -2.795  1.00  0.00     0.086 A 
HETATM   18  C12 UNK     1       3.187   1.869  -3.631  1.00  0.00     0.038 A 
HETATM   19  C14 UNK     1       4.456   1.595  -3.121  1.00  0.00     0.005 A 
HETATM   20  C13 UNK     1       4.609   1.265  -1.774  1.00  0.00     0.038 A 
HETATM   21  C9  UNK     1       3.494   1.208  -0.938  1.00  0.00     0.086 A 
BRANCH  17  22
HETATM   22  O2  UNK     1       0.841   2.085  -3.314  1.00  0.00    -0.355 OA
HETATM   23  C17 UNK     1       0.104   0.986  -3.844  1.00  0.00     0.210 C 
ENDBRANCH  17  22
BRANCH  21  24
HETATM   24  O3  UNK     1       3.667   0.884   0.374  1.00  0.00    -0.355 OA
HETATM   25  C18 UNK     1       3.901   1.959   1.282  1.00  0.00     0.210 C 
ENDBRANCH  21  24
ENDBRANCH   3  16
TORSDOF 4
