REMARK  2 active torsions:
REMARK  status: ('A' for Active; 'I' for Inactive)
REMARK       I    between atoms: C6_11  and  N1_5 
REMARK    1  A    between atoms: C9_14  and  N1_5 
REMARK    2  A    between atoms: C2_7  and  C6_11 
ROOT
HETATM    1  O1  UNK     1       2.662   0.864   0.123  1.00  0.00    -0.274 OA
HETATM    2  O3  UNK     1       1.231  -0.383   1.396  1.00  0.00    -0.259 OA
HETATM    3  C1  UNK     1       2.008   1.520  -2.124  1.00  0.00    -0.001 A 
HETATM    4  C2  UNK     1       0.488   0.199  -0.777  1.00  0.00     0.108 A 
HETATM    5  C3  UNK     1       2.938   1.523  -1.090  1.00  0.00     0.089 A 
HETATM    6  C4  UNK     1       0.745   0.824  -1.932  1.00  0.00     0.037 A 
HETATM    7  C5  UNK     1       2.319   2.186  -3.313  1.00  0.00     0.014 A 
HETATM    8  C7  UNK     1       1.463   0.190   0.336  1.00  0.00     0.304 A 
HETATM    9  C8  UNK     1       4.167   2.171  -1.210  1.00  0.00     0.038 A 
HETATM   10  C10 UNK     1       3.547   2.840  -3.447  1.00  0.00     0.001 A 
HETATM   11  C11 UNK     1       4.469   2.832  -2.398  1.00  0.00     0.003 A 
ENDROOT
BRANCH   4  12
HETATM   12  C6  UNK     1      -0.812  -0.475  -0.680  1.00  0.00     0.262 C 
HETATM   13  O2  UNK     1      -1.342  -0.929  -1.693  1.00  0.00    -0.267 OA
HETATM   14  N1  UNK     1      -1.291  -0.504   0.623  1.00  0.00    -0.321 N 
HETATM   15  H4  UNK     1      -0.739  -0.062   1.354  1.00  0.00     0.169 HD
BRANCH  14  16
HETATM   16  C9  UNK     1      -2.505  -1.068   1.085  1.00  0.00     0.056 A 
HETATM   17  C12 UNK     1      -2.845  -1.018   2.427  1.00  0.00     0.060 A 
HETATM   18 Cl1  UNK     1      -1.825  -0.277   3.608  1.00  0.00    -0.082 Cl
HETATM   19  C14 UNK     1      -4.048  -1.585   2.849  1.00  0.00     0.026 A 
HETATM   20  C16 UNK     1      -4.895  -2.193   1.923  1.00  0.00     0.002 A 
HETATM   21  C15 UNK     1      -4.540  -2.235   0.575  1.00  0.00     0.002 A 
HETATM   22  C13 UNK     1      -3.337  -1.669   0.153  1.00  0.00     0.031 A 
ENDBRANCH  14  16
ENDBRANCH   4  12
TORSDOF 2
