REMARK  8 active torsions:
REMARK  status: ('A' for Active; 'I' for Inactive)
REMARK    1  A    between atoms: C20_28  and  O2_3 
REMARK    2  A    between atoms: C8_16  and  O2_3 
REMARK    3  A    between atoms: C18_26  and  O5_6 
REMARK    4  A    between atoms: C1_9  and  N1_8 
REMARK       I    between atoms: C4_12  and  N1_8 
REMARK    5  A    between atoms: C1_9  and  C2_10 
REMARK    6  A    between atoms: C1_9  and  C3_11 
REMARK    7  A    between atoms: C2_10  and  C8_16 
REMARK    8  A    between atoms: C4_12  and  C7_15 
ROOT
HETATM    1  O3  UNK     1       0.254   1.227   1.455  1.00  0.00    -0.267 OA
HETATM    2  N1  UNK     1       0.579   0.338  -0.675  1.00  0.00    -0.348 N 
HETATM    3  C4  UNK     1      -0.105   0.523   0.513  1.00  0.00     0.258 C 
HETATM    4  H4  UNK     1       0.217  -0.319  -1.360  1.00  0.00     0.163 HD
ENDROOT
BRANCH   2   5
HETATM    5  C1  UNK     1       1.845   0.973  -0.963  1.00  0.00     0.129 C 
BRANCH   5   6
HETATM    6  C2  UNK     1       3.018   0.123  -0.450  1.00  0.00     0.141 C 
BRANCH   6   7
HETATM    7  C8  UNK     1       4.362   0.798  -0.632  1.00  0.00     0.261 C 
HETATM    8  O4  UNK     1       5.287   0.365  -1.305  1.00  0.00    -0.265 OA
BRANCH   7   9
HETATM    9  O2  UNK     1       4.362   1.974   0.066  1.00  0.00    -0.322 OA
BRANCH   9  10
HETATM   10  C20 UNK     1       5.567   2.742  -0.021  1.00  0.00     0.174 C 
HETATM   11  C21 UNK     1       5.407   4.004   0.800  1.00  0.00     0.034 C 
ENDBRANCH   9  10
ENDBRANCH   7   9
ENDBRANCH   6   7
ENDBRANCH   5   6
BRANCH   5  12
HETATM   12  C3  UNK     1       1.970   1.265  -2.445  1.00  0.00    -0.013 A 
HETATM   13  C5  UNK     1       2.040   2.567  -2.910  1.00  0.00     0.042 A 
HETATM   14  C12 UNK     1       2.156   2.796  -4.281  1.00  0.00     0.024 A 
HETATM   15 Cl1  UNK     1       1.989   3.924  -1.845  1.00  0.00    -0.084 Cl
HETATM   16  C15 UNK     1       2.200   1.719  -5.167  1.00  0.00     0.002 A 
HETATM   17  C13 UNK     1       2.128   0.413  -4.681  1.00  0.00     0.001 A 
HETATM   18  C6  UNK     1       2.013   0.184  -3.310  1.00  0.00     0.011 A 
ENDBRANCH   5  12
ENDBRANCH   2   5
BRANCH   3  19
HETATM   19  C7  UNK     1      -1.366  -0.225   0.568  1.00  0.00     0.108 A 
HETATM   20  C10 UNK     1      -1.766  -0.621   1.783  1.00  0.00     0.037 A 
HETATM   21  C9  UNK     1      -3.004  -1.369   1.939  1.00  0.00     0.002 A 
HETATM   22  C11 UNK     1      -3.760  -1.663   0.809  1.00  0.00     0.089 A 
HETATM   23  C16 UNK     1      -3.460  -1.802   3.187  1.00  0.00     0.051 A 
HETATM   24  O1  UNK     1      -3.334  -1.244  -0.467  1.00  0.00    -0.274 OA
HETATM   25  C17 UNK     1      -4.954  -2.376   0.890  1.00  0.00     0.041 A 
HETATM   26  C14 UNK     1      -2.154  -0.527  -0.648  1.00  0.00     0.304 A 
HETATM   27  O6  UNK     1      -1.790  -0.167  -1.762  1.00  0.00    -0.259 OA
HETATM   28  C19 UNK     1      -5.402  -2.805   2.138  1.00  0.00     0.039 A 
HETATM   29  C18 UNK     1      -4.657  -2.518   3.284  1.00  0.00     0.069 A 
BRANCH  29  30
HETATM   30  O5  UNK     1      -5.098  -2.938   4.502  1.00  0.00    -0.356 OA
HETATM   31  C22 UNK     1      -6.327  -3.663   4.532  1.00  0.00     0.210 C 
ENDBRANCH  29  30
ENDBRANCH   3  19
TORSDOF 8
