REMARK  2 active torsions:
REMARK  status: ('A' for Active; 'I' for Inactive)
REMARK    1  A    between atoms: C17_20  and  O3_3 
REMARK    2  A    between atoms: C11_14  and  C6_9 
ROOT
HETATM    1  O1  UNK     1      -0.370   0.083   0.874  1.00  0.00    -0.309 OA
HETATM    2  O2  UNK     1      -0.104   0.107  -3.180  1.00  0.00    -0.287 OA
HETATM    3  C1  UNK     1       0.947   0.693  -1.103  1.00  0.00     0.059 A 
HETATM    4  C2  UNK     1       2.141   1.287  -1.627  1.00  0.00    -0.009 A 
HETATM    5  C3  UNK     1       0.739   0.634   0.283  1.00  0.00     0.091 A 
HETATM    6  C4  UNK     1       3.087   1.807  -0.700  1.00  0.00    -0.025 A 
HETATM    7  C5  UNK     1      -0.130   0.117  -1.958  1.00  0.00     0.188 A 
HETATM    8  C6  UNK     1      -1.348  -0.465   0.070  1.00  0.00     0.090 A 
HETATM    9  C7  UNK     1       1.682   1.151   1.166  1.00  0.00     0.039 A 
HETATM   10  C8  UNK     1       2.844   1.732   0.677  1.00  0.00     0.015 A 
HETATM   11  C9  UNK     1       2.482   1.409  -3.001  1.00  0.00     0.013 A 
HETATM   12  C10 UNK     1      -1.295  -0.473  -1.267  1.00  0.00     0.093 A 
HETATM   13  C12 UNK     1       4.279   2.403  -1.144  1.00  0.00     0.012 A 
HETATM   14  C13 UNK     1       3.673   2.005  -3.428  1.00  0.00     0.001 A 
HETATM   15  C14 UNK     1       4.572   2.502  -2.500  1.00  0.00     0.001 A 
ENDROOT
BRANCH   8  16
HETATM   16  C11 UNK     1      -2.493  -1.030   0.812  1.00  0.00     0.001 A 
HETATM   17  C15 UNK     1      -2.305  -1.579   2.083  1.00  0.00     0.050 A 
HETATM   18  C17 UNK     1      -3.387  -2.114   2.783  1.00  0.00     0.066 A 
HETATM   19  C19 UNK     1      -4.660  -2.101   2.213  1.00  0.00     0.036 A 
HETATM   20  C18 UNK     1      -4.852  -1.555   0.944  1.00  0.00     0.004 A 
HETATM   21  C16 UNK     1      -3.770  -1.020   0.245  1.00  0.00     0.014 A 
BRANCH  18  22
HETATM   22  O3  UNK     1      -3.200  -2.647   4.021  1.00  0.00    -0.361 OA
HETATM   23  H12 UNK     1      -4.054  -2.969   4.357  1.00  0.00     0.217 HD
ENDBRANCH  18  22
ENDBRANCH   8  16
TORSDOF 2
