REMARK  3 active torsions:
REMARK  status: ('A' for Active; 'I' for Inactive)
REMARK       I    between atoms: C16_22  and  N1_6 
REMARK    1  A    between atoms: C6_12  and  N1_6 
REMARK    2  A    between atoms: C1_7  and  C2_8 
REMARK    3  A    between atoms: C16_22  and  C17_23 
ROOT
HETATM    1  C2  UNK     1       1.307   0.973  -0.603  1.00  0.00    -0.020 A 
HETATM    2  C6  UNK     1      -0.995  -0.042   0.603  1.00  0.00     0.035 A 
HETATM    3  C7  UNK     1       0.971  -0.371  -0.764  1.00  0.00     0.014 A 
HETATM    4  C8  UNK     1       0.493   1.810   0.161  1.00  0.00     0.014 A 
HETATM    5  C10 UNK     1      -0.180  -0.878  -0.161  1.00  0.00     0.030 A 
HETATM    6  C11 UNK     1      -0.658   1.302   0.764  1.00  0.00     0.030 A 
ENDROOT
BRANCH   2   7
HETATM    7  N1  UNK     1      -2.145  -0.550   1.207  1.00  0.00    -0.323 N 
HETATM    8  C16 UNK     1      -2.594  -1.862   1.130  1.00  0.00     0.257 C 
HETATM    9  O3  UNK     1      -2.081  -2.802   0.532  1.00  0.00    -0.267 OA
HETATM   10  H8  UNK     1      -2.695   0.115   1.747  1.00  0.00     0.169 HD
BRANCH   8  11
HETATM   11  C17 UNK     1      -3.837  -2.135   1.900  1.00  0.00     0.054 A 
HETATM   12  C18 UNK     1      -4.969  -2.613   1.273  1.00  0.00     0.051 A 
HETATM   13 Cl1  UNK     1      -5.027  -2.926  -0.424  1.00  0.00    -0.083 Cl
HETATM   14  C20 UNK     1      -6.113  -2.853   2.035  1.00  0.00     0.048 A 
HETATM   15  C22 UNK     1      -6.099  -2.610   3.409  1.00  0.00     0.035 A 
HETATM   16  C21 UNK     1      -4.942  -2.127   4.020  1.00  0.00     0.025 A 
HETATM   17 Cl2  UNK     1      -7.509  -2.909   4.350  1.00  0.00    -0.084 Cl
HETATM   18  C19 UNK     1      -3.799  -1.887   3.259  1.00  0.00     0.020 A 
ENDBRANCH   8  11
ENDBRANCH   2   7
BRANCH   1  19
HETATM   19  C1  UNK     1       2.523   1.510  -1.240  1.00  0.00     0.051 A 
HETATM   20  C4  UNK     1       2.439   2.017  -2.479  1.00  0.00     0.032 A 
HETATM   21  C3  UNK     1       3.613   2.545  -3.155  1.00  0.00    -0.001 A 
HETATM   22  C12 UNK     1       3.552   3.085  -4.442  1.00  0.00     0.014 A 
HETATM   23  C5  UNK     1       4.838   2.506  -2.501  1.00  0.00     0.089 A 
HETATM   24  C14 UNK     1       4.712   3.576  -5.049  1.00  0.00     0.001 A 
HETATM   25  C15 UNK     1       5.934   3.529  -4.376  1.00  0.00     0.003 A 
HETATM   26  C13 UNK     1       6.002   2.991  -3.093  1.00  0.00     0.038 A 
HETATM   27  O1  UNK     1       4.936   1.970  -1.203  1.00  0.00    -0.274 OA
HETATM   28  C9  UNK     1       3.828   1.471  -0.524  1.00  0.00     0.299 A 
HETATM   29  O2  UNK     1       3.933   1.027   0.615  1.00  0.00    -0.259 OA
ENDBRANCH   1  19
TORSDOF 3
