REMARK  7 active torsions:
REMARK  status: ('A' for Active; 'I' for Inactive)
REMARK    1  A    between atoms: C16_23  and  O3_3 
REMARK    2  A    between atoms: C26_33  and  O3_3 
REMARK    3  A    between atoms: C5_12  and  N1_5 
REMARK    4  A    between atoms: C6_13  and  N2_6 
REMARK    5  A    between atoms: C13_20  and  N3_7 
REMARK       I    between atoms: C8_15  and  N3_7 
REMARK    6  A    between atoms: C5_12  and  C7_14 
REMARK    7  A    between atoms: C6_13  and  C8_15 
ROOT
HETATM    1  N1  UNK     1       1.153   0.141  -1.710  1.00  0.00     0.096 N 
HETATM    2  N2  UNK     1      -1.564  -0.528  -0.985  1.00  0.00     0.100 N 
HETATM    3  C1  UNK     1       0.090   0.072  -2.720  1.00  0.00     0.303 C 
HETATM    4  C2  UNK     1       0.864  -0.771  -0.597  1.00  0.00     0.303 C 
HETATM    5  C3  UNK     1      -1.275   0.385  -2.098  1.00  0.00     0.303 C 
HETATM    6  C4  UNK     1      -0.501  -0.456   0.025  1.00  0.00     0.303 C 
ENDROOT
BRANCH   1   7
HETATM    7  C5  UNK     1       2.454  -0.161  -2.304  1.00  0.00     0.312 C 
BRANCH   7   8
HETATM    8  C7  UNK     1       3.028   1.009  -3.025  1.00  0.00    -0.011 A 
HETATM    9  C10 UNK     1       2.777   1.212  -4.326  1.00  0.00     0.092 A 
HETATM   10  C14 UNK     1       3.322   2.353  -5.081  1.00  0.00     0.288 A 
HETATM   11  O1  UNK     1       4.129   3.236  -4.379  1.00  0.00    -0.275 OA
HETATM   12  O4  UNK     1       3.070   2.507  -6.271  1.00  0.00    -0.260 OA
HETATM   13  C11 UNK     1       4.412   3.048  -3.012  1.00  0.00     0.090 A 
HETATM   14  C9  UNK     1       3.888   1.961  -2.309  1.00  0.00     0.009 A 
HETATM   15  C15 UNK     1       5.236   3.999  -2.408  1.00  0.00     0.041 A 
HETATM   16  C12 UNK     1       4.218   1.845  -0.952  1.00  0.00     0.051 A 
HETATM   17  C16 UNK     1       5.044   2.790  -0.333  1.00  0.00     0.069 A 
HETATM   18  C19 UNK     1       5.552   3.865  -1.060  1.00  0.00     0.039 A 
BRANCH  17  19
HETATM   19  O3  UNK     1       5.352   2.658   0.987  1.00  0.00    -0.351 OA
BRANCH  19  20
HETATM   20  C26 UNK     1       4.383   2.023   1.819  1.00  0.00     0.171 C 
HETATM   21  C27 UNK     1       4.502   2.575   3.224  1.00  0.00     0.034 C 
ENDBRANCH  19  20
ENDBRANCH  17  19
ENDBRANCH   7   8
ENDBRANCH   1   7
BRANCH   2  22
HETATM   22  C6  UNK     1      -2.865  -0.227  -0.391  1.00  0.00     0.375 C 
BRANCH  22  23
HETATM   23  C8  UNK     1      -3.357  -1.436   0.386  1.00  0.00     0.250 C 
HETATM   24  O2  UNK     1      -3.060  -2.586   0.080  1.00  0.00    -0.271 OA
HETATM   25  N3  UNK     1      -4.156  -1.029   1.453  1.00  0.00    -0.325 N 
HETATM   26  H14 UNK     1      -4.584  -0.113   1.335  1.00  0.00     0.169 HD
BRANCH  25  27
HETATM   27  C13 UNK     1      -4.802  -1.848   2.410  1.00  0.00     0.046 A 
HETATM   28  C17 UNK     1      -4.049  -2.693   3.227  1.00  0.00    -0.034 A 
HETATM   29  C20 UNK     1      -4.685  -3.500   4.170  1.00  0.00     0.015 A 
HETATM   30  C23 UNK     1      -2.560  -2.756   3.113  1.00  0.00     0.050 C 
HETATM   31  C22 UNK     1      -6.074  -3.463   4.296  1.00  0.00    -0.061 A 
HETATM   32  C21 UNK     1      -6.826  -2.618   3.480  1.00  0.00     0.015 A 
HETATM   33  C25 UNK     1      -6.755  -4.327   5.303  1.00  0.00     0.048 C 
HETATM   34  C18 UNK     1      -6.190  -1.811   2.537  1.00  0.00    -0.034 A 
HETATM   35  C24 UNK     1      -7.022  -0.916   1.677  1.00  0.00     0.050 C 
ENDBRANCH  25  27
ENDBRANCH  22  23
ENDBRANCH   2  22
TORSDOF 7
