REMARK  4 active torsions:
REMARK  status: ('A' for Active; 'I' for Inactive)
REMARK    1  A    between atoms: C1_9  and  N1_6 
REMARK       I    between atoms: C12_20  and  N3_8 
REMARK    2  A    between atoms: C3_11  and  N3_8 
REMARK    3  A    between atoms: C1_9  and  C2_10 
REMARK    4  A    between atoms: C12_20  and  C7_15 
ROOT
HETATM    1  O2  UNK     1       0.519  -0.243  -2.927  1.00  0.00    -0.267 OA
HETATM    2  N3  UNK     1      -0.038   0.560  -0.783  1.00  0.00    -0.306 N 
HETATM    3  C12 UNK     1       0.768   0.384  -1.899  1.00  0.00     0.263 C 
HETATM    4  H6  UNK     1       0.292   1.124  -0.005  1.00  0.00     0.170 HD
ENDROOT
BRANCH   2   5
HETATM    5  C3  UNK     1      -1.329   0.053  -0.583  1.00  0.00     0.151 A 
HETATM    6  N2  UNK     1      -2.015   0.281   0.526  1.00  0.00    -0.154 NA
HETATM    7  N1  UNK     1      -3.166  -0.374   0.294  1.00  0.00    -0.275 N 
HETATM    8  C4  UNK     1      -3.210  -0.996  -0.919  1.00  0.00     0.116 A 
HETATM    9  C6  UNK     1      -2.005  -0.729  -1.522  1.00  0.00     0.071 A 
BRANCH   7  10
HETATM   10  C1  UNK     1      -4.208  -0.367   1.292  1.00  0.00     0.194 C 
BRANCH  10  11
HETATM   11  C2  UNK     1      -4.063  -1.522   2.245  1.00  0.00     0.022 A 
HETATM   12  C10 UNK     1      -3.312  -1.403   3.409  1.00  0.00     0.045 A 
HETATM   13 Cl1  UNK     1      -2.509   0.067   3.824  1.00  0.00    -0.084 Cl
HETATM   14  C15 UNK     1      -3.199  -2.494   4.272  1.00  0.00     0.024 A 
HETATM   15  C18 UNK     1      -3.836  -3.696   3.964  1.00  0.00     0.005 A 
HETATM   16  C16 UNK     1      -4.588  -3.807   2.794  1.00  0.00     0.043 A 
HETATM   17  C11 UNK     1      -4.701  -2.717   1.932  1.00  0.00     0.126 A 
HETATM   18  F1  UNK     1      -5.425  -2.835   0.810  1.00  0.00    -0.205 F 
ENDBRANCH  10  11
ENDBRANCH   7  10
ENDBRANCH   2   5
BRANCH   3  19
HETATM   19  C7  UNK     1       2.062   1.062  -1.756  1.00  0.00     0.108 A 
HETATM   20  C13 UNK     1       2.705   1.258  -0.438  1.00  0.00     0.304 A 
HETATM   21  O1  UNK     1       3.933   1.915  -0.432  1.00  0.00    -0.274 OA
HETATM   22  O3  UNK     1       2.188   0.862   0.601  1.00  0.00    -0.259 OA
HETATM   23  C8  UNK     1       4.536   2.372  -1.620  1.00  0.00     0.089 A 
HETATM   24  C17 UNK     1       5.766   3.019  -1.513  1.00  0.00     0.038 A 
HETATM   25  C5  UNK     1       3.914   2.178  -2.849  1.00  0.00    -0.001 A 
HETATM   26  C20 UNK     1       6.388   3.483  -2.671  1.00  0.00     0.003 A 
HETATM   27  C19 UNK     1       5.778   3.297  -3.914  1.00  0.00     0.001 A 
HETATM   28  C14 UNK     1       4.544   2.647  -4.004  1.00  0.00     0.014 A 
HETATM   29  C9  UNK     1       2.631   1.495  -2.888  1.00  0.00     0.037 A 
ENDBRANCH   3  19
TORSDOF 4
