REMARK  7 active torsions:
REMARK  status: ('A' for Active; 'I' for Inactive)
REMARK    1  A    between atoms: C16_25  and  O3_3 
REMARK    2  A    between atoms: C25_34  and  O3_3 
REMARK    3  A    between atoms: C5_14  and  N1_7 
REMARK    4  A    between atoms: C6_15  and  N2_8 
REMARK    5  A    between atoms: C15_24  and  N3_9 
REMARK       I    between atoms: C9_18  and  N3_9 
REMARK    6  A    between atoms: C5_14  and  C7_16 
REMARK    7  A    between atoms: C6_15  and  C9_18 
ROOT
HETATM    1  N1  UNK     1       2.257   0.076  -1.022  1.00  0.00     0.096 N 
HETATM    2  N2  UNK     1       0.484  -0.939   1.024  1.00  0.00     0.100 N 
HETATM    3  C1  UNK     1       2.780  -0.543   0.202  1.00  0.00     0.303 C 
HETATM    4  C2  UNK     1       0.945  -0.490  -1.362  1.00  0.00     0.303 C 
HETATM    5  C3  UNK     1       1.795  -0.372   1.364  1.00  0.00     0.303 C 
HETATM    6  C4  UNK     1      -0.040  -0.320  -0.200  1.00  0.00     0.303 C 
ENDROOT
BRANCH   1   7
HETATM    7  C5  UNK     1       3.196  -0.090  -2.130  1.00  0.00     0.312 C 
BRANCH   7   8
HETATM    8  C7  UNK     1       3.001   0.937  -3.191  1.00  0.00    -0.011 A 
HETATM    9  C10 UNK     1       2.164   0.723  -4.215  1.00  0.00     0.092 A 
HETATM   10  C13 UNK     1       1.939   1.708  -5.287  1.00  0.00     0.288 A 
HETATM   11  O1  UNK     1       2.644   2.898  -5.197  1.00  0.00    -0.275 OA
HETATM   12  O4  UNK     1       1.165   1.478  -6.210  1.00  0.00    -0.260 OA
HETATM   13  C11 UNK     1       3.531   3.151  -4.132  1.00  0.00     0.090 A 
HETATM   14  C8  UNK     1       3.735   2.208  -3.124  1.00  0.00     0.009 A 
HETATM   15  C14 UNK     1       4.188   4.383  -4.145  1.00  0.00     0.041 A 
HETATM   16  C12 UNK     1       4.635   2.535  -2.101  1.00  0.00     0.051 A 
HETATM   17  C16 UNK     1       5.301   3.766  -2.100  1.00  0.00     0.069 A 
HETATM   18  C17 UNK     1       5.077   4.689  -3.120  1.00  0.00     0.039 A 
BRANCH  17  19
HETATM   19  O3  UNK     1       6.171   4.064  -1.096  1.00  0.00    -0.351 OA
BRANCH  19  20
HETATM   20  C25 UNK     1       5.912   3.485   0.181  1.00  0.00     0.171 C 
HETATM   21  C26 UNK     1       6.442   4.407   1.258  1.00  0.00     0.034 C 
ENDBRANCH  19  20
ENDBRANCH  17  19
ENDBRANCH   7   8
ENDBRANCH   1   7
BRANCH   2  22
HETATM   22  C6  UNK     1      -0.456  -0.775   2.131  1.00  0.00     0.375 C 
BRANCH  22  23
HETATM   23  C9  UNK     1      -1.559  -1.813   2.016  1.00  0.00     0.250 C 
HETATM   24  O2  UNK     1      -1.379  -2.917   1.512  1.00  0.00    -0.271 OA
HETATM   25  N3  UNK     1      -2.744  -1.319   2.558  1.00  0.00    -0.326 N 
HETATM   26  H15 UNK     1      -2.729  -0.379   2.949  1.00  0.00     0.169 HD
BRANCH  25  27
HETATM   27  C15 UNK     1      -3.994  -1.975   2.643  1.00  0.00     0.037 A 
HETATM   28  C18 UNK     1      -5.086  -1.324   3.217  1.00  0.00     0.069 A 
HETATM   29  C20 UNK     1      -6.320  -1.971   3.291  1.00  0.00     0.104 A 
HETATM   30  C21 UNK     1      -6.454  -3.278   2.817  1.00  0.00     0.102 A 
HETATM   31  O5  UNK     1      -7.359  -1.272   3.847  1.00  0.00    -0.346 OA
HETATM   32  C22 UNK     1      -5.365  -3.924   2.230  1.00  0.00     0.042 A 
HETATM   33  O6  UNK     1      -7.630  -3.978   2.891  1.00  0.00    -0.346 OA
HETATM   34  C19 UNK     1      -4.135  -3.271   2.145  1.00  0.00     0.032 A 
HETATM   35  C24 UNK     1      -8.555  -3.373   3.799  1.00  0.00     0.202 C 
HETATM   36  C23 UNK     1      -8.623  -1.878   3.560  1.00  0.00     0.202 C 
ENDBRANCH  25  27
ENDBRANCH  22  23
ENDBRANCH   2  22
TORSDOF 7
