REMARK  8 active torsions:
REMARK  status: ('A' for Active; 'I' for Inactive)
REMARK    1  A    between atoms: C2_8  and  O1_1 
REMARK    2  A    between atoms: C9_15  and  O1_1 
REMARK    3  A    between atoms: C3_9  and  O2_2 
REMARK    4  A    between atoms: C15_21  and  N1_6 
REMARK    5  A    between atoms: C1_7  and  C2_8 
REMARK    6  A    between atoms: C5_11  and  C8_14 
REMARK    7  A    between atoms: C10_16  and  C13_19 
REMARK    8  A    between atoms: C13_19  and  C14_20 
ROOT
HETATM    1  C1  UNK     1      -1.392  -0.595  -1.804  1.00  0.00     0.000 A 
HETATM    2  C3  UNK     1      -1.296  -1.760  -2.565  1.00  0.00     0.076 A 
HETATM    3  C4  UNK     1      -2.362  -0.492  -0.806  1.00  0.00     0.023 A 
HETATM    4  C5  UNK     1      -3.235  -1.553  -0.570  1.00  0.00    -0.035 A 
HETATM    5  C6  UNK     1      -2.169  -2.821  -2.329  1.00  0.00     0.038 A 
HETATM    6  C7  UNK     1      -3.139  -2.718  -1.332  1.00  0.00     0.014 A 
ENDROOT
BRANCH   1   7
HETATM    7  C2  UNK     1      -0.466   0.551  -2.044  1.00  0.00     0.217 C 
BRANCH   7   8
HETATM    8  O1  UNK     1       0.814   0.242  -1.509  1.00  0.00    -0.347 OA
BRANCH   8   9
HETATM    9  C9  UNK     1       1.778   1.211  -1.615  1.00  0.00     0.069 A 
HETATM   10  C11 UNK     1       1.479   2.429  -2.224  1.00  0.00     0.039 A 
HETATM   11  C16 UNK     1       2.459   3.415  -2.331  1.00  0.00     0.039 A 
HETATM   12  C15 UNK     1       3.740   3.183  -1.828  1.00  0.00     0.103 A 
HETATM   13  C17 UNK     1       4.039   1.964  -1.219  1.00  0.00     0.039 A 
HETATM   14  C12 UNK     1       3.059   0.978  -1.112  1.00  0.00     0.039 A 
BRANCH  12  15
HETATM   15  N1  UNK     1       4.738   4.187  -1.936  1.00  0.00    -0.116 N 
HETATM   16  O4  UNK     1       4.448   5.276  -2.488  1.00  0.00    -0.532 OA
HETATM   17  O5  UNK     1       5.883   3.957  -1.477  1.00  0.00    -0.532 OA
ENDBRANCH  12  15
ENDBRANCH   8   9
ENDBRANCH   7   8
ENDBRANCH   1   7
BRANCH   2  18
HETATM   18  O2  UNK     1      -0.355  -1.876  -3.544  1.00  0.00    -0.355 OA
HETATM   19  C18 UNK     1      -0.328  -3.102  -4.273  1.00  0.00     0.210 C 
ENDBRANCH   2  18
BRANCH   4  20
HETATM   20  C8  UNK     1      -4.260  -1.446   0.483  1.00  0.00     0.015 C 
HETATM   21  C10 UNK     1      -3.997  -1.246   1.783  1.00  0.00     0.056 C 
BRANCH  21  22
HETATM   22  C13 UNK     1      -2.580  -1.113   2.265  1.00  0.00     0.182 C 
HETATM   23  O3  UNK     1      -1.658  -1.699   1.677  1.00  0.00    -0.288 OA
BRANCH  22  24
HETATM   24  C14 UNK     1      -2.312  -0.263   3.414  1.00  0.00     0.014 A 
HETATM   25  C19 UNK     1      -3.120   0.846   3.664  1.00  0.00     0.015 A 
HETATM   26  C21 UNK     1      -2.863   1.662   4.767  1.00  0.00     0.001 A 
HETATM   27  C23 UNK     1      -1.798   1.368   5.618  1.00  0.00     0.000 A 
HETATM   28  C22 UNK     1      -0.990   0.258   5.368  1.00  0.00     0.001 A 
HETATM   29  C20 UNK     1      -1.247  -0.557   4.265  1.00  0.00     0.015 A 
ENDBRANCH  22  24
ENDBRANCH  21  22
ENDBRANCH   4  20
TORSDOF 8
