REMARK  2 active torsions:
REMARK  status: ('A' for Active; 'I' for Inactive)
REMARK    1  A    between atoms: C8_13  and  N1_4 
REMARK    2  A    between atoms: C1_6  and  C4_9 
ROOT
HETATM    1  O1  UNK     1       1.109   1.113   1.244  1.00  0.00    -0.291 OA
HETATM    2  O2  UNK     1       1.236  -0.153  -2.740  1.00  0.00    -0.274 OA
HETATM    3  O3  UNK     1      -0.243  -1.821  -2.261  1.00  0.00    -0.259 OA
HETATM    4  N2  UNK     1      -1.470  -2.027   3.830  1.00  0.00    -0.191 NA
HETATM    5  C1  UNK     1      -0.600  -1.076   0.496  1.00  0.00     0.108 C 
HETATM    6  C2  UNK     1       0.336  -0.367  -0.471  1.00  0.00     0.066 A 
HETATM    7  C3  UNK     1       1.099   0.658  -0.061  1.00  0.00     0.104 A 
HETATM    8  C5  UNK     1      -0.341  -0.655   1.944  1.00  0.00     0.086 C 
HETATM    9  C6  UNK     1       1.975   1.367  -0.990  1.00  0.00     0.033 A 
HETATM   10  C7  UNK     1       0.403  -0.853  -1.874  1.00  0.00     0.298 A 
HETATM   11  C8  UNK     1       0.463   0.390   2.245  1.00  0.00     0.159 C 
HETATM   12  C9  UNK     1       2.014   0.940  -2.314  1.00  0.00     0.092 A 
HETATM   13  C12 UNK     1       2.775   2.455  -0.624  1.00  0.00     0.017 A 
HETATM   14  C13 UNK     1       2.819   1.560  -3.270  1.00  0.00     0.038 A 
HETATM   15  C16 UNK     1       3.587   3.089  -1.571  1.00  0.00     0.001 A 
HETATM   16  C17 UNK     1      -0.965  -1.413   2.985  1.00  0.00     0.100 C 
HETATM   17  C18 UNK     1       3.609   2.642  -2.892  1.00  0.00     0.003 A 
ENDROOT
BRANCH   5  18
HETATM   18  C4  UNK     1      -2.032  -0.818   0.129  1.00  0.00    -0.044 A 
HETATM   19  C10 UNK     1      -2.985  -1.809   0.336  1.00  0.00     0.008 A 
HETATM   20  C14 UNK     1      -4.316  -1.569  -0.005  1.00  0.00     0.001 A 
HETATM   21  C19 UNK     1      -4.686  -0.340  -0.550  1.00  0.00     0.000 A 
HETATM   22  C15 UNK     1      -3.724   0.650  -0.756  1.00  0.00     0.001 A 
HETATM   23  C11 UNK     1      -2.393   0.410  -0.415  1.00  0.00     0.008 A 
ENDBRANCH   5  18
BRANCH  11  24
HETATM   24  N1  UNK     1       0.729   0.841   3.509  1.00  0.00    -0.379 N 
HETATM   25  H10 UNK     1       0.316   0.396   4.318  1.00  0.00     0.158 HD
HETATM   26  H11 UNK     1       1.347   1.634   3.623  1.00  0.00     0.158 HD
ENDBRANCH  11  24
TORSDOF 2
