REMARK  8 active torsions:
REMARK  status: ('A' for Active; 'I' for Inactive)
REMARK    1  A    between atoms: C11_20  and  O2_3 
REMARK    2  A    between atoms: C19_28  and  O2_3 
REMARK       I    between atoms: C4_13  and  N1_8 
REMARK    3  A    between atoms: C6_15  and  N1_8 
REMARK    4  A    between atoms: C7_16  and  N1_8 
REMARK       I    between atoms: C12_21  and  N2_9 
REMARK    5  A    between atoms: C5_14  and  N2_9 
REMARK    6  A    between atoms: C2_11  and  C4_13 
REMARK    7  A    between atoms: C11_20  and  C3_12 
REMARK    8  A    between atoms: C12_21  and  C13_22 
ROOT
HETATM    1  S1  UNK     1      -2.254  -0.450  -0.357  1.00  0.00    -0.065 SA
HETATM    2  C1  UNK     1      -2.431  -0.433   2.206  1.00  0.00    -0.020 A 
HETATM    3  C2  UNK     1      -3.154  -0.733   1.072  1.00  0.00     0.082 A 
HETATM    4  C3  UNK     1      -1.122   0.035   1.898  1.00  0.00     0.080 A 
HETATM    5  C5  UNK     1      -0.893   0.075   0.540  1.00  0.00     0.094 A 
HETATM    6  C8  UNK     1      -2.956  -0.581   3.587  1.00  0.00     0.051 C 
ENDROOT
BRANCH   5   7
HETATM    7  N2  UNK     1       0.231   0.461  -0.196  1.00  0.00    -0.316 N 
HETATM    8  C12 UNK     1       0.343   0.459  -1.580  1.00  0.00     0.262 C 
HETATM    9  O5  UNK     1      -0.494   0.128  -2.417  1.00  0.00    -0.267 OA
HETATM   10  H8  UNK     1       1.024   0.773   0.360  1.00  0.00     0.169 HD
BRANCH   8  11
HETATM   11  C13 UNK     1       1.663   0.925  -2.022  1.00  0.00     0.108 A 
HETATM   12  C15 UNK     1       1.675   2.012  -2.803  1.00  0.00     0.037 A 
HETATM   13  C14 UNK     1       2.935   2.549  -3.293  1.00  0.00    -0.001 A 
HETATM   14  C16 UNK     1       4.121   1.915  -2.936  1.00  0.00     0.089 A 
HETATM   15  C18 UNK     1       2.995   3.681  -4.110  1.00  0.00     0.014 A 
HETATM   16  O3  UNK     1       4.102   0.772  -2.113  1.00  0.00    -0.274 OA
HETATM   17  C20 UNK     1       5.361   2.379  -3.371  1.00  0.00     0.038 A 
HETATM   18  C17 UNK     1       2.912   0.235  -1.630  1.00  0.00     0.304 A 
HETATM   19  O6  UNK     1       2.905  -0.762  -0.915  1.00  0.00    -0.259 OA
HETATM   20  C22 UNK     1       5.411   3.508  -4.186  1.00  0.00     0.003 A 
HETATM   21  C21 UNK     1       4.231   4.158  -4.554  1.00  0.00     0.001 A 
ENDBRANCH   8  11
ENDBRANCH   5   7
BRANCH   4  22
HETATM   22  C11 UNK     1      -0.125   0.429   2.863  1.00  0.00     0.296 C 
HETATM   23  O4  UNK     1      -0.391   0.915   3.972  1.00  0.00    -0.259 OA
BRANCH  22  24
HETATM   24  O2  UNK     1       1.171   0.218   2.445  1.00  0.00    -0.318 OA
BRANCH  24  25
HETATM   25  C19 UNK     1       2.212   0.588   3.357  1.00  0.00     0.174 C 
HETATM   26  C23 UNK     1       3.553   0.283   2.723  1.00  0.00     0.034 C 
ENDBRANCH  24  25
ENDBRANCH  22  24
ENDBRANCH   4  22
BRANCH   3  27
HETATM   27  C4  UNK     1      -4.490  -1.224   0.955  1.00  0.00     0.261 C 
HETATM   28  O1  UNK     1      -5.466  -0.448   0.870  1.00  0.00    -0.267 OA
HETATM   29  N1  UNK     1      -4.703  -2.632   0.935  1.00  0.00    -0.348 N 
BRANCH  29  30
HETATM   30  C6  UNK     1      -3.626  -3.618   1.003  1.00  0.00     0.121 C 
HETATM   31  C9  UNK     1      -3.123  -3.987  -0.377  1.00  0.00     0.026 C 
ENDBRANCH  29  30
BRANCH  29  32
HETATM   32  C7  UNK     1      -6.048  -3.180   0.818  1.00  0.00     0.121 C 
HETATM   33  C10 UNK     1      -6.682  -3.390   2.177  1.00  0.00     0.026 C 
ENDBRANCH  29  32
ENDBRANCH   3  27
TORSDOF 8
