REMARK  3 active torsions:
REMARK  status: ('A' for Active; 'I' for Inactive)
REMARK    1  A    between atoms: C5_9  and  O2_2 
REMARK    2  A    between atoms: C7_11  and  O3_3 
REMARK    3  A    between atoms: C1_5  and  C3_7 
ROOT
HETATM    1  O1  UNK     1       0.559  -1.394  -0.265  1.00  0.00    -0.306 OA
HETATM    2  O4  UNK     1       1.263  -2.866   3.469  1.00  0.00    -0.284 OA
HETATM    3  C1  UNK     1       0.596  -0.565   0.844  1.00  0.00     0.126 A 
HETATM    4  C2  UNK     1       1.030  -3.300   1.163  1.00  0.00     0.051 A 
HETATM    5  C4  UNK     1       0.781  -2.735  -0.086  1.00  0.00     0.090 A 
HETATM    6  C5  UNK     1       0.816  -0.983   2.104  1.00  0.00     0.154 A 
HETATM    7  C6  UNK     1       1.056  -2.426   2.346  1.00  0.00     0.221 A 
HETATM    8  C8  UNK     1       1.250  -4.674   1.285  1.00  0.00     0.018 A 
HETATM    9  C10 UNK     1       0.749  -3.543  -1.223  1.00  0.00     0.038 A 
HETATM   10  C12 UNK     1       1.218  -5.480   0.146  1.00  0.00     0.001 A 
HETATM   11  C13 UNK     1       0.968  -4.916  -1.106  1.00  0.00     0.003 A 
ENDROOT
BRANCH   3  12
HETATM   12  C3  UNK     1       0.343   0.849   0.514  1.00  0.00     0.034 A 
HETATM   13  C7  UNK     1      -0.954   1.366   0.499  1.00  0.00     0.081 A 
HETATM   14  C11 UNK     1      -1.168   2.708   0.183  1.00  0.00     0.038 A 
HETATM   15  C15 UNK     1      -0.086   3.535  -0.118  1.00  0.00     0.003 A 
HETATM   16  C14 UNK     1       1.210   3.021  -0.104  1.00  0.00     0.001 A 
HETATM   17  C9  UNK     1       1.424   1.679   0.212  1.00  0.00     0.017 A 
BRANCH  13  18
HETATM   18  O3  UNK     1      -2.029   0.579   0.789  1.00  0.00    -0.355 OA
HETATM   19  C17 UNK     1      -2.647  -0.100  -0.302  1.00  0.00     0.210 C 
ENDBRANCH  13  18
ENDBRANCH   3  12
BRANCH   6  20
HETATM   20  O2  UNK     1       0.814  -0.135   3.190  1.00  0.00    -0.350 OA
HETATM   21  C16 UNK     1      -0.180  -0.514   4.123  1.00  0.00     0.210 C 
ENDBRANCH   6  20
TORSDOF 3
