REMARK  3 active torsions:
REMARK  status: ('A' for Active; 'I' for Inactive)
REMARK    1  A    between atoms: C15_21  and  N1_5 
REMARK    2  A    between atoms: C17_23  and  N2_6 
REMARK    3  A    between atoms: C11_17  and  C4_10 
ROOT
HETATM    1  O1  UNK     1       2.706   1.985   1.125  1.00  0.00    -0.332 OA
HETATM    2  O2  UNK     1       0.122   0.033  -2.508  1.00  0.00    -0.274 OA
HETATM    3  O3  UNK     1       0.857  -0.775   2.540  1.00  0.00    -0.289 OA
HETATM    4  O4  UNK     1      -1.010  -0.898  -4.269  1.00  0.00    -0.260 OA
HETATM    5  C1  UNK     1       2.588   0.797   1.910  1.00  0.00     0.125 C 
HETATM    6  C2  UNK     1       1.308   1.022  -0.626  1.00  0.00     0.048 A 
HETATM    7  C3  UNK     1       1.284   0.019   1.705  1.00  0.00     0.196 C 
HETATM    8  C4  UNK     1       0.587   0.260   0.406  1.00  0.00     0.044 C 
HETATM    9  C5  UNK     1       2.332   1.874  -0.190  1.00  0.00     0.084 A 
HETATM   10  C6  UNK     1       2.652   1.267   3.370  1.00  0.00     0.055 C 
HETATM   11  C7  UNK     1       3.779  -0.128   1.626  1.00  0.00     0.055 C 
HETATM   12  C8  UNK     1       1.072   0.958  -2.010  1.00  0.00     0.103 A 
HETATM   13  C9  UNK     1       1.771   1.757  -2.921  1.00  0.00    -0.001 A 
HETATM   14  C10 UNK     1       3.022   2.697  -1.086  1.00  0.00     0.039 A 
HETATM   15  C12 UNK     1       2.740   2.641  -2.449  1.00  0.00     0.017 A 
HETATM   16  C13 UNK     1       1.474   1.649  -4.341  1.00  0.00     0.020 A 
HETATM   17  C14 UNK     1       0.561   0.781  -4.781  1.00  0.00     0.083 A 
HETATM   18  C16 UNK     1      -0.177  -0.097  -3.860  1.00  0.00     0.288 A 
ENDROOT
BRANCH   8  19
HETATM   19  C11 UNK     1      -0.693  -0.135   0.326  1.00  0.00     0.104 C 
HETATM   20  N1  UNK     1      -1.401  -0.834   1.242  1.00  0.00    -0.363 N 
HETATM   21  H11 UNK     1      -0.943  -1.009   2.127  1.00  0.00     0.165 HD
BRANCH  20  22
HETATM   22  C15 UNK     1      -2.741  -1.260   1.181  1.00  0.00     0.058 A 
HETATM   23  C17 UNK     1      -3.506  -1.406   2.342  1.00  0.00     0.052 A 
HETATM   24  C19 UNK     1      -4.831  -1.832   2.260  1.00  0.00     0.031 A 
HETATM   25  C21 UNK     1      -5.397  -2.115   1.017  1.00  0.00     0.002 A 
HETATM   26  C20 UNK     1      -4.638  -1.972  -0.144  1.00  0.00     0.002 A 
HETATM   27  C18 UNK     1      -3.312  -1.545  -0.062  1.00  0.00     0.032 A 
BRANCH  23  28
HETATM   28  N2  UNK     1      -2.952  -1.126   3.612  1.00  0.00    -0.397 N 
HETATM   29  H17 UNK     1      -3.526  -1.225   4.439  1.00  0.00     0.156 HD
HETATM   30  H18 UNK     1      -2.023  -0.741   3.697  1.00  0.00     0.156 HD
ENDBRANCH  23  28
ENDBRANCH  20  22
ENDBRANCH   8  19
TORSDOF 3
