REMARK  8 active torsions:
REMARK  status: ('A' for Active; 'I' for Inactive)
REMARK    1  A    between atoms: C5_17  and  O1_4 
REMARK    2  A    between atoms: C7_19  and  O1_4 
REMARK    3  A    between atoms: C6_18  and  O2_5 
REMARK    4  A    between atoms: C8_20  and  O2_5 
REMARK       I    between atoms: C6_18  and  N1_12 
REMARK    5  A    between atoms: C1_13  and  C5_17 
REMARK    6  A    between atoms: C18_30  and  C8_20 
REMARK    7  A    between atoms: C13_25  and  C16_28 
REMARK    8  A    between atoms: C17_29  and  C23_35 
ROOT
HETATM    1  O5  UNK     1      -1.263   0.072  -0.498  1.00  0.00    -0.304 OA
HETATM    2  O8  UNK     1      -2.211   1.294   3.265  1.00  0.00    -0.286 OA
HETATM    3  C7  UNK     1       0.937   2.964  -0.259  1.00  0.00     0.082 A 
HETATM    4  C9  UNK     1       0.283   1.835  -0.752  1.00  0.00     0.075 A 
HETATM    5  C10 UNK     1      -0.655   1.173   0.041  1.00  0.00     0.093 A 
HETATM    6  C11 UNK     1      -0.937   1.639   1.320  1.00  0.00     0.049 A 
HETATM    7  C12 UNK     1       0.653   3.431   1.024  1.00  0.00     0.038 A 
HETATM    8  C13 UNK     1      -2.565  -0.274   1.511  1.00  0.00     0.064 A 
HETATM    9  C14 UNK     1      -0.285   2.770   1.818  1.00  0.00     0.021 A 
HETATM   10  C15 UNK     1      -1.928   0.922   2.132  1.00  0.00     0.198 A 
HETATM   11  C17 UNK     1      -2.202  -0.619   0.257  1.00  0.00     0.174 A 
ENDROOT
BRANCH   3  12
HETATM   12  O1  UNK     1       1.876   3.629  -1.052  1.00  0.00    -0.277 OA
BRANCH  12  13
HETATM   13  C5  UNK     1       3.166   3.140  -0.881  1.00  0.00     0.287 C 
HETATM   14  O3  UNK     1       3.520   2.234  -0.138  1.00  0.00    -0.262 OA
BRANCH  13  15
HETATM   15  C1  UNK     1       4.094   3.913  -1.768  1.00  0.00     0.189 C 
HETATM   16  N1  UNK     1       5.183   3.018  -2.132  1.00  0.00    -0.314 N 
HETATM   17  C4  UNK     1       6.423   3.382  -1.454  1.00  0.00     0.129 C 
HETATM   18  C6  UNK     1       5.075   2.051  -3.121  1.00  0.00     0.363 C 
HETATM   19  C3  UNK     1       6.004   4.399  -0.404  1.00  0.00     0.022 C 
HETATM   20  C2  UNK     1       4.772   5.057  -1.022  1.00  0.00     0.037 C 
HETATM   21  O4  UNK     1       6.018   1.384  -3.543  1.00  0.00    -0.238 OA
BRANCH  18  22
HETATM   22  O2  UNK     1       3.790   1.926  -3.577  1.00  0.00    -0.299 OA
BRANCH  22  23
HETATM   23  C8  UNK     1       3.581   0.950  -4.603  1.00  0.00     0.219 C 
BRANCH  23  24
HETATM   24  C18 UNK     1       2.187   0.407  -4.486  1.00  0.00    -0.034 A 
HETATM   25  C27 UNK     1       1.939  -0.711  -3.690  1.00  0.00     0.009 A 
HETATM   26  C29 UNK     1       0.643  -1.216  -3.580  1.00  0.00     0.001 A 
HETATM   27  C31 UNK     1      -0.404  -0.603  -4.267  1.00  0.00     0.000 A 
HETATM   28  C30 UNK     1      -0.157   0.515  -5.064  1.00  0.00     0.001 A 
HETATM   29  C28 UNK     1       1.139   1.020  -5.173  1.00  0.00     0.009 A 
ENDBRANCH  23  24
ENDBRANCH  22  23
ENDBRANCH  18  22
ENDBRANCH  13  15
ENDBRANCH  12  13
ENDBRANCH   3  12
BRANCH  11  30
HETATM   30  C23 UNK     1      -2.754  -1.795  -0.501  1.00  0.00     0.440 C 
HETATM   31  F1  UNK     1      -3.662  -2.456   0.242  1.00  0.00    -0.164 F 
HETATM   32  F2  UNK     1      -3.356  -1.392  -1.636  1.00  0.00    -0.164 F 
HETATM   33  F3  UNK     1      -1.775  -2.658  -0.831  1.00  0.00    -0.164 F 
ENDBRANCH  11  30
BRANCH   8  34
HETATM   34  C16 UNK     1      -3.555  -1.029   2.267  1.00  0.00    -0.016 A 
HETATM   35  C19 UNK     1      -3.151  -2.087   3.082  1.00  0.00     0.052 A 
HETATM   36  C20 UNK     1      -4.101  -2.803   3.811  1.00  0.00     0.102 A 
HETATM   37  O6  UNK     1      -3.640  -3.818   4.609  1.00  0.00    -0.346 OA
HETATM   38  C22 UNK     1      -5.455  -2.480   3.702  1.00  0.00     0.102 A 
HETATM   39  C25 UNK     1      -4.627  -4.243   5.553  1.00  0.00     0.202 C 
HETATM   40  C26 UNK     1      -5.968  -4.421   4.868  1.00  0.00     0.202 C 
HETATM   41  O7  UNK     1      -6.438  -3.166   4.367  1.00  0.00    -0.346 OA
HETATM   42  C24 UNK     1      -5.857  -1.413   2.898  1.00  0.00     0.040 A 
HETATM   43  C21 UNK     1      -4.906  -0.689   2.180  1.00  0.00     0.015 A 
ENDBRANCH   8  34
TORSDOF 8
