REMARK  8 active torsions:
REMARK  status: ('A' for Active; 'I' for Inactive)
REMARK    1  A    between atoms: C5_14  and  O1_1 
REMARK    2  A    between atoms: C7_16  and  O1_1 
REMARK    3  A    between atoms: C11_20  and  O2_2 
REMARK    4  A    between atoms: C6_15  and  O2_2 
REMARK    5  A    between atoms: C2_11  and  N1_9 
REMARK       I    between atoms: C7_16  and  N1_9 
REMARK    6  A    between atoms: C1_10  and  C2_11 
REMARK    7  A    between atoms: C2_11  and  C6_15 
REMARK    8  A    between atoms: C13_22  and  C15_24 
ROOT
HETATM    1  O4  UNK     1      -1.188   0.952   1.163  1.00  0.00    -0.321 OA
HETATM    2  O8  UNK     1      -2.750  -2.506  -0.337  1.00  0.00    -0.286 OA
HETATM    3  C11 UNK     1       1.105   0.434  -1.621  1.00  0.00     0.082 A 
HETATM    4  C12 UNK     1      -1.104  -0.830  -0.483  1.00  0.00     0.049 A 
HETATM    5  C13 UNK     1      -2.849  -0.811   1.333  1.00  0.00     0.048 A 
HETATM    6  C14 UNK     1      -0.620   0.358   0.066  1.00  0.00     0.091 A 
HETATM    7  C16 UNK     1       0.486   0.991  -0.503  1.00  0.00     0.075 A 
HETATM    8  C17 UNK     1      -2.276  -1.479   0.132  1.00  0.00     0.197 A 
HETATM    9  C19 UNK     1       0.621  -0.754  -2.170  1.00  0.00     0.038 A 
HETATM   10  C20 UNK     1      -0.484  -1.390  -1.604  1.00  0.00     0.021 A 
HETATM   11  C24 UNK     1      -2.266   0.327   1.740  1.00  0.00     0.159 A 
ENDROOT
BRANCH   3  12
HETATM   12  O2  UNK     1       2.213   1.065  -2.192  1.00  0.00    -0.277 OA
BRANCH  12  13
HETATM   13  C6  UNK     1       1.872   1.981  -3.180  1.00  0.00     0.287 C 
HETATM   14  O3  UNK     1       0.733   2.243  -3.553  1.00  0.00    -0.262 OA
BRANCH  13  15
HETATM   15  C2  UNK     1       3.111   2.646  -3.775  1.00  0.00     0.190 C 
BRANCH  15  16
HETATM   16  C1  UNK     1       3.203   2.383  -5.294  1.00  0.00     0.010 C 
HETATM   17  C3  UNK     1       4.407   3.102  -5.911  1.00  0.00     0.012 C 
HETATM   18  C4  UNK     1       3.252   0.891  -5.639  1.00  0.00     0.012 C 
ENDBRANCH  15  16
BRANCH  15  19
HETATM   19  N1  UNK     1       4.311   2.260  -3.076  1.00  0.00    -0.323 N 
HETATM   20  C7  UNK     1       4.760   2.875  -1.924  1.00  0.00     0.362 C 
HETATM   21  O7  UNK     1       4.210   3.812  -1.353  1.00  0.00    -0.238 OA
HETATM   22  H9  UNK     1       4.835   1.458  -3.408  1.00  0.00     0.165 HD
BRANCH  20  23
HETATM   23  O1  UNK     1       5.918   2.284  -1.505  1.00  0.00    -0.294 OA
BRANCH  23  24
HETATM   24  C5  UNK     1       6.500   2.824  -0.313  1.00  0.00     0.061 C 
HETATM   25  C10 UNK     1       5.495   2.678   0.828  1.00  0.00     0.046 C 
HETATM   26  C9  UNK     1       7.768   2.026  -0.018  1.00  0.00     0.046 C 
HETATM   27  C8  UNK     1       6.836   4.294  -0.559  1.00  0.00     0.046 C 
ENDBRANCH  23  24
ENDBRANCH  20  23
ENDBRANCH  15  19
ENDBRANCH  13  15
ENDBRANCH  12  13
ENDBRANCH   3  12
BRANCH   5  28
HETATM   28  C15 UNK     1      -3.995  -1.375   2.065  1.00  0.00    -0.017 A 
HETATM   29  C21 UNK     1      -3.905  -2.649   2.625  1.00  0.00     0.052 A 
HETATM   30  C18 UNK     1      -4.990  -3.177   3.325  1.00  0.00     0.102 A 
HETATM   31  O5  UNK     1      -4.834  -4.425   3.870  1.00  0.00    -0.346 OA
HETATM   32  C22 UNK     1      -6.174  -2.444   3.439  1.00  0.00     0.102 A 
HETATM   33  C26 UNK     1      -5.848  -4.716   4.836  1.00  0.00     0.202 C 
HETATM   34  C27 UNK     1      -7.213  -4.333   4.296  1.00  0.00     0.202 C 
HETATM   35  O6  UNK     1      -7.284  -2.921   4.085  1.00  0.00    -0.346 OA
HETATM   36  C25 UNK     1      -6.258  -1.164   2.890  1.00  0.00     0.040 A 
HETATM   37  C23 UNK     1      -5.168  -0.631   2.202  1.00  0.00     0.015 A 
ENDBRANCH   5  28
TORSDOF 8
