REMARK  1 active torsions:
REMARK  status: ('A' for Active; 'I' for Inactive)
REMARK       I    between atoms: C6_11  and  N1_5 
REMARK    1  A    between atoms: C6_11  and  C9_14 
ROOT
HETATM    1 Cl1  UNK     1      -6.173  -2.306   0.115  1.00  0.00    -0.084 Cl
HETATM    2  O2  UNK     1      -0.948  -1.054   2.548  1.00  0.00    -0.274 OA
HETATM    3  O3  UNK     1       1.039   0.073   2.510  1.00  0.00    -0.259 OA
HETATM    4  C9  UNK     1      -0.442   0.470   0.704  1.00  0.00     0.108 A 
HETATM    5  C12 UNK     1      -1.620   0.206   0.127  1.00  0.00     0.037 A 
HETATM    6  C13 UNK     1      -2.548  -0.726   0.747  1.00  0.00     0.001 A 
HETATM    7  C14 UNK     1      -0.039  -0.166   1.978  1.00  0.00     0.304 A 
HETATM    8  C15 UNK     1      -2.190  -1.335   1.946  1.00  0.00     0.089 A 
HETATM    9  C16 UNK     1      -3.788  -1.031   0.181  1.00  0.00     0.038 A 
HETATM   10  C17 UNK     1      -3.033  -2.237   2.592  1.00  0.00     0.040 A 
HETATM   11  C18 UNK     1      -4.645  -1.934   0.817  1.00  0.00     0.035 A 
HETATM   12  C19 UNK     1      -4.268  -2.535   2.020  1.00  0.00     0.026 A 
ENDROOT
BRANCH   4  13
HETATM   13  C6  UNK     1       0.432   1.430  -0.004  1.00  0.00     0.264 C 
HETATM   14  O1  UNK     1       0.294   2.622   0.273  1.00  0.00    -0.267 OA
HETATM   15  N1  UNK     1       1.316   0.901  -0.931  1.00  0.00    -0.308 N 
HETATM   16  C1  UNK     1       1.516  -0.535  -1.297  1.00  0.00     0.093 C 
HETATM   17  C4  UNK     1       2.219   1.668  -1.710  1.00  0.00     0.044 A 
HETATM   18  C2  UNK     1       2.304  -0.538  -2.624  1.00  0.00     0.066 C 
HETATM   19  C5  UNK     1       2.298  -1.277  -0.207  1.00  0.00     0.033 C 
HETATM   20  C3  UNK     1       2.839   0.857  -2.665  1.00  0.00    -0.029 A 
HETATM   21  C7  UNK     1       3.767   1.371  -3.558  1.00  0.00     0.009 A 
HETATM   22  C10 UNK     1       4.083   2.726  -3.479  1.00  0.00     0.001 A 
HETATM   23  C11 UNK     1       3.463   3.545  -2.525  1.00  0.00     0.002 A 
HETATM   24  C8  UNK     1       2.521   3.020  -1.634  1.00  0.00     0.030 A 
ENDBRANCH   4  13
TORSDOF 1
