REMARK  3 active torsions:
REMARK  status: ('A' for Active; 'I' for Inactive)
REMARK    1  A    between atoms: C6_12  and  O2_3 
REMARK    2  A    between atoms: C1_7  and  C4_10 
REMARK    3  A    between atoms: C2_8  and  C6_12 
ROOT
HETATM    1  O1  UNK     1      -1.439  -0.061   2.570  1.00  0.00    -0.321 OA
HETATM    2  O3  UNK     1      -0.263  -0.664  -1.291  1.00  0.00    -0.287 OA
HETATM    3  C4  UNK     1       0.244   0.232   0.849  1.00  0.00     0.058 A 
HETATM    4  C5  UNK     1      -0.613  -0.481  -0.132  1.00  0.00     0.196 A 
HETATM    5  C7  UNK     1      -1.915  -0.961   0.365  1.00  0.00     0.049 A 
HETATM    6  C8  UNK     1      -0.230   0.381   2.093  1.00  0.00     0.156 A 
HETATM    7  C9  UNK     1      -2.263  -0.725   1.696  1.00  0.00     0.089 A 
HETATM    8  C10 UNK     1      -2.794  -1.643  -0.481  1.00  0.00     0.018 A 
HETATM    9  C11 UNK     1      -3.490  -1.170   2.187  1.00  0.00     0.038 A 
HETATM   10  C12 UNK     1      -4.021  -2.087   0.014  1.00  0.00     0.001 A 
HETATM   11  C13 UNK     1      -4.368  -1.851   1.345  1.00  0.00     0.003 A 
ENDROOT
BRANCH   3  12
HETATM   12  C1  UNK     1       1.572   0.740   0.398  1.00  0.00     0.322 C 
HETATM   13  N1  UNK     1       1.479   1.684  -0.726  1.00  0.00     0.117 N 
HETATM   14  C2  UNK     1       2.802   1.670  -1.370  1.00  0.00     0.328 C 
HETATM   15  H5  UNK     1       0.797   1.330  -1.398  1.00  0.00     0.319 HD
HETATM   16  C3  UNK     1       3.183   0.220  -1.627  1.00  0.00     0.123 C 
HETATM   17  S1  UNK     1       2.629  -0.641  -0.135  1.00  0.00    -0.126 SA
BRANCH  14  18
HETATM   18  C6  UNK     1       2.684   2.444  -2.642  1.00  0.00     0.175 C 
HETATM   19  O4  UNK     1       1.657   2.962  -3.055  1.00  0.00    -0.648 OA
BRANCH  18  20
HETATM   20  O2  UNK     1       3.876   2.493  -3.285  1.00  0.00    -0.775 OA
HETATM   21  H11 UNK     1       3.818   2.996  -4.126  1.00  0.00     0.167 HD
ENDBRANCH  18  20
ENDBRANCH  14  18
ENDBRANCH   3  12
TORSDOF 3
