REMARK  7 active torsions:
REMARK  status: ('A' for Active; 'I' for Inactive)
REMARK    1  A    between atoms: C5_13  and  O2_2 
REMARK    2  A    between atoms: C7_15  and  O2_2 
REMARK    3  A    between atoms: C1_9  and  O3_3 
REMARK    4  A    between atoms: C2_10  and  O4_4 
REMARK    5  A    between atoms: C3_11  and  O5_5 
REMARK    6  A    between atoms: C6_14  and  O6_6 
REMARK    7  A    between atoms: C4_12  and  C6_14 
ROOT
HETATM    1  O1  UNK     1       1.888   0.367  -2.002  1.00  0.00    -0.348 OA
HETATM    2  C1  UNK     1       3.657   2.086  -0.498  1.00  0.00     0.183 C 
HETATM    3  C2  UNK     1       3.494   2.187  -2.019  1.00  0.00     0.180 C 
HETATM    4  C3  UNK     1       3.294   0.679  -0.017  1.00  0.00     0.205 C 
HETATM    5  C4  UNK     1       2.104   1.709  -2.449  1.00  0.00     0.179 C 
HETATM    6  C5  UNK     1       1.947   0.206  -0.582  1.00  0.00     0.298 C 
ENDROOT
BRANCH   6   7
HETATM    7  O2  UNK     1       0.881   0.881   0.079  1.00  0.00    -0.318 OA
BRANCH   7   8
HETATM    8  C7  UNK     1      -0.295   0.192   0.211  1.00  0.00     0.074 A 
HETATM    9  C8  UNK     1      -0.806  -0.064   1.475  1.00  0.00     0.075 A 
HETATM   10  C11 UNK     1      -2.007  -0.767   1.587  1.00  0.00     0.092 A 
HETATM   11  C10 UNK     1      -2.711  -1.223   0.472  1.00  0.00     0.004 A 
HETATM   12  O7  UNK     1      -2.482  -1.000   2.893  1.00  0.00    -0.275 OA
HETATM   13  C12 UNK     1      -2.172  -0.951  -0.793  1.00  0.00     0.017 A 
HETATM   14  C13 UNK     1      -3.967  -1.955   0.683  1.00  0.00    -0.043 A 
HETATM   15  C9  UNK     1      -0.970  -0.246  -0.922  1.00  0.00     0.038 A 
HETATM   16  C14 UNK     1      -4.394  -2.162   1.937  1.00  0.00     0.090 A 
HETATM   17  C15 UNK     1      -4.747  -2.459  -0.496  1.00  0.00     0.049 C 
HETATM   18  C16 UNK     1      -3.663  -1.687   3.124  1.00  0.00     0.288 A 
HETATM   19  O8  UNK     1      -4.085  -1.895   4.256  1.00  0.00    -0.260 OA
ENDBRANCH   7   8
ENDBRANCH   6   7
BRANCH   4  20
HETATM   20  O5  UNK     1       4.320  -0.216  -0.443  1.00  0.00    -0.388 OA
HETATM   21  H10 UNK     1       4.107  -1.096  -0.089  1.00  0.00     0.210 HD
ENDBRANCH   4  20
BRANCH   2  22
HETATM   22  O3  UNK     1       2.803   3.042   0.129  1.00  0.00    -0.390 OA
HETATM   23  H8  UNK     1       3.037   3.917  -0.223  1.00  0.00     0.210 HD
ENDBRANCH   2  22
BRANCH   5  24
HETATM   24  C6  UNK     1       1.952   1.712  -3.967  1.00  0.00     0.198 C 
BRANCH  24  25
HETATM   25  O6  UNK     1       0.653   1.250  -4.291  1.00  0.00    -0.398 OA
HETATM   26  H11 UNK     1       0.013   1.869  -3.900  1.00  0.00     0.209 HD
ENDBRANCH  24  25
ENDBRANCH   5  24
BRANCH   3  27
HETATM   27  O4  UNK     1       3.704   3.528  -2.444  1.00  0.00    -0.390 OA
HETATM   28  H9  UNK     1       4.594   3.792  -2.154  1.00  0.00     0.210 HD
ENDBRANCH   3  27
TORSDOF 7
