REMARK  4 active torsions:
REMARK  status: ('A' for Active; 'I' for Inactive)
REMARK    1  A    between atoms: C1_12  and  N1_11 
REMARK       I    between atoms: C11_22  and  N1_11 
REMARK    2  A    between atoms: C12_23  and  C2_13 
REMARK    3  A    between atoms: C13_24  and  C3_14 
REMARK    4  A    between atoms: C11_22  and  C8_19 
ROOT
HETATM    1  O2  UNK     1       1.325   0.190   1.170  1.00  0.00    -0.267 OA
HETATM    2  N1  UNK     1      -0.420  -0.103  -0.385  1.00  0.00    -0.323 N 
HETATM    3  C11 UNK     1       0.857   0.246   0.034  1.00  0.00     0.262 C 
HETATM    4  H4  UNK     1      -0.658   0.024  -1.366  1.00  0.00     0.169 HD
ENDROOT
BRANCH   2   5
HETATM    5  C1  UNK     1      -1.482  -0.604   0.407  1.00  0.00     0.036 A 
HETATM    6  C4  UNK     1      -1.284  -0.791   1.764  1.00  0.00     0.045 A 
HETATM    7  C3  UNK     1      -2.330  -1.285   2.544  1.00  0.00     0.050 A 
HETATM    8  C6  UNK     1      -3.558  -1.584   1.954  1.00  0.00     0.032 A 
HETATM    9  C2  UNK     1      -3.740  -1.390   0.585  1.00  0.00     0.050 A 
HETATM   10  C5  UNK     1      -2.694  -0.897  -0.195  1.00  0.00     0.045 A 
BRANCH   7  11
HETATM   11  C13 UNK     1      -2.135  -1.492   4.008  1.00  0.00     0.417 C 
HETATM   12  F4  UNK     1      -3.242  -1.979   4.644  1.00  0.00    -0.166 F 
HETATM   13  F5  UNK     1      -1.136  -2.374   4.307  1.00  0.00    -0.166 F 
HETATM   14  F6  UNK     1      -1.814  -0.339   4.664  1.00  0.00    -0.166 F 
ENDBRANCH   7  11
BRANCH   9  15
HETATM   15  C12 UNK     1      -5.053  -1.710  -0.045  1.00  0.00     0.417 C 
HETATM   16  F1  UNK     1      -5.983  -2.184   0.837  1.00  0.00    -0.166 F 
HETATM   17  F2  UNK     1      -5.647  -0.637  -0.646  1.00  0.00    -0.166 F 
HETATM   18  F3  UNK     1      -4.951  -2.664  -1.016  1.00  0.00    -0.166 F 
ENDBRANCH   9  15
ENDBRANCH   2   5
BRANCH   3  19
HETATM   19  C8  UNK     1       1.691   0.728  -1.074  1.00  0.00     0.108 A 
HETATM   20  C14 UNK     1       1.504   0.251  -2.463  1.00  0.00     0.304 A 
HETATM   21  O1  UNK     1       2.357   0.782  -3.426  1.00  0.00    -0.274 OA
HETATM   22  O3  UNK     1       0.643  -0.572  -2.755  1.00  0.00    -0.259 OA
HETATM   23  C10 UNK     1       3.349   1.728  -3.100  1.00  0.00     0.089 A 
HETATM   24  C7  UNK     1       3.507   2.163  -1.789  1.00  0.00     0.001 A 
HETATM   25  C16 UNK     1       4.155   2.203  -4.134  1.00  0.00     0.040 A 
HETATM   26  C15 UNK     1       4.502   3.102  -1.505  1.00  0.00     0.038 A 
HETATM   27  C9  UNK     1       2.632   1.626  -0.759  1.00  0.00     0.037 A 
HETATM   28  C17 UNK     1       5.318   3.587  -2.531  1.00  0.00     0.035 A 
HETATM   29 Cl1  UNK     1       6.544   4.744  -2.177  1.00  0.00    -0.084 Cl
HETATM   30  C18 UNK     1       5.145   3.139  -3.842  1.00  0.00     0.026 A 
ENDBRANCH   3  19
TORSDOF 4
