REMARK  5 active torsions:
REMARK  status: ('A' for Active; 'I' for Inactive)
REMARK    1  A    between atoms: C11_15  and  O1_1 
REMARK    2  A    between atoms: C17_21  and  O1_1 
REMARK    3  A    between atoms: C12_16  and  O4_4 
REMARK    4  A    between atoms: C6_10  and  C7_11 
REMARK    5  A    between atoms: C17_21  and  C18_22 
ROOT
HETATM    1  C7  UNK     1       0.036  -0.355  -1.758  1.00  0.00    -0.032 A 
HETATM    2  C10 UNK     1      -1.202   0.266  -1.758  1.00  0.00     0.051 A 
HETATM    3  C11 UNK     1      -1.941  -1.280  -0.055  1.00  0.00     0.102 A 
HETATM    4  C12 UNK     1      -2.197  -0.201  -0.900  1.00  0.00     0.102 A 
HETATM    5  C13 UNK     1       0.308  -1.428  -0.927  1.00  0.00     0.014 A 
HETATM    6  C14 UNK     1      -0.688  -1.894  -0.068  1.00  0.00     0.040 A 
ENDROOT
BRANCH   1   7
HETATM    7  C6  UNK     1       1.089   0.139  -2.666  1.00  0.00     0.031 C 
HETATM    8  C1  UNK     1       1.976   1.094  -2.389  1.00  0.00     0.067 A 
HETATM    9  C4  UNK     1       3.029   1.574  -3.320  1.00  0.00     0.197 A 
HETATM   10  C5  UNK     1       2.057   1.834  -1.104  1.00  0.00     0.197 A 
HETATM   11  C2  UNK     1       3.738   2.616  -2.563  1.00  0.00     0.029 A 
HETATM   12  O2  UNK     1       3.262   1.202  -4.449  1.00  0.00    -0.286 OA
HETATM   13  C3  UNK     1       3.179   2.765  -1.289  1.00  0.00     0.029 A 
HETATM   14  C8  UNK     1       4.810   3.382  -2.977  1.00  0.00     0.016 A 
HETATM   15  C9  UNK     1       3.673   3.685  -0.384  1.00  0.00     0.016 A 
HETATM   16  C16 UNK     1       4.758   4.467  -0.790  1.00  0.00     0.001 A 
HETATM   17  C15 UNK     1       5.321   4.317  -2.073  1.00  0.00     0.001 A 
HETATM   18  O3  UNK     1       1.363   1.709  -0.119  1.00  0.00    -0.286 OA
ENDBRANCH   1   7
BRANCH   4  19
HETATM   19  O4  UNK     1      -3.417   0.407  -0.896  1.00  0.00    -0.353 OA
HETATM   20  C24 UNK     1      -3.595   1.496   0.007  1.00  0.00     0.210 C 
ENDBRANCH   4  19
BRANCH   3  21
HETATM   21  O1  UNK     1      -2.905  -1.745   0.787  1.00  0.00    -0.344 OA
BRANCH  21  22
HETATM   22  C17 UNK     1      -2.468  -2.334   2.011  1.00  0.00     0.214 C 
BRANCH  22  23
HETATM   23  C18 UNK     1      -3.530  -2.142   3.053  1.00  0.00    -0.034 A 
HETATM   24  C19 UNK     1      -3.510  -1.006   3.855  1.00  0.00     0.009 A 
HETATM   25  C21 UNK     1      -4.496  -0.827   4.825  1.00  0.00     0.001 A 
HETATM   26  C23 UNK     1      -5.497  -1.786   4.986  1.00  0.00     0.000 A 
HETATM   27  C22 UNK     1      -5.511  -2.922   4.178  1.00  0.00     0.001 A 
HETATM   28  C20 UNK     1      -4.524  -3.101   3.209  1.00  0.00     0.009 A 
ENDBRANCH  22  23
ENDBRANCH  21  22
ENDBRANCH   3  21
TORSDOF 5
