REMARK  4 active torsions:
REMARK  status: ('A' for Active; 'I' for Inactive)
REMARK    1  A    between atoms: C4_9  and  O2_2 
REMARK    2  A    between atoms: C9_14  and  O2_2 
REMARK    3  A    between atoms: C8_13  and  O4_4 
REMARK    4  A    between atoms: C13_18  and  O5_5 
ROOT
HETATM    1  O1  UNK     1       1.858   2.405   0.312  1.00  0.00    -0.319 OA
HETATM    2  O3  UNK     1       0.686  -1.418  -0.513  1.00  0.00    -0.284 OA
HETATM    3  C1  UNK     1       1.746   0.557  -1.265  1.00  0.00     0.051 A 
HETATM    4  C2  UNK     1       2.120   1.857  -0.921  1.00  0.00     0.091 A 
HETATM    5  C3  UNK     1       1.039  -0.272  -0.272  1.00  0.00     0.220 A 
HETATM    6  C4  UNK     1       0.782   0.366   1.039  1.00  0.00     0.149 A 
HETATM    7  C5  UNK     1       2.040   0.052  -2.534  1.00  0.00     0.021 A 
HETATM    8  C6  UNK     1       2.790   2.659  -1.845  1.00  0.00     0.074 A 
HETATM    9  C7  UNK     1       1.199   1.621   1.228  1.00  0.00     0.184 A 
HETATM   10  C8  UNK     1       3.085   2.157  -3.113  1.00  0.00     0.068 A 
HETATM   11  C10 UNK     1       2.710   0.857  -3.456  1.00  0.00     0.037 A 
ENDROOT
BRANCH   6  12
HETATM   12  O2  UNK     1       0.128  -0.341   2.021  1.00  0.00    -0.305 OA
BRANCH  12  13
HETATM   13  C9  UNK     1      -1.135  -0.779   1.734  1.00  0.00     0.076 A 
HETATM   14  C11 UNK     1      -2.042   0.081   1.123  1.00  0.00     0.040 A 
HETATM   15  C14 UNK     1      -3.331  -0.365   0.831  1.00  0.00     0.039 A 
HETATM   16  C13 UNK     1      -3.707  -1.670   1.152  1.00  0.00     0.068 A 
HETATM   17  C15 UNK     1      -2.793  -2.528   1.764  1.00  0.00     0.039 A 
HETATM   18  C12 UNK     1      -1.504  -2.081   2.056  1.00  0.00     0.040 A 
BRANCH  16  19
HETATM   19  O5  UNK     1      -4.964  -2.106   0.867  1.00  0.00    -0.356 OA
HETATM   20  C16 UNK     1      -5.847  -1.176   0.241  1.00  0.00     0.210 C 
ENDBRANCH  16  19
ENDBRANCH  12  13
ENDBRANCH   6  12
BRANCH  10  21
HETATM   21  O4  UNK     1       3.738   2.936  -4.018  1.00  0.00    -0.361 OA
HETATM   22  H9  UNK     1       3.859   2.431  -4.840  1.00  0.00     0.217 HD
ENDBRANCH  10  21
TORSDOF 4
