REMARK  3 active torsions:
REMARK  status: ('A' for Active; 'I' for Inactive)
REMARK    1  A    between atoms: C13_16  and  O3_3 
REMARK    2  A    between atoms: C1_4  and  C4_7 
REMARK    3  A    between atoms: C3_6  and  C6_9 
ROOT
HETATM    1  O1  UNK     1       0.577  -0.098  -2.853  1.00  0.00    -0.274 OA
HETATM    2  O2  UNK     1      -1.149  -1.577  -2.800  1.00  0.00    -0.259 OA
HETATM    3  C1  UNK     1       0.003   0.563  -0.146  1.00  0.00     0.004 A 
HETATM    4  C2  UNK     1       1.110   1.214  -0.879  1.00  0.00     0.010 A 
HETATM    5  C3  UNK     1      -0.743  -0.365  -0.795  1.00  0.00     0.062 A 
HETATM    6  C5  UNK     1       1.360   0.864  -2.200  1.00  0.00     0.093 A 
HETATM    7  C7  UNK     1      -0.472  -0.737  -2.215  1.00  0.00     0.300 A 
HETATM    8  C8  UNK     1       1.939   2.185  -0.296  1.00  0.00     0.018 A 
HETATM    9  C9  UNK     1       2.391   1.443  -2.944  1.00  0.00     0.074 A 
HETATM   10  C12 UNK     1       2.976   2.776  -1.027  1.00  0.00     0.037 A 
HETATM   11  C13 UNK     1       3.202   2.404  -2.350  1.00  0.00     0.068 A 
ENDROOT
BRANCH   3  12
HETATM   12  C4  UNK     1      -0.332   0.870   1.250  1.00  0.00    -0.024 A 
HETATM   13  C10 UNK     1      -1.244   1.880   1.528  1.00  0.00     0.012 A 
HETATM   14  C16 UNK     1      -1.562   2.172   2.854  1.00  0.00     0.001 A 
HETATM   15  C20 UNK     1      -0.966   1.452   3.889  1.00  0.00     0.000 A 
HETATM   16  C17 UNK     1      -0.051   0.440   3.599  1.00  0.00     0.001 A 
HETATM   17  C11 UNK     1       0.267   0.147   2.273  1.00  0.00     0.012 A 
ENDBRANCH   3  12
BRANCH   5  18
HETATM   18  C6  UNK     1      -1.852  -1.042  -0.121  1.00  0.00    -0.019 A 
HETATM   19  C14 UNK     1      -3.128  -0.494  -0.176  1.00  0.00     0.012 A 
HETATM   20  C18 UNK     1      -4.185  -1.138   0.467  1.00  0.00     0.001 A 
HETATM   21  C21 UNK     1      -3.958  -2.328   1.160  1.00  0.00     0.000 A 
HETATM   22  C19 UNK     1      -2.675  -2.872   1.210  1.00  0.00     0.001 A 
HETATM   23  C15 UNK     1      -1.618  -2.227   0.568  1.00  0.00     0.012 A 
ENDBRANCH   5  18
BRANCH  11  24
HETATM   24  O3  UNK     1       4.211   2.980  -3.058  1.00  0.00    -0.361 OA
HETATM   25  H14 UNK     1       4.669   3.622  -2.489  1.00  0.00     0.217 HD
ENDBRANCH  11  24
TORSDOF 3
