REMARK  4 active torsions:
REMARK  status: ('A' for Active; 'I' for Inactive)
REMARK    1  A    between atoms: C10_15  and  O2_2 
REMARK    2  A    between atoms: C3_8  and  O2_2 
REMARK    3  A    between atoms: C12_17  and  O4_4 
REMARK    4  A    between atoms: C12_17  and  C7_12 
ROOT
HETATM    1  O1  UNK     1      -0.468  -0.124  -1.200  1.00  0.00    -0.271 OA
HETATM    2  O3  UNK     1      -2.557  -1.006  -1.479  1.00  0.00    -0.259 OA
HETATM    3  C1  UNK     1       0.406   0.203   1.045  1.00  0.00     0.002 A 
HETATM    4  C2  UNK     1       0.561   0.296  -0.334  1.00  0.00     0.123 A 
HETATM    5  C3  UNK     1       1.724   0.803  -0.910  1.00  0.00     0.103 A 
HETATM    6  C4  UNK     1      -0.835  -0.335   1.579  1.00  0.00     0.039 A 
HETATM    7  C5  UNK     1       1.449   0.630   1.871  1.00  0.00     0.014 A 
HETATM    8  C6  UNK     1       2.759   1.227  -0.080  1.00  0.00     0.040 A 
HETATM    9  C7  UNK     1      -1.809  -0.733   0.752  1.00  0.00     0.114 A 
HETATM   10  C8  UNK     1       2.623   1.141   1.308  1.00  0.00     0.004 A 
HETATM   11  C9  UNK     1      -1.667  -0.643  -0.718  1.00  0.00     0.305 A 
ENDROOT
BRANCH   9  12
HETATM   12  C12 UNK     1      -3.023  -1.261   1.386  1.00  0.00     0.182 C 
HETATM   13  O5  UNK     1      -3.437  -0.914   2.476  1.00  0.00    -0.646 OA
BRANCH  12  14
HETATM   14  O4  UNK     1      -3.591  -2.178   0.576  1.00  0.00    -0.772 OA
HETATM   15  H10 UNK     1      -4.408  -2.557   0.963  1.00  0.00     0.167 HD
ENDBRANCH  12  14
ENDBRANCH   9  12
BRANCH   5  16
HETATM   16  O2  UNK     1       1.861   0.888  -2.260  1.00  0.00    -0.349 OA
BRANCH  16  17
HETATM   17  C10 UNK     1       2.685   1.939  -2.765  1.00  0.00     0.171 C 
HETATM   18  C11 UNK     1       2.183   2.344  -4.135  1.00  0.00     0.034 C 
ENDBRANCH  16  17
ENDBRANCH   5  16
TORSDOF 4
