REMARK  8 active torsions:
REMARK  status: ('A' for Active; 'I' for Inactive)
REMARK    1  A    between atoms: C2_8  and  O1_1 
REMARK    2  A    between atoms: C9_15  and  O1_1 
REMARK    3  A    between atoms: C5_11  and  O2_2 
REMARK    4  A    between atoms: C7_13  and  O2_2 
REMARK    5  A    between atoms: C15_21  and  O4_4 
REMARK    6  A    between atoms: C16_22  and  O4_4 
REMARK    7  A    between atoms: C1_7  and  C2_8 
REMARK    8  A    between atoms: C5_11  and  C9_15 
ROOT
HETATM    1  O3  UNK     1       0.390  -1.682  -0.371  1.00  0.00    -0.319 OA
HETATM    2  O6  UNK     1      -1.925  -0.801   2.875  1.00  0.00    -0.284 OA
HETATM    3  C6  UNK     1      -0.118  -0.187   1.479  1.00  0.00     0.051 A 
HETATM    4  C7  UNK     1       1.988   1.435   0.642  1.00  0.00     0.072 A 
HETATM    5  C8  UNK     1       0.637  -0.545   0.359  1.00  0.00     0.092 A 
HETATM    6  C10 UNK     1       1.691   0.266  -0.060  1.00  0.00     0.075 A 
HETATM    7  C11 UNK     1       0.178   0.982   2.184  1.00  0.00     0.021 A 
HETATM    8  C12 UNK     1       1.234   1.791   1.761  1.00  0.00     0.038 A 
HETATM    9  C13 UNK     1      -1.228  -1.060   1.904  1.00  0.00     0.220 A 
HETATM   10  C15 UNK     1      -1.450  -2.271   1.081  1.00  0.00     0.149 A 
HETATM   11  C19 UNK     1      -0.647  -2.485   0.035  1.00  0.00     0.184 A 
ENDROOT
BRANCH   4  12
HETATM   12  O2  UNK     1       3.017   2.229   0.236  1.00  0.00    -0.336 OA
BRANCH  12  13
HETATM   13  C5  UNK     1       2.937   2.771  -1.081  1.00  0.00     0.224 C 
HETATM   14  C14 UNK     1       2.957   4.286  -0.969  1.00  0.00     0.051 C 
BRANCH  13  15
HETATM   15  C9  UNK     1       4.114   2.261  -1.888  1.00  0.00     0.288 C 
HETATM   16  O5  UNK     1       4.998   1.539  -1.445  1.00  0.00    -0.262 OA
BRANCH  15  17
HETATM   17  O1  UNK     1       4.017   2.706  -3.175  1.00  0.00    -0.319 OA
BRANCH  17  18
HETATM   18  C2  UNK     1       5.056   2.272  -4.058  1.00  0.00     0.182 C 
BRANCH  18  19
HETATM   19  C1  UNK     1       4.821   2.843  -5.459  1.00  0.00     0.002 C 
HETATM   20  C3  UNK     1       5.870   2.312  -6.434  1.00  0.00     0.011 C 
HETATM   21  C4  UNK     1       4.834   4.373  -5.447  1.00  0.00     0.011 C 
ENDBRANCH  18  19
ENDBRANCH  17  18
ENDBRANCH  15  17
ENDBRANCH  13  15
ENDBRANCH  12  13
ENDBRANCH   4  12
BRANCH  10  22
HETATM   22  O4  UNK     1      -2.466  -3.136   1.411  1.00  0.00    -0.305 OA
BRANCH  22  23
HETATM   23  C16 UNK     1      -3.737  -2.631   1.413  1.00  0.00     0.077 A 
HETATM   24  C20 UNK     1      -4.597  -2.929   2.466  1.00  0.00     0.044 A 
HETATM   25  C18 UNK     1      -5.893  -2.414   2.468  1.00  0.00    -0.059 A 
HETATM   26  C22 UNK     1      -6.324  -1.604   1.417  1.00  0.00     0.013 A 
HETATM   27  C24 UNK     1      -6.819  -2.729   3.594  1.00  0.00     0.048 C 
HETATM   28  C17 UNK     1      -5.458  -1.308   0.364  1.00  0.00    -0.059 A 
HETATM   29  C21 UNK     1      -4.162  -1.824   0.362  1.00  0.00     0.044 A 
HETATM   30  C23 UNK     1      -5.918  -0.442  -0.759  1.00  0.00     0.048 C 
ENDBRANCH  22  23
ENDBRANCH  10  22
TORSDOF 8
