REMARK  7 active torsions:
REMARK  status: ('A' for Active; 'I' for Inactive)
REMARK    1  A    between atoms: C4_10  and  O1_2 
REMARK    2  A    between atoms: C7_13  and  O1_2 
REMARK    3  A    between atoms: C14_20  and  O4_5 
REMARK    4  A    between atoms: C16_22  and  O4_5 
REMARK    5  A    between atoms: C1_7  and  C2_8 
REMARK    6  A    between atoms: C1_7  and  C3_9 
REMARK    7  A    between atoms: C1_7  and  C4_10 
ROOT
HETATM    1  O3  UNK     1      -0.346  -1.464  -0.628  1.00  0.00    -0.319 OA
HETATM    2  O5  UNK     1      -0.562   0.106   3.135  1.00  0.00    -0.284 OA
HETATM    3  C7  UNK     1       2.501   0.768  -0.755  1.00  0.00     0.082 A 
HETATM    4  C8  UNK     1       0.558   0.042   1.054  1.00  0.00     0.051 A 
HETATM    5  C9  UNK     1       0.576  -0.533  -0.219  1.00  0.00     0.092 A 
HETATM    6  C10 UNK     1       1.561  -0.165  -1.137  1.00  0.00     0.075 A 
HETATM    7  C11 UNK     1       2.506   1.351   0.495  1.00  0.00     0.038 A 
HETATM    8  C12 UNK     1       1.522   0.986   1.415  1.00  0.00     0.021 A 
HETATM    9  C13 UNK     1      -0.493  -0.361   2.007  1.00  0.00     0.220 A 
HETATM   10  C14 UNK     1      -1.461  -1.367   1.515  1.00  0.00     0.149 A 
HETATM   11  C15 UNK     1      -1.320  -1.830   0.270  1.00  0.00     0.184 A 
ENDROOT
BRANCH   3  12
HETATM   12  O1  UNK     1       3.488   1.138  -1.671  1.00  0.00    -0.279 OA
BRANCH  12  13
HETATM   13  C4  UNK     1       3.116   2.220  -2.460  1.00  0.00     0.268 C 
HETATM   14  O2  UNK     1       2.053   2.828  -2.409  1.00  0.00    -0.264 OA
BRANCH  13  15
HETATM   15  C1  UNK     1       4.233   2.570  -3.433  1.00  0.00     0.085 C 
BRANCH  15  16
HETATM   16  C2  UNK     1       4.760   3.993  -3.182  1.00  0.00     0.010 C 
HETATM   17  C5  UNK     1       5.314   4.177  -1.775  1.00  0.00     0.006 C 
ENDBRANCH  15  16
BRANCH  15  18
HETATM   18  C3  UNK     1       3.769   2.407  -4.890  1.00  0.00     0.010 C 
HETATM   19  C6  UNK     1       3.320   0.987  -5.212  1.00  0.00     0.006 C 
ENDBRANCH  15  18
ENDBRANCH  13  15
ENDBRANCH  12  13
ENDBRANCH   3  12
BRANCH  10  20
HETATM   20  O4  UNK     1      -2.472  -1.796   2.343  1.00  0.00    -0.303 OA
BRANCH  20  21
HETATM   21  C16 UNK     1      -3.755  -1.584   1.918  1.00  0.00     0.093 A 
HETATM   22  C17 UNK     1      -4.635  -2.644   1.720  1.00  0.00     0.044 A 
HETATM   23 Br1  UNK     1      -4.104  -4.437   2.027  1.00  0.00    -0.048 Br
HETATM   24  C19 UNK     1      -5.938  -2.394   1.288  1.00  0.00     0.022 A 
HETATM   25  C21 UNK     1      -6.355  -1.083   1.055  1.00  0.00     0.002 A 
HETATM   26  C20 UNK     1      -5.470  -0.024   1.254  1.00  0.00     0.003 A 
HETATM   27  C18 UNK     1      -4.168  -0.274   1.687  1.00  0.00     0.039 A 
ENDBRANCH  20  21
ENDBRANCH  10  20
TORSDOF 7
