REMARK  5 active torsions:
REMARK  status: ('A' for Active; 'I' for Inactive)
REMARK    1  A    between atoms: C16_22  and  O2_2 
REMARK    2  A    between atoms: C7_13  and  O2_2 
REMARK    3  A    between atoms: C11_17  and  O4_4 
REMARK    4  A    between atoms: C17_23  and  O4_4 
REMARK    5  A    between atoms: C1_7  and  C6_12 
ROOT
HETATM    1  O1  UNK     1      -0.766  -0.022   1.308  1.00  0.00    -0.340 OA
HETATM    2  O3  UNK     1      -0.572  -1.723  -2.421  1.00  0.00    -0.292 OA
HETATM    3  C1  UNK     1      -1.954  -0.493   0.653  1.00  0.00     0.169 C 
HETATM    4  C2  UNK     1      -1.642  -1.666  -0.274  1.00  0.00     0.121 C 
HETATM    5  C3  UNK     1       0.332  -0.197  -0.863  1.00  0.00     0.077 A 
HETATM    6  C4  UNK     1      -0.634  -1.224  -1.303  1.00  0.00     0.167 C 
HETATM    7  C5  UNK     1       0.224   0.330   0.427  1.00  0.00     0.089 A 
HETATM    8  C7  UNK     1       1.366   0.212  -1.708  1.00  0.00     0.098 A 
HETATM    9  C8  UNK     1       1.174   1.244   0.885  1.00  0.00     0.075 A 
HETATM   10  C11 UNK     1       2.209   1.653   0.043  1.00  0.00     0.084 A 
HETATM   11  C12 UNK     1       2.301   1.142  -1.252  1.00  0.00     0.076 A 
ENDROOT
BRANCH   3  12
HETATM   12  C6  UNK     1      -2.961  -0.888   1.713  1.00  0.00    -0.029 A 
HETATM   13  C10 UNK     1      -2.522  -1.406   2.931  1.00  0.00     0.010 A 
HETATM   14  C14 UNK     1      -3.449  -1.770   3.908  1.00  0.00     0.001 A 
HETATM   15  C15 UNK     1      -4.814  -1.615   3.666  1.00  0.00     0.000 A 
HETATM   16  C13 UNK     1      -5.252  -1.096   2.448  1.00  0.00     0.001 A 
HETATM   17  C9  UNK     1      -4.325  -0.733   1.471  1.00  0.00     0.010 A 
ENDBRANCH   3  12
BRANCH   8  18
HETATM   18  O2  UNK     1       1.514  -0.266  -2.975  1.00  0.00    -0.278 OA
BRANCH  18  19
HETATM   19  C16 UNK     1       0.845   0.486  -3.954  1.00  0.00     0.260 C 
HETATM   20  O5  UNK     1       0.173   1.489  -3.750  1.00  0.00    -0.265 OA
HETATM   21  C18 UNK     1       1.068  -0.119  -5.308  1.00  0.00     0.126 C 
ENDBRANCH  18  19
ENDBRANCH   8  18
BRANCH  10  22
HETATM   22  O4  UNK     1       3.129   2.554   0.485  1.00  0.00    -0.279 OA
BRANCH  22  23
HETATM   23  C17 UNK     1       2.785   3.893   0.239  1.00  0.00     0.260 C 
HETATM   24  O6  UNK     1       1.767   4.279  -0.319  1.00  0.00    -0.265 OA
HETATM   25  C19 UNK     1       3.858   4.803   0.761  1.00  0.00     0.126 C 
ENDBRANCH  22  23
ENDBRANCH  10  22
TORSDOF 5
