REMARK  4 active torsions:
REMARK  status: ('A' for Active; 'I' for Inactive)
REMARK    1  A    between atoms: C12_19  and  N1_6 
REMARK       I    between atoms: C14_21  and  N1_6 
REMARK       I    between atoms: C13_20  and  N2_7 
REMARK    2  A    between atoms: C1_8  and  C2_9 
REMARK    3  A    between atoms: C11_18  and  C13_20 
REMARK    4  A    between atoms: C14_21  and  C15_22 
ROOT
HETATM    1  S1  UNK     1      -1.690  -0.815  -0.650  1.00  0.00    -0.075 SA
HETATM    2  C1  UNK     1      -4.480  -2.519   1.843  1.00  0.00    -0.002 C 
HETATM    3  C3  UNK     1      -4.265  -1.526   3.006  1.00  0.00     0.010 C 
HETATM    4  C4  UNK     1      -3.993  -1.919   0.504  1.00  0.00     0.052 C 
HETATM    5  C5  UNK     1      -2.779  -1.182   3.193  1.00  0.00     0.041 C 
HETATM    6  C6  UNK     1      -2.664  -1.250   0.677  1.00  0.00    -0.008 A 
HETATM    7  C7  UNK     1      -2.108  -0.887   1.888  1.00  0.00    -0.026 A 
HETATM    8  C11 UNK     1      -0.846  -0.246   1.709  1.00  0.00     0.073 A 
HETATM    9  C12 UNK     1      -0.499  -0.141   0.379  1.00  0.00     0.093 A 
ENDROOT
BRANCH   9  10
HETATM   10  N1  UNK     1       0.605   0.393  -0.228  1.00  0.00    -0.316 N 
HETATM   11  C14 UNK     1       0.904   0.471  -1.608  1.00  0.00     0.262 C 
HETATM   12  O2  UNK     1       0.221   0.068  -2.541  1.00  0.00    -0.267 OA
HETATM   13  H17 UNK     1       1.277   0.795   0.420  1.00  0.00     0.169 HD
BRANCH  11  14
HETATM   14  C15 UNK     1       2.200   1.124  -1.889  1.00  0.00     0.108 A 
HETATM   15  C16 UNK     1       2.291   1.783  -3.050  1.00  0.00     0.037 A 
HETATM   16  C18 UNK     1       3.527   2.458  -3.415  1.00  0.00    -0.001 A 
HETATM   17  C19 UNK     1       4.606   2.405  -2.540  1.00  0.00     0.089 A 
HETATM   18  C20 UNK     1       3.666   3.157  -4.617  1.00  0.00     0.014 A 
HETATM   19  O3  UNK     1       4.505   1.710  -1.319  1.00  0.00    -0.274 OA
HETATM   20  C21 UNK     1       5.818   3.030  -2.831  1.00  0.00     0.038 A 
HETATM   21  C17 UNK     1       3.336   1.055  -0.942  1.00  0.00     0.304 A 
HETATM   22  O4  UNK     1       3.257   0.452   0.123  1.00  0.00    -0.259 OA
HETATM   23  C23 UNK     1       5.949   3.725  -4.031  1.00  0.00     0.003 A 
HETATM   24  C22 UNK     1       4.875   3.789  -4.922  1.00  0.00     0.001 A 
ENDBRANCH  11  14
ENDBRANCH   9  10
BRANCH   8  25
HETATM   25  C13 UNK     1       0.001   0.245   2.768  1.00  0.00     0.252 C 
HETATM   26  O1  UNK     1      -0.091   1.396   3.234  1.00  0.00    -0.268 OA
HETATM   27  N2  UNK     1       0.943  -0.634   3.296  1.00  0.00    -0.366 N 
HETATM   28  H18 UNK     1       1.045  -1.584   2.953  1.00  0.00     0.159 HD
HETATM   29  H19 UNK     1       1.561  -0.348   4.047  1.00  0.00     0.159 HD
ENDBRANCH   8  25
BRANCH   2  30
HETATM   30  C2  UNK     1      -5.948  -2.927   1.742  1.00  0.00    -0.047 C 
HETATM   31  C10 UNK     1      -6.126  -3.953   0.610  1.00  0.00     0.015 C 
HETATM   32  C8  UNK     1      -6.405  -3.556   3.069  1.00  0.00     0.015 C 
HETATM   33  C9  UNK     1      -6.813  -1.691   1.444  1.00  0.00     0.015 C 
ENDBRANCH   2  30
TORSDOF 4
