REMARK  4 active torsions:
REMARK  status: ('A' for Active; 'I' for Inactive)
REMARK       I    between atoms: C13_20  and  N2_7 
REMARK    1  A    between atoms: C6_13  and  N2_7 
REMARK    2  A    between atoms: C1_8  and  C4_11 
REMARK    3  A    between atoms: C4_11  and  C6_13 
REMARK    4  A    between atoms: C13_20  and  C14_21 
ROOT
HETATM    1  O2  UNK     1      -1.931   1.207  -2.814  1.00  0.00    -0.267 OA
HETATM    2  N2  UNK     1      -1.795  -0.793  -1.624  1.00  0.00    -0.356 N 
HETATM    3  C13 UNK     1      -1.285   0.350  -2.214  1.00  0.00     0.257 C 
HETATM    4  H12 UNK     1      -1.180  -1.425  -1.121  1.00  0.00     0.162 HD
ENDROOT
BRANCH   2   5
HETATM    5  C6  UNK     1      -3.200  -1.129  -1.641  1.00  0.00     0.127 C 
BRANCH   5   6
HETATM    6  C4  UNK     1      -3.955  -0.560  -0.442  1.00  0.00     0.061 C 
BRANCH   6   7
HETATM    7  C1  UNK     1      -3.449  -1.072   0.876  1.00  0.00    -0.022 A 
HETATM    8  C2  UNK     1      -2.430  -0.478   1.647  1.00  0.00    -0.001 A 
HETATM    9  C3  UNK     1      -2.281  -1.277   2.782  1.00  0.00     0.049 A 
HETATM   10  C8  UNK     1      -1.610   0.659   1.506  1.00  0.00     0.014 A 
HETATM   11  N1  UNK     1      -3.188  -2.307   2.674  1.00  0.00    -0.358 N 
HETATM   12  C7  UNK     1      -1.349  -0.995   3.787  1.00  0.00    -0.034 A 
HETATM   13  C5  UNK     1      -3.903  -2.187   1.513  1.00  0.00     0.013 A 
HETATM   14  H3  UNK     1      -3.310  -3.046   3.353  1.00  0.00     0.166 HD
HETATM   15  C9  UNK     1      -4.945  -3.169   1.157  1.00  0.00     0.068 C 
HETATM   16  C10 UNK     1      -0.547   0.138   3.626  1.00  0.00     0.009 A 
HETATM   17  C12 UNK     1      -1.186  -1.847   5.002  1.00  0.00     0.050 C 
HETATM   18  C11 UNK     1      -0.674   0.954   2.504  1.00  0.00     0.002 A 
ENDBRANCH   6   7
ENDBRANCH   5   6
ENDBRANCH   2   5
BRANCH   3  19
HETATM   19  C14 UNK     1       0.169   0.472  -2.061  1.00  0.00     0.108 A 
HETATM   20  C18 UNK     1       1.051  -0.713  -1.963  1.00  0.00     0.304 A 
HETATM   21  O1  UNK     1       2.414  -0.468  -1.820  1.00  0.00    -0.272 OA
HETATM   22  O3  UNK     1       0.609  -1.856  -2.007  1.00  0.00    -0.259 OA
HETATM   23  C17 UNK     1       2.932   0.841  -1.769  1.00  0.00     0.111 A 
HETATM   24  C15 UNK     1       2.086   1.941  -1.862  1.00  0.00     0.002 A 
HETATM   25  C20 UNK     1       4.311   0.986  -1.624  1.00  0.00     0.070 A 
HETATM   26  C19 UNK     1       2.637   3.223  -1.808  1.00  0.00     0.038 A 
HETATM   27  C16 UNK     1       0.656   1.718  -2.013  1.00  0.00     0.037 A 
HETATM   28  C21 UNK     1       4.018   3.385  -1.662  1.00  0.00     0.036 A 
HETATM   29  C22 UNK     1       4.853   2.269  -1.571  1.00  0.00     0.050 A 
HETATM   30 Cl2  UNK     1       4.693   4.967  -1.595  1.00  0.00    -0.084 Cl
HETATM   31 Cl1  UNK     1       5.360  -0.376  -1.508  1.00  0.00    -0.081 Cl
ENDBRANCH   3  19
TORSDOF 4
