REMARK  9 active torsions:
REMARK  status: ('A' for Active; 'I' for Inactive)
REMARK    1  A    between atoms: C5_13  and  O2_2 
REMARK    2  A    between atoms: C14_22  and  O3_3 
REMARK    3  A    between atoms: C15_23  and  O4_4 
REMARK    4  A    between atoms: C1_9  and  N1_8 
REMARK    5  A    between atoms: C6_14  and  N1_8 
REMARK    6  A    between atoms: C7_15  and  N1_8 
REMARK    7  A    between atoms: C1_9  and  C2_10 
REMARK    8  A    between atoms: C14_22  and  C6_14 
REMARK    9  A    between atoms: C15_23  and  C7_15 
ROOT
HETATM    1  O1  UNK     1       0.555   1.013   0.529  1.00  0.00    -0.274 OA
HETATM    2  O5  UNK     1       1.480   1.609   2.534  1.00  0.00    -0.260 OA
HETATM    3  C2  UNK     1      -0.413   0.391  -1.561  1.00  0.00     0.038 A 
HETATM    4  C3  UNK     1       0.696   0.875  -0.866  1.00  0.00     0.101 A 
HETATM    5  C4  UNK     1       1.891   1.207  -1.507  1.00  0.00     0.005 A 
HETATM    6  C5  UNK     1      -0.334   0.232  -2.941  1.00  0.00     0.076 A 
HETATM    7  C8  UNK     1       3.008   1.709  -0.696  1.00  0.00    -0.043 A 
HETATM    8  C9  UNK     1       1.951   1.041  -2.897  1.00  0.00     0.017 A 
HETATM    9  C10 UNK     1       0.846   0.557  -3.608  1.00  0.00     0.038 A 
HETATM   10  C11 UNK     1       2.846   1.831   0.629  1.00  0.00     0.090 A 
HETATM   11  C12 UNK     1       4.305   2.076  -1.356  1.00  0.00     0.049 C 
HETATM   12  C13 UNK     1       1.592   1.484   1.320  1.00  0.00     0.288 A 
ENDROOT
BRANCH   3  13
HETATM   13  C1  UNK     1      -1.674   0.045  -0.838  1.00  0.00     0.318 C 
BRANCH  13  14
HETATM   14  N1  UNK     1      -1.422  -0.725   0.380  1.00  0.00     0.112 N 
BRANCH  14  15
HETATM   15  C6  UNK     1      -0.740  -1.979   0.060  1.00  0.00     0.382 C 
BRANCH  15  16
HETATM   16  C14 UNK     1      -0.501  -2.736   1.336  1.00  0.00     0.169 C 
HETATM   17  O6  UNK     1       0.165  -2.307   2.269  1.00  0.00    -0.649 OA
BRANCH  16  18
HETATM   18  O3  UNK     1      -1.070  -3.969   1.334  1.00  0.00    -0.775 OA
HETATM   19  H14 UNK     1      -0.890  -4.456   2.167  1.00  0.00     0.167 HD
ENDBRANCH  16  18
ENDBRANCH  15  16
ENDBRANCH  14  15
BRANCH  14  20
HETATM   20  C7  UNK     1      -2.675  -0.990   1.085  1.00  0.00     0.382 C 
BRANCH  20  21
HETATM   21  C15 UNK     1      -3.311   0.324   1.447  1.00  0.00     0.169 C 
HETATM   22  O7  UNK     1      -2.780   1.163   2.164  1.00  0.00    -0.649 OA
BRANCH  21  23
HETATM   23  O4  UNK     1      -4.557   0.469   0.930  1.00  0.00    -0.775 OA
HETATM   24  H15 UNK     1      -4.963   1.324   1.189  1.00  0.00     0.167 HD
ENDBRANCH  21  23
ENDBRANCH  20  21
ENDBRANCH  14  20
ENDBRANCH  13  14
ENDBRANCH   3  13
BRANCH   6  25
HETATM   25  O2  UNK     1      -1.395  -0.238  -3.654  1.00  0.00    -0.360 OA
HETATM   26  H13 UNK     1      -1.152  -0.280  -4.594  1.00  0.00     0.217 HD
ENDBRANCH   6  25
TORSDOF 9
