REMARK  7 active torsions:
REMARK  status: ('A' for Active; 'I' for Inactive)
REMARK    1  A    between atoms: C5_13  and  O2_2 
REMARK    2  A    between atoms: C7_15  and  O3_3 
REMARK    3  A    between atoms: C11_19  and  O5_5 
REMARK    4  A    between atoms: C13_21  and  O6_6 
REMARK    5  A    between atoms: C14_22  and  O7_7 
REMARK    6  A    between atoms: C15_23  and  O8_8 
REMARK    7  A    between atoms: C2_10  and  C4_12 
ROOT
HETATM    1  O1  UNK     1      -0.821  -0.332  -0.556  1.00  0.00    -0.306 OA
HETATM    2  O4  UNK     1      -1.303   0.923   3.291  1.00  0.00    -0.284 OA
HETATM    3  C1  UNK     1      -2.031  -0.483   1.543  1.00  0.00     0.084 A 
HETATM    4  C2  UNK     1       0.012   0.624   0.002  1.00  0.00     0.123 A 
HETATM    5  C3  UNK     1      -1.815  -0.868   0.221  1.00  0.00     0.096 A 
HETATM    6  C5  UNK     1      -0.094   1.088   1.261  1.00  0.00     0.152 A 
HETATM    7  C6  UNK     1      -1.158   0.541   2.137  1.00  0.00     0.223 A 
HETATM    8  C7  UNK     1      -3.061  -1.063   2.287  1.00  0.00     0.085 A 
HETATM    9  C8  UNK     1      -2.631  -1.835  -0.366  1.00  0.00     0.075 A 
HETATM   10  C11 UNK     1      -3.661  -2.417   0.374  1.00  0.00     0.071 A 
HETATM   11  C12 UNK     1      -3.875  -2.031   1.698  1.00  0.00     0.074 A 
ENDROOT
BRANCH   4  12
HETATM   12  C4  UNK     1       1.034   1.116  -0.939  1.00  0.00     0.006 A 
HETATM   13  C10 UNK     1       0.757   2.204  -1.767  1.00  0.00     0.054 A 
HETATM   14  C13 UNK     1       1.724   2.667  -2.658  1.00  0.00     0.102 A 
HETATM   15  C15 UNK     1       2.970   2.042  -2.723  1.00  0.00     0.132 A 
HETATM   16  C14 UNK     1       3.248   0.954  -1.895  1.00  0.00     0.102 A 
HETATM   17  C9  UNK     1       2.280   0.491  -1.003  1.00  0.00     0.054 A 
BRANCH  14  18
HETATM   18  O6  UNK     1       1.440   3.729  -3.462  1.00  0.00    -0.358 OA
HETATM   19  H8  UNK     1       2.220   3.913  -4.013  1.00  0.00     0.217 HD
ENDBRANCH  14  18
BRANCH  15  20
HETATM   20  O8  UNK     1       3.915   2.494  -3.595  1.00  0.00    -0.356 OA
HETATM   21  H10 UNK     1       4.545   1.783  -3.792  1.00  0.00     0.218 HD
ENDBRANCH  15  20
BRANCH  16  22
HETATM   22  O7  UNK     1       4.460   0.336  -1.947  1.00  0.00    -0.358 OA
HETATM   23  H9  UNK     1       5.122   0.944  -2.314  1.00  0.00     0.217 HD
ENDBRANCH  16  22
ENDBRANCH   4  12
BRANCH   6  24
HETATM   24  O2  UNK     1       0.731   2.064   1.775  1.00  0.00    -0.355 OA
HETATM   25  H5  UNK     1       1.377   2.337   1.104  1.00  0.00     0.218 HD
ENDBRANCH   6  24
BRANCH   8  26
HETATM   26  O3  UNK     1      -3.314  -0.723   3.582  1.00  0.00    -0.360 OA
HETATM   27  H6  UNK     1      -2.688  -0.048   3.885  1.00  0.00     0.217 HD
ENDBRANCH   8  26
BRANCH  10  28
HETATM   28  O5  UNK     1      -4.458  -3.362  -0.196  1.00  0.00    -0.361 OA
HETATM   29  H7  UNK     1      -5.116  -3.655   0.457  1.00  0.00     0.217 HD
ENDBRANCH  10  28
TORSDOF 7
