REMARK  3 active torsions:
REMARK  status: ('A' for Active; 'I' for Inactive)
REMARK    1  A    between atoms: C5_10  and  N1_5 
REMARK       I    between atoms: C6_11  and  N1_5 
REMARK    2  A    between atoms: C2_7  and  C6_11 
REMARK    3  A    between atoms: C17_22  and  C9_14 
ROOT
HETATM    1  O2  UNK     1      -0.586  -0.689  -1.814  1.00  0.00    -0.267 OA
HETATM    2  N1  UNK     1      -0.497  -0.089   0.462  1.00  0.00    -0.323 N 
HETATM    3  C6  UNK     1      -0.053  -0.140  -0.851  1.00  0.00     0.262 C 
HETATM    4  H3  UNK     1       0.055   0.429   1.141  1.00  0.00     0.169 HD
ENDROOT
BRANCH   3   5
HETATM    5  C2  UNK     1       1.217   0.574  -1.032  1.00  0.00     0.108 A 
HETATM    6  C4  UNK     1       1.422   1.120  -2.236  1.00  0.00     0.037 A 
HETATM    7  C1  UNK     1       2.651   1.848  -2.512  1.00  0.00    -0.001 A 
HETATM    8  C3  UNK     1       3.604   1.963  -1.506  1.00  0.00     0.089 A 
HETATM    9  C7  UNK     1       2.907   2.434  -3.754  1.00  0.00     0.014 A 
HETATM   10  C10 UNK     1       4.803   2.646  -1.705  1.00  0.00     0.038 A 
HETATM   11  O1  UNK     1       3.383   1.386  -0.240  1.00  0.00    -0.274 OA
HETATM   12  C16 UNK     1       5.050   3.228  -2.946  1.00  0.00     0.003 A 
HETATM   13  C15 UNK     1       4.105   3.123  -3.969  1.00  0.00     0.001 A 
HETATM   14  C8  UNK     1       2.217   0.685   0.053  1.00  0.00     0.304 A 
HETATM   15  O3  UNK     1       2.033   0.184   1.158  1.00  0.00    -0.259 OA
ENDBRANCH   3   5
BRANCH   2  16
HETATM   16  C5  UNK     1      -1.666  -0.660   0.983  1.00  0.00     0.035 A 
HETATM   17  C11 UNK     1      -2.521  -1.371   0.146  1.00  0.00     0.030 A 
HETATM   18  C13 UNK     1      -3.685  -1.939   0.665  1.00  0.00     0.017 A 
HETATM   19  C9  UNK     1      -3.987  -1.795   2.019  1.00  0.00     0.009 A 
HETATM   20  C14 UNK     1      -3.127  -1.082   2.854  1.00  0.00     0.017 A 
HETATM   21  C12 UNK     1      -1.964  -0.513   2.335  1.00  0.00     0.030 A 
BRANCH  19  22
HETATM   22  C17 UNK     1      -5.200  -2.388   2.561  1.00  0.00     0.155 C 
HETATM   23  O4  UNK     1      -5.496  -2.276   3.767  1.00  0.00    -0.293 OA
HETATM   24  C18 UNK     1      -6.144  -3.170   1.655  1.00  0.00     0.096 C 
ENDBRANCH  19  22
ENDBRANCH   2  16
TORSDOF 3
