REMARK  2 active torsions:
REMARK  status: ('A' for Active; 'I' for Inactive)
REMARK    1  A    between atoms: C3_7  and  O2_2 
REMARK    2  A    between atoms: C4_8  and  O3_3 
ROOT
HETATM    1  O1  UNK     1      -0.845  -0.200   1.390  1.00  0.00    -0.272 OA
HETATM    2  O4  UNK     1      -2.480  -0.952   2.807  1.00  0.00    -0.260 OA
HETATM    3  C1  UNK     1      -1.169  -0.419  -1.013  1.00  0.00     0.001 A 
HETATM    4  C2  UNK     1      -0.390  -0.015   0.068  1.00  0.00     0.125 A 
HETATM    5  C3  UNK     1       0.857   0.581  -0.109  1.00  0.00     0.136 A 
HETATM    6  C4  UNK     1       1.334   0.777  -1.403  1.00  0.00     0.104 A 
HETATM    7  C5  UNK     1      -0.684  -0.219  -2.307  1.00  0.00     0.017 A 
HETATM    8  C6  UNK     1       0.565   0.378  -2.500  1.00  0.00     0.040 A 
HETATM    9  C7  UNK     1      -2.460  -1.034  -0.755  1.00  0.00     0.020 A 
HETATM   10  C8  UNK     1      -2.884  -1.206   0.500  1.00  0.00     0.083 A 
HETATM   11  C9  UNK     1      -2.077  -0.787   1.661  1.00  0.00     0.288 A 
ENDROOT
BRANCH   5  12
HETATM   12  O2  UNK     1       1.600   0.967   0.964  1.00  0.00    -0.351 OA
HETATM   13  C10 UNK     1       2.506   0.007   1.506  1.00  0.00     0.210 C 
ENDBRANCH   5  12
BRANCH   6  14
HETATM   14  O3  UNK     1       2.549   1.356  -1.614  1.00  0.00    -0.353 OA
HETATM   15  C11 UNK     1       2.575   2.776  -1.744  1.00  0.00     0.210 C 
ENDBRANCH   6  14
TORSDOF 2
