REMARK  2 active torsions:
REMARK  status: ('A' for Active; 'I' for Inactive)
REMARK    1  A    between atoms: C4_9  and  N1_3 
REMARK    2  A    between atoms: C13_18  and  C17_22 
ROOT
HETATM    1  O1  UNK     1      -1.157  -0.640   2.083  1.00  0.00    -0.274 OA
HETATM    2  O2  UNK     1      -2.223  -1.382   3.960  1.00  0.00    -0.259 OA
HETATM    3  C4  UNK     1       0.036   0.305  -1.260  1.00  0.00     0.082 A 
HETATM    4  C6  UNK     1      -2.215  -0.884  -0.090  1.00  0.00    -0.001 A 
HETATM    5  C7  UNK     1      -1.139  -0.469   0.686  1.00  0.00     0.092 A 
HETATM    6  C8  UNK     1      -0.012   0.124   0.120  1.00  0.00     0.071 A 
HETATM    7  C10 UNK     1      -1.036  -0.106  -2.056  1.00  0.00     0.034 A 
HETATM    8  C12 UNK     1      -2.160  -0.699  -1.473  1.00  0.00     0.017 A 
HETATM    9  C13 UNK     1      -3.381  -1.659   1.898  1.00  0.00     0.051 A 
HETATM   10  C14 UNK     1      -3.360  -1.493   0.566  1.00  0.00     0.032 A 
HETATM   11  C18 UNK     1      -2.234  -1.228   2.742  1.00  0.00     0.299 A 
ENDROOT
BRANCH   3  12
HETATM   12  N1  UNK     1       1.147   0.892  -1.845  1.00  0.00    -0.150 N 
HETATM   13  N2  UNK     1       2.175   1.287  -1.092  1.00  0.00    -0.147 NA
HETATM   14  C1  UNK     1       3.024   1.789  -2.005  1.00  0.00     0.120 A 
HETATM   15  C2  UNK     1       4.315   2.375  -1.842  1.00  0.00     0.007 A 
HETATM   16  C3  UNK     1       2.399   1.648  -3.328  1.00  0.00     0.110 A 
HETATM   17  C15 UNK     1       4.950   2.528  -0.594  1.00  0.00     0.015 A 
HETATM   18  C5  UNK     1       4.938   2.806  -3.050  1.00  0.00    -0.023 A 
HETATM   19  C19 UNK     1       6.212   3.112  -0.535  1.00  0.00     0.001 A 
HETATM   20  C20 UNK     1       6.838   3.540  -1.705  1.00  0.00     0.001 A 
HETATM   21  C16 UNK     1       6.209   3.389  -2.946  1.00  0.00     0.012 A 
HETATM   22  C11 UNK     1       4.303   2.654  -4.319  1.00  0.00     0.015 A 
HETATM   23  C9  UNK     1       3.031   2.079  -4.507  1.00  0.00     0.037 A 
HETATM   24  N3  UNK     1       1.199   1.067  -3.167  1.00  0.00    -0.147 NA
ENDBRANCH   3  12
BRANCH   9  25
HETATM   25  C17 UNK     1      -4.527  -2.255   2.511  1.00  0.00    -0.020 A 
HETATM   26  C21 UNK     1      -4.586  -3.638   2.682  1.00  0.00     0.012 A 
HETATM   27  C23 UNK     1      -5.703  -4.219   3.281  1.00  0.00     0.001 A 
HETATM   28  C25 UNK     1      -6.761  -3.417   3.709  1.00  0.00     0.000 A 
HETATM   29  C24 UNK     1      -6.702  -2.034   3.539  1.00  0.00     0.001 A 
HETATM   30  C22 UNK     1      -5.584  -1.453   2.939  1.00  0.00     0.012 A 
ENDBRANCH   9  25
TORSDOF 2
