REMARK  5 active torsions:
REMARK  status: ('A' for Active; 'I' for Inactive)
REMARK    1  A    between atoms: C11_17  and  O2_3 
REMARK    2  A    between atoms: C5_11  and  O2_3 
REMARK    3  A    between atoms: C10_16  and  O3_4 
REMARK    4  A    between atoms: C7_13  and  O3_4 
REMARK    5  A    between atoms: C11_17  and  C14_20 
ROOT
HETATM    1  O1  UNK     1      -0.650   1.538   0.399  1.00  0.00    -0.319 OA
HETATM    2  O4  UNK     1      -1.289  -1.823  -1.831  1.00  0.00    -0.284 OA
HETATM    3  C1  UNK     1       0.048   0.084  -1.422  1.00  0.00     0.051 A 
HETATM    4  C2  UNK     1       0.211   1.218  -0.623  1.00  0.00     0.092 A 
HETATM    5  C3  UNK     1      -1.093  -0.815  -1.166  1.00  0.00     0.220 A 
HETATM    6  C4  UNK     1       1.284   2.081  -0.847  1.00  0.00     0.075 A 
HETATM    7  C5  UNK     1       2.192   1.808  -1.870  1.00  0.00     0.071 A 
HETATM    8  C6  UNK     1       0.956  -0.192  -2.447  1.00  0.00     0.021 A 
HETATM    9  C7  UNK     1      -1.988  -0.424  -0.054  1.00  0.00     0.149 A 
HETATM   10  C8  UNK     1       2.028   0.674  -2.668  1.00  0.00     0.038 A 
HETATM   11  C9  UNK     1      -1.707   0.691   0.626  1.00  0.00     0.184 A 
ENDROOT
BRANCH   9  12
HETATM   12  O3  UNK     1      -3.075  -1.209   0.249  1.00  0.00    -0.303 OA
BRANCH  12  13
HETATM   13  C10 UNK     1      -3.126  -1.742   1.508  1.00  0.00     0.098 A 
HETATM   14  C12 UNK     1      -4.182  -1.451   2.368  1.00  0.00     0.067 A 
HETATM   15 Cl1  UNK     1      -5.466  -0.406   1.884  1.00  0.00    -0.081 Cl
HETATM   16  C15 UNK     1      -4.209  -2.009   3.646  1.00  0.00     0.026 A 
HETATM   17  C17 UNK     1      -3.180  -2.856   4.059  1.00  0.00     0.002 A 
HETATM   18  C16 UNK     1      -2.125  -3.145   3.194  1.00  0.00     0.003 A 
HETATM   19  C13 UNK     1      -2.098  -2.587   1.916  1.00  0.00     0.039 A 
ENDBRANCH  12  13
ENDBRANCH   9  12
BRANCH   7  20
HETATM   20  O2  UNK     1       3.239   2.648  -2.092  1.00  0.00    -0.344 OA
BRANCH  20  21
HETATM   21  C11 UNK     1       4.432   2.073  -2.622  1.00  0.00     0.253 C 
BRANCH  21  22
HETATM   22  C14 UNK     1       5.648   2.855  -2.173  1.00  0.00     0.146 C 
HETATM   23  O5  UNK     1       5.565   3.840  -1.440  1.00  0.00    -0.296 OA
HETATM   24  C18 UNK     1       6.980   2.362  -2.673  1.00  0.00     0.093 C 
ENDBRANCH  21  22
ENDBRANCH  20  21
ENDBRANCH   7  20
TORSDOF 5
