REMARK  3 active torsions:
REMARK  status: ('A' for Active; 'I' for Inactive)
REMARK       I    between atoms: C5_10  and  N1_5 
REMARK    1  A    between atoms: C5_10  and  C6_11 
REMARK    2  A    between atoms: C6_11  and  C7_12 
REMARK    3  A    between atoms: C7_12  and  C8_13 
ROOT
HETATM    1  O1  UNK     1       1.465   1.165   1.419  1.00  0.00    -0.274 OA
HETATM    2  O3  UNK     1       4.137   3.323  -1.961  1.00  0.00    -0.314 OA
HETATM    3  O4  UNK     1       0.219   0.121   3.003  1.00  0.00    -0.259 OA
HETATM    4  C8  UNK     1       0.027  -0.721   0.783  1.00  0.00     0.025 A 
HETATM    5  C9  UNK     1       0.387  -0.597  -0.513  1.00  0.00    -0.037 A 
HETATM    6  C10 UNK     1       1.373   0.436  -0.903  1.00  0.00     0.005 A 
HETATM    7  C11 UNK     1       2.783   1.605  -2.521  1.00  0.00     0.007 A 
HETATM    8  C12 UNK     1       1.880   1.286   0.079  1.00  0.00     0.093 A 
HETATM    9  C13 UNK     1       1.840   0.599  -2.224  1.00  0.00     0.029 A 
HETATM   10  C14 UNK     1       3.236   2.417  -1.489  1.00  0.00     0.089 A 
HETATM   11  C15 UNK     1       0.562   0.199   1.827  1.00  0.00     0.295 A 
HETATM   12  C16 UNK     1       3.457   2.052  -3.688  1.00  0.00    -0.020 A 
HETATM   13  C17 UNK     1       2.817   2.299  -0.170  1.00  0.00     0.076 A 
HETATM   14  C18 UNK     1      -0.179  -1.454  -1.619  1.00  0.00     0.050 C 
HETATM   15  C19 UNK     1       4.264   3.095  -3.294  1.00  0.00     0.056 A 
HETATM   16  C20 UNK     1       3.320   1.510  -5.054  1.00  0.00     0.052 C 
HETATM   17  C21 UNK     1       5.200   3.972  -4.013  1.00  0.00     0.077 C 
ENDROOT
BRANCH   4  18
HETATM   18  C7  UNK     1      -0.915  -1.769   1.319  1.00  0.00     0.055 C 
BRANCH  18  19
HETATM   19  C6  UNK     1      -2.358  -1.298   1.302  1.00  0.00     0.108 C 
BRANCH  19  20
HETATM   20  C5  UNK     1      -3.288  -2.374   1.801  1.00  0.00     0.220 C 
HETATM   21  O2  UNK     1      -2.844  -3.469   2.152  1.00  0.00    -0.273 OA
HETATM   22  N1  UNK     1      -4.630  -2.039   1.824  1.00  0.00    -0.352 N 
HETATM   23  C3  UNK     1      -5.655  -2.970   2.272  1.00  0.00     0.126 C 
HETATM   24  C4  UNK     1      -5.217  -0.764   1.426  1.00  0.00     0.126 C 
HETATM   25  C1  UNK     1      -6.899  -2.111   2.443  1.00  0.00     0.021 C 
HETATM   26  C2  UNK     1      -6.715  -1.034   1.382  1.00  0.00     0.021 C 
ENDBRANCH  19  20
ENDBRANCH  18  19
ENDBRANCH   4  18
TORSDOF 3
