REMARK  6 active torsions:
REMARK  status: ('A' for Active; 'I' for Inactive)
REMARK    1  A    between atoms: C17_23  and  O2_3 
REMARK    2  A    between atoms: C22_28  and  O2_3 
REMARK    3  A    between atoms: C5_11  and  N1_5 
REMARK    4  A    between atoms: C6_12  and  N2_6 
REMARK    5  A    between atoms: C5_11  and  C7_13 
REMARK    6  A    between atoms: C6_12  and  C8_14 
ROOT
HETATM    1  C5  UNK     1      -0.132  -1.731   0.359  1.00  0.00     0.312 C 
ENDROOT
BRANCH   1   2
HETATM    2  N1  UNK     1       0.080  -0.553  -0.480  1.00  0.00     0.096 N 
HETATM    3  C1  UNK     1       0.160  -0.930  -1.897  1.00  0.00     0.303 C 
HETATM    4  C3  UNK     1       0.383   0.305  -2.777  1.00  0.00     0.303 C 
HETATM    5  N2  UNK     1       1.596   1.025  -2.369  1.00  0.00     0.096 N 
HETATM    6  C4  UNK     1       1.518   1.400  -0.952  1.00  0.00     0.303 C 
HETATM    7  C2  UNK     1       1.293   0.166  -0.072  1.00  0.00     0.303 C 
BRANCH   5   8
HETATM    8  C6  UNK     1       1.806   2.204  -3.208  1.00  0.00     0.311 C 
BRANCH   8   9
HETATM    9  C8  UNK     1       3.248   2.637  -3.214  1.00  0.00    -0.030 A 
HETATM   10  C12 UNK     1       3.706   3.551  -2.265  1.00  0.00     0.010 A 
HETATM   11  C18 UNK     1       5.042   3.951  -2.270  1.00  0.00     0.024 A 
HETATM   12  C21 UNK     1       5.920   3.438  -3.224  1.00  0.00     0.034 A 
HETATM   13  C19 UNK     1       5.463   2.524  -4.173  1.00  0.00     0.024 A 
HETATM   14 Cl1  UNK     1       7.568   3.933  -3.231  1.00  0.00    -0.084 Cl
HETATM   15  C13 UNK     1       4.127   2.124  -4.168  1.00  0.00     0.010 A 
ENDBRANCH   8   9
ENDBRANCH   5   8
ENDBRANCH   1   2
BRANCH   1  16
HETATM   16  C7  UNK     1      -0.750  -1.384   1.669  1.00  0.00    -0.011 A 
HETATM   17  C10 UNK     1       0.008  -1.087   2.735  1.00  0.00     0.092 A 
HETATM   18  C15 UNK     1      -0.557  -0.739   4.049  1.00  0.00     0.288 A 
HETATM   19  O1  UNK     1      -1.939  -0.728   4.151  1.00  0.00    -0.275 OA
HETATM   20  O3  UNK     1       0.168  -0.473   5.002  1.00  0.00    -0.260 OA
HETATM   21  C11 UNK     1      -2.761  -1.036   3.048  1.00  0.00     0.090 A 
HETATM   22  C9  UNK     1      -2.212  -1.365   1.808  1.00  0.00     0.009 A 
HETATM   23  C16 UNK     1      -4.140  -0.994   3.266  1.00  0.00     0.041 A 
HETATM   24  C14 UNK     1      -3.098  -1.660   0.763  1.00  0.00     0.051 A 
HETATM   25  C17 UNK     1      -4.482  -1.622   0.966  1.00  0.00     0.069 A 
HETATM   26  C20 UNK     1      -5.002  -1.290   2.216  1.00  0.00     0.039 A 
BRANCH  25  27
HETATM   27  O2  UNK     1      -5.325  -1.912  -0.063  1.00  0.00    -0.351 OA
BRANCH  27  28
HETATM   28  C22 UNK     1      -6.583  -2.495   0.274  1.00  0.00     0.171 C 
HETATM   29  C23 UNK     1      -7.040  -3.375  -0.870  1.00  0.00     0.034 C 
ENDBRANCH  27  28
ENDBRANCH  25  27
ENDBRANCH   1  16
TORSDOF 6
