REMARK  3 active torsions:
REMARK  status: ('A' for Active; 'I' for Inactive)
REMARK    1  A    between atoms: C1_3  and  C2_4 
REMARK    2  A    between atoms: C10_12  and  C7_9 
REMARK    3  A    between atoms: C11_13  and  C12_14 
ROOT
HETATM    1  N1  UNK     1      -1.799  -1.024   4.407  1.00  0.00    -0.191 NA
HETATM    2  C10 UNK     1       0.420   0.146   2.018  1.00  0.00     0.034 C 
HETATM    3  C11 UNK     1      -0.814  -0.414   2.090  1.00  0.00     0.055 C 
HETATM    4  C18 UNK     1      -1.356  -0.750   3.370  1.00  0.00     0.100 C 
ENDROOT
BRANCH   3   5
HETATM    5  C12 UNK     1      -1.633  -0.688   0.893  1.00  0.00    -0.015 A 
HETATM    6  C13 UNK     1      -2.497   0.288   0.426  1.00  0.00     0.014 A 
HETATM    7  C15 UNK     1      -3.270   0.028  -0.705  1.00  0.00     0.024 A 
HETATM    8  C17 UNK     1      -3.167  -1.203  -1.353  1.00  0.00     0.034 A 
HETATM    9  C16 UNK     1      -2.292  -2.175  -0.869  1.00  0.00     0.024 A 
HETATM   10 Cl1  UNK     1      -4.122  -1.523  -2.749  1.00  0.00    -0.084 Cl
HETATM   11  C14 UNK     1      -1.518  -1.915   0.262  1.00  0.00     0.014 A 
ENDBRANCH   3   5
BRANCH   2  12
HETATM   12  C7  UNK     1       1.136   0.531   0.812  1.00  0.00    -0.035 A 
HETATM   13  C8  UNK     1       1.983  -0.381   0.184  1.00  0.00     0.012 A 
HETATM   14  C5  UNK     1       2.671  -0.012  -0.972  1.00  0.00     0.008 A 
HETATM   15  C2  UNK     1       2.511   1.270  -1.500  1.00  0.00    -0.055 A 
HETATM   16  C6  UNK     1       1.664   2.182  -0.871  1.00  0.00     0.008 A 
HETATM   17  C9  UNK     1       0.976   1.813   0.285  1.00  0.00     0.012 A 
BRANCH  15  18
HETATM   18  C1  UNK     1       3.247   1.664  -2.735  1.00  0.00     0.010 C 
HETATM   19  C3  UNK     1       4.224   2.830  -2.492  1.00  0.00     0.015 C 
HETATM   20  C4  UNK     1       2.300   2.011  -3.900  1.00  0.00     0.015 C 
ENDBRANCH  15  18
ENDBRANCH   2  12
TORSDOF 3
