REMARK  1 active torsions:
REMARK  status: ('A' for Active; 'I' for Inactive)
REMARK    1  A    between atoms: C5_8  and  C8_11 
ROOT
HETATM    1  N1  UNK     1       0.252   0.577  -2.292  1.00  0.00    -0.278 NA
HETATM    2  C1  UNK     1       1.223   1.342  -3.089  1.00  0.00     0.051 C 
HETATM    3  C2  UNK     1       1.828   2.496  -2.270  1.00  0.00     0.071 C 
HETATM    4  C3  UNK     1       2.317   2.006  -0.937  1.00  0.00    -0.043 A 
HETATM    5  C4  UNK     1       1.637   0.955  -0.306  1.00  0.00    -0.000 A 
HETATM    6  C5  UNK     1       0.467   0.393  -1.030  1.00  0.00     0.079 C 
HETATM    7  C6  UNK     1       0.455   1.924  -4.285  1.00  0.00     0.040 C 
HETATM    8  C7  UNK     1       2.298   0.377  -3.616  1.00  0.00     0.040 C 
HETATM    9  C9  UNK     1       3.410   2.607  -0.304  1.00  0.00     0.008 A 
HETATM   10  C10 UNK     1       2.081   0.482   0.933  1.00  0.00     0.014 A 
HETATM   11  C11 UNK     1       3.842   2.142   0.937  1.00  0.00     0.001 A 
HETATM   12  C12 UNK     1       3.183   1.078   1.550  1.00  0.00     0.001 A 
ENDROOT
BRANCH   6  13
HETATM   13  C8  UNK     1      -0.524  -0.386  -0.257  1.00  0.00     0.070 A 
HETATM   14  C13 UNK     1      -1.539   0.308   0.271  1.00  0.00     0.034 A 
HETATM   15  C15 UNK     1      -2.565  -0.371   1.048  1.00  0.00    -0.001 A 
HETATM   16  C16 UNK     1      -2.471  -1.747   1.231  1.00  0.00     0.089 A 
HETATM   17  C17 UNK     1      -3.642   0.313   1.617  1.00  0.00     0.014 A 
HETATM   18  O1  UNK     1      -1.399  -2.471   0.673  1.00  0.00    -0.274 OA
HETATM   19  C18 UNK     1      -3.419  -2.456   1.965  1.00  0.00     0.038 A 
HETATM   20  C14 UNK     1      -0.403  -1.850  -0.076  1.00  0.00     0.301 A 
HETATM   21  O2  UNK     1       0.526  -2.488  -0.557  1.00  0.00    -0.259 OA
HETATM   22  C20 UNK     1      -4.490  -1.767   2.529  1.00  0.00     0.003 A 
HETATM   23  C19 UNK     1      -4.602  -0.385   2.356  1.00  0.00     0.001 A 
ENDBRANCH   6  13
TORSDOF 1
