REMARK  4 active torsions:
REMARK  status: ('A' for Active; 'I' for Inactive)
REMARK    1  A    between atoms: C15_22  and  O3_4 
REMARK    2  A    between atoms: C5_12  and  N1_6 
REMARK       I    between atoms: C7_14  and  N2_7 
REMARK    3  A    between atoms: C5_12  and  C6_13 
REMARK    4  A    between atoms: C10_17  and  C7_14 
ROOT
HETATM    1  O2  UNK     1       2.107   0.980  -4.601  1.00  0.00    -0.267 OA
HETATM    2  N1  UNK     1      -0.260  -0.794  -0.589  1.00  0.00     0.095 N 
HETATM    3  N2  UNK     1       1.201   0.818  -2.452  1.00  0.00    -0.345 N 
HETATM    4  C1  UNK     1       0.980  -0.122  -0.176  1.00  0.00     0.292 C 
HETATM    5  C2  UNK     1      -0.192  -1.171  -2.009  1.00  0.00     0.292 C 
HETATM    6  C3  UNK     1       1.236   1.130  -1.019  1.00  0.00     0.156 C 
HETATM    7  C4  UNK     1       0.027   0.062  -2.883  1.00  0.00     0.156 C 
HETATM    8  C7  UNK     1       2.136   1.241  -3.399  1.00  0.00     0.253 C 
ENDROOT
BRANCH   2   9
HETATM    9  C5  UNK     1      -0.509  -1.970   0.243  1.00  0.00     0.312 C 
BRANCH   9  10
HETATM   10  C6  UNK     1      -1.109  -1.612   1.558  1.00  0.00    -0.011 A 
HETATM   11  C8  UNK     1      -2.569  -1.545   1.703  1.00  0.00     0.009 A 
HETATM   12  C11 UNK     1      -3.103  -1.206   2.948  1.00  0.00     0.090 A 
HETATM   13  C12 UNK     1      -3.469  -1.802   0.660  1.00  0.00     0.051 A 
HETATM   14  O1  UNK     1      -2.266  -0.933   4.049  1.00  0.00    -0.275 OA
HETATM   15  C14 UNK     1      -4.478  -1.120   3.172  1.00  0.00     0.041 A 
HETATM   16  C13 UNK     1      -0.885  -0.991   3.942  1.00  0.00     0.288 A 
HETATM   17  O4  UNK     1      -0.149  -0.756   4.894  1.00  0.00    -0.260 OA
HETATM   18  C9  UNK     1      -0.338  -1.348   2.622  1.00  0.00     0.092 A 
HETATM   19  C18 UNK     1      -5.354  -1.379   2.123  1.00  0.00     0.039 A 
HETATM   20  C15 UNK     1      -4.850  -1.720   0.869  1.00  0.00     0.069 A 
BRANCH  20  21
HETATM   21  O3  UNK     1      -5.707  -1.974  -0.159  1.00  0.00    -0.356 OA
HETATM   22  C22 UNK     1      -7.102  -1.873   0.120  1.00  0.00     0.210 C 
ENDBRANCH  20  21
ENDBRANCH   9  10
ENDBRANCH   2   9
BRANCH   8  23
HETATM   23  C10 UNK     1       3.255   2.077  -2.944  1.00  0.00     0.032 A 
HETATM   24  C16 UNK     1       4.444   1.482  -2.521  1.00  0.00     0.018 A 
HETATM   25  C19 UNK     1       5.505   2.276  -2.087  1.00  0.00     0.020 A 
HETATM   26  C21 UNK     1       5.378   3.665  -2.075  1.00  0.00     0.011 A 
HETATM   27 Br1  UNK     1       6.816   4.740  -1.485  1.00  0.00    -0.051 Br
HETATM   28  C20 UNK     1       4.189   4.260  -2.497  1.00  0.00     0.020 A 
HETATM   29  C17 UNK     1       3.128   3.466  -2.932  1.00  0.00     0.018 A 
ENDBRANCH   8  23
TORSDOF 4
