REMARK  1 active torsions:
REMARK  status: ('A' for Active; 'I' for Inactive)
REMARK    1  A    between atoms: C3_7  and  N1_4 
ROOT
HETATM    1  O2  UNK     1      -2.710  -1.102  -0.186  1.00  0.00    -0.275 OA
HETATM    2  O3  UNK     1      -3.430  -1.168  -2.354  1.00  0.00    -0.260 OA
HETATM    3  C3  UNK     1      -0.333   0.139  -1.120  1.00  0.00     0.049 A 
HETATM    4  C6  UNK     1      -0.521  -0.131   0.318  1.00  0.00     0.025 A 
HETATM    5  C7  UNK     1      -1.706  -0.744   0.735  1.00  0.00     0.092 A 
HETATM    6  C8  UNK     1      -1.312  -0.217  -1.965  1.00  0.00     0.113 A 
HETATM    7  C9  UNK     1       0.418   0.187   1.311  1.00  0.00     0.023 A 
HETATM    8  C10 UNK     1       0.169  -0.101   2.659  1.00  0.00    -0.061 A 
HETATM    9  C11 UNK     1      -1.969  -1.037   2.076  1.00  0.00     0.039 A 
HETATM   10  C12 UNK     1      -2.565  -0.863  -1.542  1.00  0.00     0.290 A 
HETATM   11  C13 UNK     1      -1.023  -0.712   3.041  1.00  0.00     0.009 A 
HETATM   12  C14 UNK     1       1.186   0.250   3.693  1.00  0.00     0.048 C 
ENDROOT
BRANCH   3  13
HETATM   13  N1  UNK     1       0.815   0.736  -1.551  1.00  0.00    -0.376 N 
HETATM   14  C1  UNK     1       0.950   2.189  -1.658  1.00  0.00     0.149 C 
HETATM   15  C4  UNK     1       2.304   2.612  -1.100  1.00  0.00     0.187 C 
HETATM   16  O1  UNK     1       3.357   1.904  -1.759  1.00  0.00    -0.388 OA
HETATM   17  C5  UNK     1       3.240   0.495  -1.540  1.00  0.00     0.187 C 
HETATM   18  C2  UNK     1       1.929  -0.024  -2.118  1.00  0.00     0.149 C 
ENDBRANCH   3  13
TORSDOF 1
