REMARK  5 active torsions:
REMARK  status: ('A' for Active; 'I' for Inactive)
REMARK    1  A    between atoms: C10_15  and  O3_3 
REMARK    2  A    between atoms: C14_19  and  O4_4 
REMARK    3  A    between atoms: C3_8  and  C9_14 
REMARK    4  A    between atoms: C11_16  and  C7_12 
REMARK    5  A    between atoms: C12_17  and  C9_14 
ROOT
HETATM    1  C11 UNK     1      -1.158  -1.231  -0.214  1.00  0.00     0.018 C 
HETATM    2  C12 UNK     1      -0.287  -0.254  -0.508  1.00  0.00     0.056 C 
ENDROOT
BRANCH   2   3
HETATM    3  C9  UNK     1       0.633  -0.378  -1.689  1.00  0.00     0.182 C 
HETATM    4  O5  UNK     1       0.599  -1.387  -2.411  1.00  0.00    -0.288 OA
BRANCH   3   5
HETATM    5  C3  UNK     1       1.540   0.720  -1.985  1.00  0.00     0.017 A 
HETATM    6  C4  UNK     1       2.017   1.523  -0.946  1.00  0.00     0.055 A 
HETATM    7  C1  UNK     1       2.874   2.553  -1.276  1.00  0.00     0.105 A 
HETATM    8  O1  UNK     1       3.436   3.434  -0.404  1.00  0.00    -0.323 OA
HETATM    9  C2  UNK     1       3.253   2.792  -2.577  1.00  0.00     0.105 A 
HETATM   10  C8  UNK     1       4.211   4.254  -1.302  1.00  0.00     0.352 A 
HETATM   11  O2  UNK     1       4.099   3.853  -2.682  1.00  0.00    -0.323 OA
HETATM   12  C5  UNK     1       2.796   2.015  -3.621  1.00  0.00     0.040 A 
HETATM   13  C6  UNK     1       1.926   0.965  -3.315  1.00  0.00     0.018 A 
ENDBRANCH   3   5
ENDBRANCH   2   3
BRANCH   1  14
HETATM   14  C7  UNK     1      -2.107  -1.193   0.912  1.00  0.00    -0.000 A 
HETATM   15  C10 UNK     1      -3.344  -1.833   0.832  1.00  0.00     0.078 A 
HETATM   16  C15 UNK     1      -4.226  -1.783   1.911  1.00  0.00     0.040 A 
HETATM   17  C16 UNK     1      -3.872  -1.094   3.071  1.00  0.00     0.039 A 
HETATM   18  C14 UNK     1      -2.635  -0.454   3.151  1.00  0.00     0.069 A 
HETATM   19  C13 UNK     1      -1.753  -0.503   2.071  1.00  0.00     0.051 A 
BRANCH  15  20
HETATM   20  O3  UNK     1      -3.716  -2.514  -0.289  1.00  0.00    -0.355 OA
HETATM   21  C17 UNK     1      -4.410  -1.778  -1.294  1.00  0.00     0.210 C 
ENDBRANCH  15  20
BRANCH  18  22
HETATM   22  O4  UNK     1      -2.289   0.219   4.282  1.00  0.00    -0.356 OA
HETATM   23  C18 UNK     1      -3.239   0.230   5.347  1.00  0.00     0.210 C 
ENDBRANCH  18  22
ENDBRANCH   1  14
TORSDOF 5
