REMARK  5 active torsions:
REMARK  status: ('A' for Active; 'I' for Inactive)
REMARK    1  A    between atoms: C13_22  and  O4_5 
REMARK    2  A    between atoms: C21_30  and  O4_5 
REMARK    3  A    between atoms: C9_18  and  N2_9 
REMARK    4  A    between atoms: C13_22  and  C4_13 
REMARK    5  A    between atoms: C21_30  and  C22_31 
ROOT
HETATM    1 Br1  UNK     1      -1.768  -3.386  -2.342  1.00  0.00    -0.051 Br
HETATM    2  O1  UNK     1       2.593   0.351   1.536  1.00  0.00    -0.287 OA
HETATM    3  O2  UNK     1       4.607   0.681  -1.474  1.00  0.00    -0.273 OA
HETATM    4  O3  UNK     1       0.418   3.619   0.042  1.00  0.00    -0.271 OA
HETATM    5  O6  UNK     1       5.100   0.118   0.669  1.00  0.00    -0.257 OA
HETATM    6  N1  UNK     1      -1.293   2.487  -1.110  1.00  0.00    -0.325 N 
HETATM    7  C1  UNK     1       0.438   1.143  -0.176  1.00  0.00     0.138 A 
HETATM    8  C2  UNK     1      -0.559   0.325  -0.974  1.00  0.00    -0.003 A 
HETATM    9  C3  UNK     1       1.888   1.029  -0.668  1.00  0.00     0.023 A 
HETATM   10  C4  UNK     1       0.289   0.860   1.324  1.00  0.00     0.095 A 
HETATM   11  C5  UNK     1      -0.097   2.593  -0.378  1.00  0.00     0.245 A 
HETATM   12  C6  UNK     1      -1.561   1.166  -1.466  1.00  0.00     0.043 A 
HETATM   13  C7  UNK     1       2.840   0.637   0.207  1.00  0.00     0.162 A 
HETATM   14  C8  UNK     1       2.319   1.315  -2.065  1.00  0.00     0.009 A 
HETATM   15  C9  UNK     1       1.332   0.490   2.092  1.00  0.00     0.156 A 
HETATM   16  C10 UNK     1      -0.602  -1.036  -1.221  1.00  0.00     0.030 A 
HETATM   17  C11 UNK     1      -2.624   0.698  -2.212  1.00  0.00     0.031 A 
HETATM   18  C12 UNK     1       3.659   1.117  -2.411  1.00  0.00     0.090 A 
HETATM   19  C14 UNK     1       4.262   0.460  -0.160  1.00  0.00     0.323 A 
HETATM   20  C15 UNK     1      -1.668  -1.533  -1.976  1.00  0.00     0.011 A 
HETATM   21  C16 UNK     1       1.493   1.778  -3.099  1.00  0.00     0.015 A 
HETATM   22  C17 UNK     1      -2.670  -0.674  -2.466  1.00  0.00     0.021 A 
HETATM   23  C18 UNK     1       4.164   1.344  -3.698  1.00  0.00     0.038 A 
HETATM   24  C19 UNK     1       1.978   2.013  -4.394  1.00  0.00     0.001 A 
HETATM   25  C20 UNK     1       3.314   1.793  -4.696  1.00  0.00     0.003 A 
HETATM   26  H1  UNK     1      -1.877   3.269  -1.381  1.00  0.00     0.169 HD
ENDROOT
BRANCH  10  27
HETATM   27  C13 UNK     1      -1.042   0.992   1.958  1.00  0.00     0.295 C 
HETATM   28  O5  UNK     1      -1.441   2.027   2.448  1.00  0.00    -0.259 OA
BRANCH  27  29
HETATM   29  O4  UNK     1      -1.666  -0.205   1.876  1.00  0.00    -0.313 OA
BRANCH  29  30
HETATM   30  C21 UNK     1      -2.976  -0.239   2.450  1.00  0.00     0.217 C 
BRANCH  30  31
HETATM   31  C22 UNK     1      -3.547  -1.617   2.289  1.00  0.00    -0.034 A 
HETATM   32  C23 UNK     1      -4.283  -1.929   1.152  1.00  0.00     0.009 A 
HETATM   33  C25 UNK     1      -4.812  -3.211   1.002  1.00  0.00     0.001 A 
HETATM   34  C27 UNK     1      -4.603  -4.172   1.990  1.00  0.00     0.000 A 
HETATM   35  C26 UNK     1      -3.864  -3.852   3.129  1.00  0.00     0.001 A 
HETATM   36  C24 UNK     1      -3.334  -2.570   3.279  1.00  0.00     0.009 A 
ENDBRANCH  30  31
ENDBRANCH  29  30
ENDBRANCH  27  29
ENDBRANCH  10  27
BRANCH  15  37
HETATM   37  N2  UNK     1       1.314   0.210   3.429  1.00  0.00    -0.379 N 
HETATM   38  H7  UNK     1       2.175  -0.062   3.885  1.00  0.00     0.158 HD
HETATM   39  H8  UNK     1       0.453   0.269   3.957  1.00  0.00     0.158 HD
ENDBRANCH  15  37
TORSDOF 5
