REMARK  6 active torsions:
REMARK  status: ('A' for Active; 'I' for Inactive)
REMARK    1  A    between atoms: C19_26  and  O4_4 
REMARK    2  A    between atoms: C5_12  and  N1_5 
REMARK    3  A    between atoms: C6_13  and  N2_6 
REMARK    4  A    between atoms: C17_24  and  N3_7 
REMARK       I    between atoms: C9_16  and  N3_7 
REMARK    5  A    between atoms: C5_12  and  C7_14 
REMARK    6  A    between atoms: C6_13  and  C9_16 
ROOT
HETATM    1  N1  UNK     1       1.999  -0.177  -0.426  1.00  0.00     0.096 N 
HETATM    2  N2  UNK     1      -0.026  -1.198   1.367  1.00  0.00     0.100 N 
HETATM    3  C1  UNK     1       0.715  -0.677  -0.932  1.00  0.00     0.303 C 
HETATM    4  C2  UNK     1       2.360  -0.861   0.822  1.00  0.00     0.303 C 
HETATM    5  C3  UNK     1      -0.388  -0.514   0.119  1.00  0.00     0.303 C 
HETATM    6  C4  UNK     1       1.257  -0.696   1.873  1.00  0.00     0.303 C 
ENDROOT
BRANCH   1   7
HETATM    7  C5  UNK     1       3.050  -0.337  -1.429  1.00  0.00     0.312 C 
BRANCH   7   8
HETATM    8  C7  UNK     1       3.011   0.736  -2.461  1.00  0.00    -0.011 A 
HETATM    9  C10 UNK     1       2.286   0.596  -3.580  1.00  0.00     0.092 A 
HETATM   10  C13 UNK     1       2.217   1.629  -4.627  1.00  0.00     0.288 A 
HETATM   11  O1  UNK     1       2.948   2.786  -4.409  1.00  0.00    -0.275 OA
HETATM   12  O3  UNK     1       1.542   1.466  -5.637  1.00  0.00    -0.260 OA
HETATM   13  C11 UNK     1       3.720   2.963  -3.243  1.00  0.00     0.090 A 
HETATM   14  C14 UNK     1       4.416   4.168  -3.131  1.00  0.00     0.045 A 
HETATM   15  C8  UNK     1       3.776   1.974  -2.259  1.00  0.00     0.006 A 
HETATM   16  C15 UNK     1       5.194   4.398  -2.002  1.00  0.00    -0.059 A 
HETATM   17  C16 UNK     1       5.270   3.429  -1.003  1.00  0.00     0.007 A 
HETATM   18  C18 UNK     1       5.947   5.678  -1.860  1.00  0.00     0.048 C 
HETATM   19  C12 UNK     1       4.566   2.226  -1.130  1.00  0.00     0.015 A 
ENDBRANCH   7   8
ENDBRANCH   1   7
BRANCH   2  20
HETATM   20  C6  UNK     1      -1.077  -1.040   2.369  1.00  0.00     0.375 C 
BRANCH  20  21
HETATM   21  C9  UNK     1      -2.196  -2.029   2.089  1.00  0.00     0.250 C 
HETATM   22  O2  UNK     1      -1.998  -3.119   1.562  1.00  0.00    -0.271 OA
HETATM   23  N3  UNK     1      -3.416  -1.510   2.517  1.00  0.00    -0.323 N 
HETATM   24  H15 UNK     1      -3.414  -0.590   2.952  1.00  0.00     0.169 HD
BRANCH  23  25
HETATM   25  C17 UNK     1      -4.690  -2.121   2.435  1.00  0.00     0.068 A 
HETATM   26  C19 UNK     1      -5.825  -1.465   2.913  1.00  0.00     0.095 A 
HETATM   27  C21 UNK     1      -7.074  -2.079   2.825  1.00  0.00     0.039 A 
HETATM   28  C23 UNK     1      -7.189  -3.349   2.259  1.00  0.00     0.003 A 
HETATM   29  C22 UNK     1      -6.054  -4.004   1.781  1.00  0.00     0.002 A 
HETATM   30  C20 UNK     1      -4.805  -3.390   1.869  1.00  0.00     0.032 A 
BRANCH  26  31
HETATM   31  O4  UNK     1      -5.735  -0.224   3.470  1.00  0.00    -0.354 OA
HETATM   32  C24 UNK     1      -5.871   0.891   2.592  1.00  0.00     0.210 C 
ENDBRANCH  26  31
ENDBRANCH  23  25
ENDBRANCH  20  21
ENDBRANCH   2  20
TORSDOF 6
