REMARK  2 active torsions:
REMARK  status: ('A' for Active; 'I' for Inactive)
REMARK    1  A    between atoms: C16_21  and  O3_3 
REMARK    2  A    between atoms: C14_19  and  C16_21 
ROOT
HETATM    1  O1  UNK     1      -1.780  -0.523  -0.906  1.00  0.00    -0.273 OA
HETATM    2  O2  UNK     1      -3.792  -1.493  -0.425  1.00  0.00    -0.259 OA
HETATM    3  N1  UNK     1       2.474   1.597  -1.959  1.00  0.00    -0.380 N 
HETATM    4  C1  UNK     1       1.587   1.045  -1.030  1.00  0.00     0.045 A 
HETATM    5  C2  UNK     1       2.012   1.851  -3.320  1.00  0.00     0.123 C 
HETATM    6  C3  UNK     1       0.347   0.502  -1.440  1.00  0.00     0.004 A 
HETATM    7  C4  UNK     1       3.642   2.332  -1.484  1.00  0.00     0.123 C 
HETATM    8  C5  UNK     1       1.925   0.981   0.344  1.00  0.00    -0.030 A 
HETATM    9  C6  UNK     1      -0.057   0.529  -2.895  1.00  0.00     0.045 C 
HETATM   10  C7  UNK     1       1.150   0.697  -3.810  1.00  0.00     0.025 C 
HETATM   11  C8  UNK     1       4.261   1.630  -0.284  1.00  0.00     0.024 C 
HETATM   12  C9  UNK     1       3.240   1.534   0.841  1.00  0.00     0.042 C 
HETATM   13  C10 UNK     1      -0.529  -0.022  -0.475  1.00  0.00     0.098 A 
HETATM   14  C11 UNK     1       1.026   0.446   1.282  1.00  0.00     0.023 A 
HETATM   15  C12 UNK     1      -0.208  -0.056   0.876  1.00  0.00     0.000 A 
HETATM   16  C13 UNK     1      -1.161  -0.613   1.823  1.00  0.00     0.039 A 
HETATM   17  C14 UNK     1      -2.339  -1.087   1.401  1.00  0.00     0.114 A 
HETATM   18  C15 UNK     1      -2.715  -1.063  -0.028  1.00  0.00     0.305 A 
ENDROOT
BRANCH  17  19
HETATM   19  C16 UNK     1      -3.230  -1.629   2.434  1.00  0.00     0.182 C 
HETATM   20  O4  UNK     1      -3.261  -1.243   3.587  1.00  0.00    -0.646 OA
BRANCH  19  21
HETATM   21  O3  UNK     1      -3.994  -2.604   1.901  1.00  0.00    -0.772 OA
HETATM   22  H15 UNK     1      -4.607  -2.994   2.561  1.00  0.00     0.167 HD
ENDBRANCH  19  21
ENDBRANCH  17  19
TORSDOF 2
