REMARK  5 active torsions:
REMARK  status: ('A' for Active; 'I' for Inactive)
REMARK    1  A    between atoms: C15_19  and  O2_2 
REMARK    2  A    between atoms: C7_11  and  O2_2 
REMARK    3  A    between atoms: C3_7  and  C8_12 
REMARK    4  A    between atoms: C10_14  and  C5_9 
REMARK    5  A    between atoms: C15_19  and  C16_20 
ROOT
HETATM    1  O1  UNK     1      -0.497  -0.705   2.094  1.00  0.00    -0.274 OA
HETATM    2  O3  UNK     1      -1.941  -1.385   3.709  1.00  0.00    -0.259 OA
HETATM    3  C1  UNK     1      -1.207  -0.624  -0.231  1.00  0.00     0.005 A 
HETATM    4  C2  UNK     1      -2.546  -1.095   0.180  1.00  0.00    -0.037 A 
HETATM    5  C3  UNK     1       0.443   0.092  -1.882  1.00  0.00    -0.024 A 
HETATM    6  C4  UNK     1      -0.229  -0.444   0.742  1.00  0.00     0.093 A 
HETATM    7  C5  UNK     1      -2.780  -1.376   1.479  1.00  0.00     0.024 A 
HETATM    8  C6  UNK     1      -0.845  -0.351  -1.560  1.00  0.00     0.024 A 
HETATM    9  C7  UNK     1       1.396   0.269  -0.883  1.00  0.00     0.078 A 
HETATM   10  C9  UNK     1       1.061  -0.002   0.439  1.00  0.00     0.075 A 
HETATM   11  C11 UNK     1      -1.731  -1.167   2.519  1.00  0.00     0.295 A 
HETATM   12  C12 UNK     1      -3.590  -1.218  -0.903  1.00  0.00     0.050 C 
ENDROOT
BRANCH   9  13
HETATM   13  O2  UNK     1       2.652   0.700  -1.181  1.00  0.00    -0.343 OA
BRANCH  13  14
HETATM   14  C15 UNK     1       3.080   1.920  -0.578  1.00  0.00     0.253 C 
BRANCH  14  15
HETATM   15  C16 UNK     1       4.085   2.629  -1.460  1.00  0.00     0.146 C 
HETATM   16  O4  UNK     1       4.442   2.178  -2.547  1.00  0.00    -0.296 OA
HETATM   17  C17 UNK     1       4.632   3.931  -0.935  1.00  0.00     0.093 C 
ENDBRANCH  14  15
ENDBRANCH  13  14
ENDBRANCH   9  13
BRANCH   5  18
HETATM   18  C8  UNK     1       0.780   0.371  -3.311  1.00  0.00     0.037 C 
HETATM   19  C13 UNK     1       0.490   1.817  -3.701  1.00  0.00     0.010 C 
ENDBRANCH   5  18
BRANCH   7  20
HETATM   20  C10 UNK     1      -4.076  -1.921   2.023  1.00  0.00     0.041 C 
HETATM   21  C14 UNK     1      -5.021  -0.808   2.421  1.00  0.00     0.010 C 
ENDBRANCH   7  20
TORSDOF 5
