REMARK  2 active torsions:
REMARK  status: ('A' for Active; 'I' for Inactive)
REMARK       I    between atoms: C10_16  and  N1_5 
REMARK    1  A    between atoms: C4_10  and  N1_5 
REMARK    2  A    between atoms: C10_16  and  C6_12 
ROOT
HETATM    1  S1  UNK     1      -0.403   0.048   2.394  1.00  0.00    -0.075 SA
HETATM    2  N2  UNK     1      -2.793  -1.407  -1.859  1.00  0.00    -0.191 NA
HETATM    3  C1  UNK     1      -2.535  -1.224   1.734  1.00  0.00     0.011 A 
HETATM    4  C2  UNK     1      -1.827  -0.794   2.835  1.00  0.00    -0.006 A 
HETATM    5  C3  UNK     1      -1.900  -0.856   0.513  1.00  0.00     0.090 A 
HETATM    6  C4  UNK     1      -0.750  -0.171   0.745  1.00  0.00     0.099 A 
HETATM    7  C5  UNK     1      -3.769  -1.955   1.892  1.00  0.00    -0.023 A 
HETATM    8  C8  UNK     1      -2.131  -0.963   4.276  1.00  0.00     0.057 C 
HETATM    9  C12 UNK     1      -3.743  -3.344   1.977  1.00  0.00     0.012 A 
HETATM   10  C13 UNK     1      -4.976  -1.267   1.959  1.00  0.00     0.012 A 
HETATM   11  C17 UNK     1      -4.935  -4.051   2.130  1.00  0.00     0.001 A 
HETATM   12  C18 UNK     1      -6.169  -1.973   2.113  1.00  0.00     0.001 A 
HETATM   13  C20 UNK     1      -6.149  -3.366   2.198  1.00  0.00     0.000 A 
HETATM   14  C22 UNK     1      -2.393  -1.160  -0.797  1.00  0.00     0.103 C 
ENDROOT
BRANCH   6  15
HETATM   15  N1  UNK     1       0.180   0.374  -0.146  1.00  0.00    -0.316 N 
HETATM   16  C10 UNK     1       1.335   1.063   0.198  1.00  0.00     0.262 C 
HETATM   17  O2  UNK     1       1.766   1.327   1.319  1.00  0.00    -0.267 OA
HETATM   18  H1  UNK     1      -0.036   0.215  -1.126  1.00  0.00     0.170 HD
BRANCH  16  19
HETATM   19  C6  UNK     1       2.084   1.500  -0.986  1.00  0.00     0.108 A 
HETATM   20  C14 UNK     1       1.412   1.822  -2.265  1.00  0.00     0.304 A 
HETATM   21  O1  UNK     1       2.231   2.226  -3.317  1.00  0.00    -0.274 OA
HETATM   22  O3  UNK     1       0.196   1.741  -2.398  1.00  0.00    -0.259 OA
HETATM   23  C11 UNK     1       3.629   2.324  -3.175  1.00  0.00     0.089 A 
HETATM   24  C7  UNK     1       4.239   2.016  -1.964  1.00  0.00    -0.001 A 
HETATM   25  C16 UNK     1       4.364   2.738  -4.284  1.00  0.00     0.038 A 
HETATM   26  C15 UNK     1       5.629   2.125  -1.862  1.00  0.00     0.014 A 
HETATM   27  C9  UNK     1       3.411   1.591  -0.846  1.00  0.00     0.037 A 
HETATM   28  C19 UNK     1       6.380   2.539  -2.966  1.00  0.00     0.001 A 
HETATM   29  C21 UNK     1       5.749   2.844  -4.174  1.00  0.00     0.003 A 
ENDBRANCH  16  19
ENDBRANCH   6  15
TORSDOF 2
