REMARK  3 active torsions:
REMARK  status: ('A' for Active; 'I' for Inactive)
REMARK       I    between atoms: C10_16  and  N1_4 
REMARK    1  A    between atoms: C7_13  and  N1_4 
REMARK    2  A    between atoms: C10_16  and  C2_8 
REMARK    3  A    between atoms: C18_24  and  C8_14 
ROOT
HETATM    1  N2  UNK     1       3.522   2.092  -1.431  1.00  0.00    -0.246 NA
HETATM    2  C1  UNK     1       2.334   1.069   0.399  1.00  0.00     0.009 A 
HETATM    3  C2  UNK     1       1.441   0.512  -0.515  1.00  0.00     0.047 A 
HETATM    4  C3  UNK     1       3.379   1.868  -0.111  1.00  0.00     0.069 A 
HETATM    5  C5  UNK     1       2.215   0.856   1.783  1.00  0.00     0.021 A 
HETATM    6  C6  UNK     1       1.575   0.734  -1.871  1.00  0.00     0.052 A 
HETATM    7  C8  UNK     1       2.629   1.528  -2.276  1.00  0.00     0.087 A 
HETATM    8  C9  UNK     1       3.127   1.429   2.665  1.00  0.00    -0.061 A 
HETATM    9  C12 UNK     1       4.276   2.428   0.793  1.00  0.00     0.033 A 
HETATM   10  C16 UNK     1       4.158   2.217   2.169  1.00  0.00     0.009 A 
HETATM   11  C19 UNK     1       2.997   1.201   4.133  1.00  0.00     0.048 C 
ENDROOT
BRANCH   3  12
HETATM   12  C10 UNK     1       0.313  -0.337  -0.092  1.00  0.00     0.257 C 
HETATM   13  O2  UNK     1       0.451  -1.551   0.042  1.00  0.00    -0.267 OA
HETATM   14  N1  UNK     1      -0.887   0.352   0.175  1.00  0.00    -0.323 N 
HETATM   15  H5  UNK     1      -0.871   1.360   0.031  1.00  0.00     0.169 HD
BRANCH  14  16
HETATM   16  C7  UNK     1      -2.103  -0.165   0.622  1.00  0.00     0.037 A 
HETATM   17  C13 UNK     1      -2.237  -1.528   0.862  1.00  0.00     0.067 A 
HETATM   18  C11 UNK     1      -3.463  -2.024   1.309  1.00  0.00     0.092 A 
HETATM   19  O1  UNK     1      -3.537  -3.413   1.535  1.00  0.00    -0.275 OA
HETATM   20  C4  UNK     1      -4.567  -1.198   1.527  1.00  0.00     0.004 A 
HETATM   21  C22 UNK     1      -4.704  -4.014   1.980  1.00  0.00     0.288 A 
HETATM   22  C20 UNK     1      -5.860  -3.130   2.205  1.00  0.00     0.090 A 
HETATM   23  O3  UNK     1      -4.780  -5.222   2.179  1.00  0.00    -0.260 OA
HETATM   24  C14 UNK     1      -5.818  -1.806   1.999  1.00  0.00    -0.043 A 
HETATM   25  C21 UNK     1      -7.023  -0.944   2.242  1.00  0.00     0.049 C 
HETATM   26  C15 UNK     1      -4.412   0.172   1.279  1.00  0.00     0.017 A 
HETATM   27  C17 UNK     1      -3.189   0.684   0.830  1.00  0.00     0.030 A 
ENDBRANCH  14  16
ENDBRANCH   3  12
BRANCH   7  28
HETATM   28  C18 UNK     1       2.850   1.816  -3.673  1.00  0.00     0.085 A 
HETATM   29  C23 UNK     1       4.127   2.045  -4.161  1.00  0.00     0.034 A 
HETATM   30  C24 UNK     1       4.267   2.316  -5.517  1.00  0.00     0.004 A 
HETATM   31  C26 UNK     1       3.141   2.350  -6.333  1.00  0.00     0.019 A 
HETATM   32  C25 UNK     1       1.909   2.108  -5.749  1.00  0.00     0.117 A 
HETATM   33  N3  UNK     1       1.733   1.840  -4.435  1.00  0.00    -0.259 NA
ENDBRANCH   7  28
TORSDOF 3
