REMARK  2 active torsions:
REMARK  status: ('A' for Active; 'I' for Inactive)
REMARK    1  A    between atoms: C11_19  and  N1_6 
REMARK       I    between atoms: C8_16  and  N1_6 
REMARK    2  A    between atoms: C3_11  and  C8_16 
ROOT
HETATM    1 Br1  UNK     1       5.847   3.057  -1.583  1.00  0.00    -0.051 Br
HETATM    2  O1  UNK     1       0.592   0.436  -0.119  1.00  0.00    -0.304 OA
HETATM    3  O2  UNK     1       1.292   1.216  -4.060  1.00  0.00    -0.287 OA
HETATM    4  C1  UNK     1       2.073   1.324  -1.830  1.00  0.00     0.049 A 
HETATM    5  C2  UNK     1       1.770   1.029  -0.499  1.00  0.00     0.090 A 
HETATM    6  C3  UNK     1      -0.319   0.124  -1.106  1.00  0.00     0.147 A 
HETATM    7  C4  UNK     1       1.092   0.986  -2.875  1.00  0.00     0.187 A 
HETATM    8  C5  UNK     1      -0.159   0.350  -2.415  1.00  0.00     0.098 A 
HETATM    9  C6  UNK     1       3.288   1.929  -2.160  1.00  0.00     0.037 A 
HETATM   10  C7  UNK     1       2.683   1.340   0.509  1.00  0.00     0.039 A 
HETATM   11  C9  UNK     1       4.199   2.238  -1.149  1.00  0.00     0.012 A 
HETATM   12  C10 UNK     1       3.897   1.945   0.182  1.00  0.00     0.022 A 
ENDROOT
BRANCH   6  13
HETATM   13  C8  UNK     1      -1.568  -0.509  -0.679  1.00  0.00     0.281 C 
HETATM   14  O3  UNK     1      -2.418  -0.809  -1.519  1.00  0.00    -0.265 OA
HETATM   15  N1  UNK     1      -1.617  -0.690   0.698  1.00  0.00    -0.298 N 
HETATM   16  H5  UNK     1      -0.830  -0.387   1.266  1.00  0.00     0.171 HD
BRANCH  15  17
HETATM   17  C11 UNK     1      -2.668  -1.264   1.419  1.00  0.00     0.196 A 
HETATM   18  S1  UNK     1      -2.447  -1.353   3.105  1.00  0.00    -0.034 SA
HETATM   19  C12 UNK     1      -3.999  -2.083   3.149  1.00  0.00     0.097 A 
HETATM   20  N3  UNK     1      -4.578  -2.219   1.975  1.00  0.00    -0.145 NA
HETATM   21  C13 UNK     1      -4.580  -2.503   4.439  1.00  0.00     0.081 C 
HETATM   22  N2  UNK     1      -3.784  -1.732   0.951  1.00  0.00    -0.123 NA
ENDBRANCH  15  17
ENDBRANCH   6  13
TORSDOF 2
