REMARK  3 active torsions:
REMARK  status: ('A' for Active; 'I' for Inactive)
REMARK    1  A    between atoms: C11_14  and  O2_2 
REMARK    2  A    between atoms: C6_9  and  O2_2 
REMARK    3  A    between atoms: C11_14  and  C12_15 
ROOT
HETATM    1  O1  UNK     1      -0.435  -0.476   1.870  1.00  0.00    -0.275 OA
HETATM    2  O3  UNK     1      -1.710  -1.021   3.689  1.00  0.00    -0.260 OA
HETATM    3  C1  UNK     1      -1.457  -0.474  -0.349  1.00  0.00     0.004 A 
HETATM    4  C2  UNK     1      -0.347  -0.287   0.476  1.00  0.00     0.092 A 
HETATM    5  C3  UNK     1      -2.730  -0.875   0.265  1.00  0.00    -0.043 A 
HETATM    6  C4  UNK     1      -1.288  -0.266  -1.724  1.00  0.00     0.017 A 
HETATM    7  C5  UNK     1       0.899   0.093  -0.026  1.00  0.00     0.075 A 
HETATM    8  C6  UNK     1       1.047   0.294  -1.394  1.00  0.00     0.071 A 
HETATM    9  C7  UNK     1      -0.045   0.116  -2.242  1.00  0.00     0.038 A 
HETATM   10  C8  UNK     1      -2.785  -1.047   1.594  1.00  0.00     0.090 A 
HETATM   11  C9  UNK     1      -3.943  -1.084  -0.594  1.00  0.00     0.049 C 
HETATM   12  C10 UNK     1      -1.622  -0.854   2.477  1.00  0.00     0.288 A 
ENDROOT
BRANCH   8  13
HETATM   13  O2  UNK     1       2.253   0.665  -1.903  1.00  0.00    -0.347 OA
BRANCH  13  14
HETATM   14  C11 UNK     1       3.102   1.443  -1.061  1.00  0.00     0.202 C 
BRANCH  14  15
HETATM   15  C12 UNK     1       3.984   2.289  -1.919  1.00  0.00    -0.011 C 
HETATM   16  C13 UNK     1       4.008   3.626  -1.877  1.00  0.00     0.009 C 
ENDBRANCH  14  15
ENDBRANCH  13  14
ENDBRANCH   8  13
TORSDOF 3
