REMARK  1 active torsions:
REMARK  status: ('A' for Active; 'I' for Inactive)
REMARK    1  A    between atoms: C10_14  and  C5_9 
ROOT
HETATM    1  F1  UNK     1      -3.737  -1.616   0.147  1.00  0.00    -0.206 F 
HETATM    2  O1  UNK     1       1.155   0.514   1.485  1.00  0.00    -0.321 OA
HETATM    3  O2  UNK     1       0.095   0.473  -2.458  1.00  0.00    -0.286 OA
HETATM    4  C1  UNK     1      -0.476  -0.050  -0.227  1.00  0.00     0.052 A 
HETATM    5  C2  UNK     1      -0.057  -0.008   1.103  1.00  0.00     0.089 A 
HETATM    6  C3  UNK     1       0.412   0.485  -1.277  1.00  0.00     0.200 A 
HETATM    7  C4  UNK     1      -1.720  -0.594  -0.557  1.00  0.00     0.060 A 
HETATM    8  C5  UNK     1       1.704   1.035  -0.812  1.00  0.00     0.075 A 
HETATM    9  C6  UNK     1      -0.881  -0.508   2.112  1.00  0.00     0.041 A 
HETATM   10  C7  UNK     1      -2.542  -1.094   0.455  1.00  0.00     0.117 A 
HETATM   11  C8  UNK     1      -2.123  -1.051   1.785  1.00  0.00     0.045 A 
HETATM   12  C9  UNK     1       1.973   1.010   0.497  1.00  0.00     0.161 A 
ENDROOT
BRANCH   8  13
HETATM   13  C10 UNK     1       2.709   1.607  -1.708  1.00  0.00     0.276 C 
HETATM   14  O3  UNK     1       2.552   1.672  -2.922  1.00  0.00    -0.301 OA
ENDBRANCH   8  13
TORSDOF 1
