REMARK  0 active torsions:
REMARK  status: ('A' for Active; 'I' for Inactive)
ROOT
HETATM    1 Cl1  UNK     1      -2.055  -0.519  -2.560  1.00  0.00    -0.083 Cl
HETATM    2  O1  UNK     1      -0.514  -0.288   1.701  1.00  0.00    -0.275 OA
HETATM    3  O2  UNK     1      -2.465  -1.279   2.368  1.00  0.00    -0.260 OA
HETATM    4  C1  UNK     1      -0.140   0.158  -0.673  1.00  0.00     0.020 A 
HETATM    5  C2  UNK     1       0.292   0.208   0.654  1.00  0.00     0.091 A 
HETATM    6  C3  UNK     1       1.963   1.211  -1.304  1.00  0.00    -0.061 A 
HETATM    7  C4  UNK     1       0.719   0.671  -1.654  1.00  0.00     0.022 A 
HETATM    8  C5  UNK     1       1.529   0.743   1.018  1.00  0.00     0.039 A 
HETATM    9  C6  UNK     1       2.367   1.247   0.029  1.00  0.00     0.009 A 
HETATM   10  C7  UNK     1      -1.455  -0.425  -0.943  1.00  0.00     0.052 A 
HETATM   11  C8  UNK     1       2.861   1.752  -2.366  1.00  0.00     0.048 C 
HETATM   12  C9  UNK     1      -2.207  -0.893   0.060  1.00  0.00     0.107 A 
HETATM   13  C10 UNK     1      -1.762  -0.846   1.462  1.00  0.00     0.289 A 
ENDROOT
TORSDOF 0
