REMARK  8 active torsions:
REMARK  status: ('A' for Active; 'I' for Inactive)
REMARK    1  A    between atoms: C10_15  and  O1_1 
REMARK    2  A    between atoms: C4_9  and  O1_1 
REMARK    3  A    between atoms: C16_21  and  O3_3 
REMARK    4  A    between atoms: C19_24  and  O3_3 
REMARK    5  A    between atoms: C2_7  and  C9_14 
REMARK    6  A    between atoms: C11_16  and  C7_12 
REMARK    7  A    between atoms: C10_15  and  C12_17 
REMARK    8  A    between atoms: C10_15  and  C16_21 
ROOT
HETATM    1  O2  UNK     1      -0.620  -0.935   2.109  1.00  0.00    -0.274 OA
HETATM    2  O4  UNK     1      -1.440  -1.648   4.102  1.00  0.00    -0.259 OA
HETATM    3  C1  UNK     1      -2.070  -0.813   0.159  1.00  0.00     0.005 A 
HETATM    4  C2  UNK     1      -1.067  -0.061  -1.937  1.00  0.00    -0.024 A 
HETATM    5  C3  UNK     1      -3.194  -1.296   0.987  1.00  0.00    -0.037 A 
HETATM    6  C4  UNK     1       0.166   0.099  -1.312  1.00  0.00     0.079 A 
HETATM    7  C5  UNK     1      -0.821  -0.648   0.750  1.00  0.00     0.093 A 
HETATM    8  C6  UNK     1      -2.174  -0.514  -1.208  1.00  0.00     0.024 A 
HETATM    9  C7  UNK     1      -2.980  -1.601   2.285  1.00  0.00     0.024 A 
HETATM   10  C8  UNK     1       0.294  -0.196   0.040  1.00  0.00     0.075 A 
HETATM   11  C13 UNK     1      -1.642  -1.409   2.915  1.00  0.00     0.295 A 
HETATM   12  C14 UNK     1      -4.541  -1.402   0.316  1.00  0.00     0.050 C 
ENDROOT
BRANCH   6  13
HETATM   13  O1  UNK     1       1.251   0.540  -2.007  1.00  0.00    -0.335 OA
BRANCH  13  14
HETATM   14  C10 UNK     1       1.860   1.750  -1.560  1.00  0.00     0.228 C 
BRANCH  14  15
HETATM   15  C12 UNK     1       1.842   2.769  -2.698  1.00  0.00     0.038 C 
HETATM   16  C18 UNK     1       2.564   2.262  -3.939  1.00  0.00     0.008 C 
ENDBRANCH  14  15
BRANCH  14  17
HETATM   17  C16 UNK     1       3.281   1.431  -1.136  1.00  0.00     0.288 C 
HETATM   18  O5  UNK     1       3.802   0.327  -1.229  1.00  0.00    -0.262 OA
BRANCH  17  19
HETATM   19  O3  UNK     1       3.869   2.549  -0.618  1.00  0.00    -0.320 OA
BRANCH  19  20
HETATM   20  C19 UNK     1       5.211   2.381  -0.151  1.00  0.00     0.174 C 
HETATM   21  C20 UNK     1       5.715   3.703   0.388  1.00  0.00     0.034 C 
ENDBRANCH  19  20
ENDBRANCH  17  19
ENDBRANCH  14  17
ENDBRANCH  13  14
ENDBRANCH   6  13
BRANCH   4  22
HETATM   22  C9  UNK     1      -1.229   0.245  -3.390  1.00  0.00     0.037 C 
HETATM   23  C15 UNK     1      -0.955  -0.970  -4.271  1.00  0.00     0.010 C 
ENDBRANCH   4  22
BRANCH   9  24
HETATM   24  C11 UNK     1      -4.019  -2.160   3.222  1.00  0.00     0.041 C 
HETATM   25  C17 UNK     1      -4.772  -1.057   3.934  1.00  0.00     0.010 C 
ENDBRANCH   9  24
TORSDOF 8
