REMARK  6 active torsions:
REMARK  status: ('A' for Active; 'I' for Inactive)
REMARK    1  A    between atoms: C9_18  and  O2_5 
REMARK    2  A    between atoms: C18_27  and  O4_7 
REMARK    3  A    between atoms: C5_14  and  N1_8 
REMARK    4  A    between atoms: C5_14  and  C6_15 
REMARK    5  A    between atoms: C14_23  and  C16_25 
REMARK    6  A    between atoms: C15_24  and  C17_26 
ROOT
HETATM    1  O1  UNK     1       0.518  -0.558   0.101  1.00  0.00    -0.303 OA
HETATM    2  O3  UNK     1      -3.279  -0.787  -1.350  1.00  0.00    -0.286 OA
HETATM    3  C6  UNK     1       1.346   0.086  -2.012  1.00  0.00     0.038 A 
HETATM    4  C8  UNK     1       0.265  -0.276  -1.214  1.00  0.00     0.101 A 
HETATM    5  C9  UNK     1       1.163   0.387  -3.356  1.00  0.00     0.076 A 
HETATM    6  C10 UNK     1      -1.009  -0.336  -1.769  1.00  0.00     0.050 A 
HETATM    7  C11 UNK     1      -0.115   0.326  -3.911  1.00  0.00     0.038 A 
HETATM    8  C12 UNK     1      -1.205  -0.036  -3.119  1.00  0.00     0.021 A 
HETATM    9  C13 UNK     1      -2.138  -0.720  -0.910  1.00  0.00     0.198 A 
HETATM   10  C14 UNK     1      -1.816  -1.020   0.513  1.00  0.00     0.067 A 
HETATM   11  C15 UNK     1      -0.536  -0.925   0.929  1.00  0.00     0.174 A 
ENDROOT
BRANCH   3  12
HETATM   12  C5  UNK     1       2.730   0.152  -1.422  1.00  0.00     0.317 C 
BRANCH  12  13
HETATM   13  N1  UNK     1       3.440   1.361  -1.835  1.00  0.00     0.096 N 
HETATM   14  C1  UNK     1       4.809   1.368  -1.304  1.00  0.00     0.303 C 
HETATM   15  C3  UNK     1       5.554   2.636  -1.736  1.00  0.00     0.302 C 
HETATM   16  N2  UNK     1       4.832   3.839  -1.304  1.00  0.00     0.087 N 
HETATM   17  C4  UNK     1       3.462   3.832  -1.833  1.00  0.00     0.302 C 
HETATM   18  C7  UNK     1       5.542   5.047  -1.719  1.00  0.00     0.310 C 
HETATM   19  C2  UNK     1       2.718   2.563  -1.403  1.00  0.00     0.303 C 
ENDBRANCH  12  13
ENDBRANCH   3  12
BRANCH   5  20
HETATM   20  O2  UNK     1       2.213   0.743  -4.149  1.00  0.00    -0.360 OA
HETATM   21  H16 UNK     1       3.056   0.612  -3.685  1.00  0.00     0.217 HD
ENDBRANCH   5  20
BRANCH  11  22
HETATM   22  C17 UNK     1      -0.064  -1.198   2.330  1.00  0.00     0.440 C 
HETATM   23  F1  UNK     1      -1.095  -1.552   3.120  1.00  0.00    -0.164 F 
HETATM   24  F2  UNK     1       0.838  -2.198   2.345  1.00  0.00    -0.164 F 
HETATM   25  F3  UNK     1       0.515  -0.105   2.864  1.00  0.00    -0.164 F 
ENDBRANCH  11  22
BRANCH  10  26
HETATM   26  C16 UNK     1      -2.892  -1.409   1.416  1.00  0.00     0.014 A 
HETATM   27  C18 UNK     1      -3.601  -0.453   2.143  1.00  0.00     0.079 A 
HETATM   28  C20 UNK     1      -4.627  -0.849   3.001  1.00  0.00     0.037 A 
HETATM   29  C22 UNK     1      -4.944  -2.201   3.131  1.00  0.00     0.003 A 
HETATM   30  C21 UNK     1      -4.235  -3.157   2.403  1.00  0.00     0.001 A 
HETATM   31  C19 UNK     1      -3.209  -2.761   1.545  1.00  0.00     0.015 A 
BRANCH  27  32
HETATM   32  O4  UNK     1      -3.310   0.875   2.035  1.00  0.00    -0.355 OA
HETATM   33  C23 UNK     1      -4.008   1.610   1.032  1.00  0.00     0.210 C 
ENDBRANCH  27  32
ENDBRANCH  10  26
TORSDOF 6
