REMARK  9 active torsions:
REMARK  status: ('A' for Active; 'I' for Inactive)
REMARK    1  A    between atoms: C12_22  and  O2_2 
REMARK    2  A    between atoms: C6_16  and  O2_2 
REMARK    3  A    between atoms: C19_29  and  O4_4 
REMARK    4  A    between atoms: C20_30  and  O4_4 
REMARK       I    between atoms: C19_29  and  N1_9 
REMARK    5  A    between atoms: C8_18  and  N1_9 
REMARK    6  A    between atoms: C18_28  and  N2_10 
REMARK    7  A    between atoms: C3_13  and  C5_15 
REMARK    8  A    between atoms: C12_22  and  C8_18 
REMARK    9  A    between atoms: C20_30  and  C21_31 
ROOT
HETATM    1  O1  UNK     1       2.286   0.147  -0.768  1.00  0.00    -0.321 OA
HETATM    2  O3  UNK     1       1.367   3.245  -3.258  1.00  0.00    -0.286 OA
HETATM    3  C1  UNK     1       0.606   1.457  -1.929  1.00  0.00     0.049 A 
HETATM    4  C2  UNK     1       0.979   0.406  -1.093  1.00  0.00     0.091 A 
HETATM    5  C3  UNK     1       3.053   2.026  -2.101  1.00  0.00     0.048 A 
HETATM    6  C4  UNK     1       1.650   2.330  -2.496  1.00  0.00     0.197 A 
HETATM    7  C6  UNK     1      -1.339  -0.220  -0.845  1.00  0.00     0.082 A 
HETATM    8  C7  UNK     1       0.008  -0.435  -0.549  1.00  0.00     0.075 A 
HETATM    9  C9  UNK     1      -0.742   1.674  -2.227  1.00  0.00     0.021 A 
HETATM   10  C10 UNK     1       3.249   0.980  -1.285  1.00  0.00     0.159 A 
HETATM   11  C11 UNK     1      -1.713   0.832  -1.681  1.00  0.00     0.038 A 
ENDROOT
BRANCH   7  12
HETATM   12  O2  UNK     1      -2.289  -1.038  -0.315  1.00  0.00    -0.277 OA
BRANCH  12  13
HETATM   13  C12 UNK     1      -2.599  -2.160  -1.101  1.00  0.00     0.286 C 
HETATM   14  O5  UNK     1      -2.072  -2.419  -2.178  1.00  0.00    -0.263 OA
BRANCH  13  15
HETATM   15  C8  UNK     1      -3.666  -3.046  -0.471  1.00  0.00     0.183 C 
HETATM   16  C15 UNK     1      -4.875  -3.146  -1.387  1.00  0.00     0.043 C 
BRANCH  15  17
HETATM   17  N1  UNK     1      -4.061  -2.572   0.830  1.00  0.00    -0.323 N 
HETATM   18  C19 UNK     1      -4.445  -3.400   1.867  1.00  0.00     0.361 C 
HETATM   19  O6  UNK     1      -4.499  -4.624   1.820  1.00  0.00    -0.238 OA
HETATM   20  H11 UNK     1      -4.073  -1.570   0.997  1.00  0.00     0.165 HD
BRANCH  18  21
HETATM   21  O4  UNK     1      -4.760  -2.651   2.966  1.00  0.00    -0.299 OA
BRANCH  21  22
HETATM   22  C20 UNK     1      -5.177  -3.385   4.123  1.00  0.00     0.219 C 
BRANCH  22  23
HETATM   23  C21 UNK     1      -5.482  -2.420   5.231  1.00  0.00    -0.034 A 
HETATM   24  C22 UNK     1      -4.477  -2.037   6.119  1.00  0.00     0.009 A 
HETATM   25  C24 UNK     1      -4.761  -1.140   7.149  1.00  0.00     0.001 A 
HETATM   26  C26 UNK     1      -6.050  -0.627   7.292  1.00  0.00     0.000 A 
HETATM   27  C25 UNK     1      -7.055  -1.010   6.404  1.00  0.00     0.001 A 
HETATM   28  C23 UNK     1      -6.771  -1.907   5.374  1.00  0.00     0.009 A 
ENDBRANCH  22  23
ENDBRANCH  21  22
ENDBRANCH  18  21
ENDBRANCH  15  17
ENDBRANCH  13  15
ENDBRANCH  12  13
ENDBRANCH   7  12
BRANCH   5  29
HETATM   29  C5  UNK     1       4.187   2.842  -2.564  1.00  0.00    -0.020 A 
HETATM   30  C13 UNK     1       4.232   4.205  -2.270  1.00  0.00     0.015 A 
HETATM   31  C16 UNK     1       5.306   4.979  -2.710  1.00  0.00     0.037 A 
HETATM   32  C18 UNK     1       6.335   4.390  -3.444  1.00  0.00     0.102 A 
HETATM   33  C17 UNK     1       6.291   3.027  -3.739  1.00  0.00     0.037 A 
HETATM   34  C14 UNK     1       5.217   2.253  -3.299  1.00  0.00     0.015 A 
BRANCH  32  35
HETATM   35  N2  UNK     1       7.428   5.179  -3.892  1.00  0.00    -0.116 N 
HETATM   36  O7  UNK     1       8.343   4.630  -4.551  1.00  0.00    -0.532 OA
HETATM   37  O8  UNK     1       7.448   6.402  -3.616  1.00  0.00    -0.532 OA
ENDBRANCH  32  35
ENDBRANCH   5  29
TORSDOF 9
