REMARK  5 active torsions:
REMARK  status: ('A' for Active; 'I' for Inactive)
REMARK    1  A    between atoms: C11_15  and  O2_3 
REMARK    2  A    between atoms: C14_18  and  O2_3 
REMARK    3  A    between atoms: C1_5  and  C3_7 
REMARK    4  A    between atoms: C3_7  and  C6_10 
REMARK    5  A    between atoms: C14_18  and  C15_19 
ROOT
HETATM    1  O1  UNK     1      -1.038  -0.850   2.057  1.00  0.00    -0.274 OA
HETATM    2  O3  UNK     1      -2.065  -1.680   3.904  1.00  0.00    -0.259 OA
HETATM    3  C1  UNK     1      -3.251  -1.900   1.849  1.00  0.00     0.024 A 
HETATM    4  C2  UNK     1      -3.283  -1.642   0.524  1.00  0.00    -0.037 A 
HETATM    5  C4  UNK     1      -2.126  -0.982  -0.115  1.00  0.00     0.005 A 
HETATM    6  C5  UNK     1      -1.043  -0.607   0.675  1.00  0.00     0.092 A 
HETATM    7  C7  UNK     1      -2.093  -1.483   2.693  1.00  0.00     0.295 A 
HETATM    8  C8  UNK     1      -2.037  -0.712  -1.490  1.00  0.00     0.017 A 
HETATM    9  C9  UNK     1      -4.455  -1.976  -0.365  1.00  0.00     0.050 C 
HETATM   10  C10 UNK     1       0.090   0.021   0.151  1.00  0.00     0.075 A 
HETATM   11  C11 UNK     1       0.153   0.284  -1.212  1.00  0.00     0.071 A 
HETATM   12  C12 UNK     1      -0.910  -0.084  -2.033  1.00  0.00     0.038 A 
ENDROOT
BRANCH  11  13
HETATM   13  O2  UNK     1       1.246   0.893  -1.742  1.00  0.00    -0.347 OA
BRANCH  13  14
HETATM   14  C14 UNK     1       2.297   1.242  -0.842  1.00  0.00     0.214 C 
BRANCH  14  15
HETATM   15  C15 UNK     1       3.391   1.927  -1.607  1.00  0.00    -0.034 A 
HETATM   16  C16 UNK     1       4.420   1.174  -2.161  1.00  0.00     0.011 A 
HETATM   17  C18 UNK     1       5.437   1.811  -2.873  1.00  0.00     0.024 A 
HETATM   18  C20 UNK     1       5.418   3.197  -3.026  1.00  0.00     0.034 A 
HETATM   19  C19 UNK     1       4.382   3.946  -2.468  1.00  0.00     0.024 A 
HETATM   20 Cl1  UNK     1       6.672   3.982  -3.905  1.00  0.00    -0.084 Cl
HETATM   21  C17 UNK     1       3.366   3.309  -1.756  1.00  0.00     0.011 A 
ENDBRANCH  14  15
ENDBRANCH  13  14
ENDBRANCH  11  13
BRANCH   3  22
HETATM   22  C3  UNK     1      -4.332  -2.621   2.614  1.00  0.00     0.045 C 
BRANCH  22  23
HETATM   23  C6  UNK     1      -5.372  -1.649   3.151  1.00  0.00     0.000 C 
HETATM   24  C13 UNK     1      -6.469  -2.389   3.900  1.00  0.00     0.005 C 
ENDBRANCH  22  23
ENDBRANCH   3  22
TORSDOF 5
