REMARK  3 active torsions:
REMARK  status: ('A' for Active; 'I' for Inactive)
REMARK       I    between atoms: C8_14  and  N1_5 
REMARK    1  A    between atoms: N1_5  and  N2_6 
REMARK       I    between atoms: C12_18  and  N2_6 
REMARK    2  A    between atoms: C3_9  and  C8_14 
REMARK    3  A    between atoms: C11_17  and  C12_18 
ROOT
HETATM    1  O3  UNK     1       1.091  -0.189   1.487  1.00  0.00    -0.266 OA
HETATM    2  N1  UNK     1      -0.752   0.053   0.085  1.00  0.00    -0.263 N 
HETATM    3  C8  UNK     1       0.583   0.145   0.418  1.00  0.00     0.276 C 
HETATM    4  H6  UNK     1      -1.147   0.372  -0.794  1.00  0.00     0.190 HD
ENDROOT
BRANCH   3   5
HETATM    5  C3  UNK     1       1.399   0.706  -0.665  1.00  0.00     0.110 A 
HETATM    6  C4  UNK     1       2.485   1.394  -0.292  1.00  0.00     0.037 A 
HETATM    7  C1  UNK     1       3.356   1.989  -1.294  1.00  0.00    -0.001 A 
HETATM    8  C2  UNK     1       3.040   1.831  -2.639  1.00  0.00     0.089 A 
HETATM    9  C5  UNK     1       4.499   2.714  -0.950  1.00  0.00     0.014 A 
HETATM   10  O1  UNK     1       1.896   1.106  -3.026  1.00  0.00    -0.274 OA
HETATM   11  C6  UNK     1       3.833   2.376  -3.648  1.00  0.00     0.038 A 
HETATM   12  C7  UNK     1       1.044   0.525  -2.091  1.00  0.00     0.304 A 
HETATM   13  O2  UNK     1       0.049  -0.104  -2.436  1.00  0.00    -0.259 OA
HETATM   14  C10 UNK     1       4.971   3.098  -3.296  1.00  0.00     0.003 A 
HETATM   15  C9  UNK     1       5.304   3.267  -1.951  1.00  0.00     0.001 A 
ENDBRANCH   3   5
BRANCH   2  16
HETATM   16  N2  UNK     1      -1.636  -0.455   1.006  1.00  0.00    -0.263 N 
HETATM   17  C12 UNK     1      -2.758  -1.123   0.553  1.00  0.00     0.270 C 
HETATM   18  O4  UNK     1      -3.039  -1.306  -0.629  1.00  0.00    -0.266 OA
HETATM   19  H7  UNK     1      -1.438  -0.246   1.978  1.00  0.00     0.190 HD
BRANCH  17  20
HETATM   20  C11 UNK     1      -3.656  -1.662   1.607  1.00  0.00     0.033 A 
HETATM   21  C13 UNK     1      -4.996  -1.822   1.321  1.00  0.00     0.017 A 
HETATM   22  C15 UNK     1      -5.840  -2.327   2.310  1.00  0.00     0.001 A 
HETATM   23  C17 UNK     1      -5.324  -2.661   3.562  1.00  0.00     0.000 A 
HETATM   24  C16 UNK     1      -3.965  -2.489   3.826  1.00  0.00     0.001 A 
HETATM   25  C14 UNK     1      -3.122  -1.984   2.836  1.00  0.00     0.017 A 
ENDBRANCH  17  20
ENDBRANCH   2  16
TORSDOF 3
