REMARK  3 active torsions:
REMARK  status: ('A' for Active; 'I' for Inactive)
REMARK       I    between atoms: C8_16  and  N1_7 
REMARK    1  A    between atoms: N1_7  and  N2_8 
REMARK       I    between atoms: C12_20  and  N2_8 
REMARK    2  A    between atoms: C3_11  and  C8_16 
REMARK    3  A    between atoms: C11_19  and  C12_20 
ROOT
HETATM    1  O3  UNK     1      -0.565  -0.774  -1.812  1.00  0.00    -0.266 OA
HETATM    2  N1  UNK     1      -0.818   0.102   0.330  1.00  0.00    -0.263 N 
HETATM    3  C8  UNK     1      -0.166  -0.095  -0.869  1.00  0.00     0.276 C 
HETATM    4  H5  UNK     1      -0.479   0.700   1.077  1.00  0.00     0.190 HD
ENDROOT
BRANCH   3   5
HETATM    5  C3  UNK     1       1.120   0.611  -0.935  1.00  0.00     0.110 A 
HETATM    6  C4  UNK     1       1.515   1.007  -2.151  1.00  0.00     0.037 A 
HETATM    7  C1  UNK     1       2.775   1.714  -2.318  1.00  0.00     0.000 A 
HETATM    8  C2  UNK     1       3.557   1.969  -1.196  1.00  0.00     0.089 A 
HETATM    9  C5  UNK     1       3.227   2.145  -3.568  1.00  0.00     0.033 A 
HETATM   10  O1  UNK     1       3.136   1.550   0.081  1.00  0.00    -0.274 OA
HETATM   11  C6  UNK     1       4.775   2.641  -1.288  1.00  0.00     0.039 A 
HETATM   12  C7  UNK     1       1.936   0.872   0.272  1.00  0.00     0.304 A 
HETATM   13  O2  UNK     1       1.577   0.511   1.388  1.00  0.00    -0.259 OA
HETATM   14  C10 UNK     1       5.218   3.068  -2.538  1.00  0.00     0.022 A 
HETATM   15  C9  UNK     1       4.446   2.821  -3.676  1.00  0.00     0.011 A 
HETATM   16 Br1  UNK     1       5.053   3.404  -5.369  1.00  0.00    -0.051 Br
ENDBRANCH   3   5
BRANCH   2  17
HETATM   17  N2  UNK     1      -2.036  -0.501   0.534  1.00  0.00    -0.263 N 
HETATM   18  C12 UNK     1      -2.398  -0.851   1.820  1.00  0.00     0.271 C 
HETATM   19  O4  UNK     1      -1.709  -0.665   2.821  1.00  0.00    -0.266 OA
HETATM   20  H6  UNK     1      -2.628  -0.645  -0.278  1.00  0.00     0.190 HD
BRANCH  18  21
HETATM   21  C11 UNK     1      -3.737  -1.479   1.964  1.00  0.00     0.050 A 
HETATM   22  C13 UNK     1      -3.907  -2.847   1.898  1.00  0.00     0.022 A 
HETATM   23  I1  UNK     1      -2.323  -4.182   1.592  1.00  0.00    -0.043 I 
HETATM   24  C15 UNK     1      -5.189  -3.378   2.042  1.00  0.00     0.019 A 
HETATM   25  C17 UNK     1      -6.276  -2.529   2.249  1.00  0.00     0.001 A 
HETATM   26  C16 UNK     1      -6.081  -1.149   2.313  1.00  0.00     0.001 A 
HETATM   27  C14 UNK     1      -4.799  -0.618   2.169  1.00  0.00     0.018 A 
ENDBRANCH  18  21
ENDBRANCH   2  17
TORSDOF 3
