REMARK  5 active torsions:
REMARK  status: ('A' for Active; 'I' for Inactive)
REMARK    1  A    between atoms: C1_3  and  N1_2 
REMARK       I    between atoms: C5_7  and  N1_2 
REMARK    2  A    between atoms: C1_3  and  C2_4 
REMARK    3  A    between atoms: C5_7  and  C6_8 
REMARK    4  A    between atoms: C6_8  and  C7_9 
REMARK    5  A    between atoms: C8_10  and  C9_11 
ROOT
HETATM    1  C6  UNK     1      -0.234  -0.185   0.673  1.00  0.00     0.043 C 
HETATM    2  C8  UNK     1       0.691   0.656   1.181  1.00  0.00     0.029 C 
ENDROOT
BRANCH   1   3
HETATM    3  C5  UNK     1      -0.033  -0.600  -0.763  1.00  0.00     0.252 C 
HETATM    4  O1  UNK     1       0.642  -1.583  -1.063  1.00  0.00    -0.268 OA
HETATM    5  N1  UNK     1      -0.663   0.219  -1.687  1.00  0.00    -0.353 N 
HETATM    6  H4  UNK     1      -1.159   1.044  -1.360  1.00  0.00     0.163 HD
BRANCH   5   7
HETATM    7  C1  UNK     1      -0.579  -0.015  -3.109  1.00  0.00     0.080 C 
HETATM    8  C3  UNK     1       0.657   0.679  -3.672  1.00  0.00     0.032 C 
BRANCH   7   9
HETATM    9  C2  UNK     1      -1.847   0.461  -3.830  1.00  0.00     0.020 C 
HETATM   10  C4  UNK     1      -3.110  -0.206  -3.300  1.00  0.00     0.007 C 
ENDBRANCH   7   9
ENDBRANCH   5   7
ENDBRANCH   1   3
BRANCH   1  11
HETATM   11  C7  UNK     1      -1.364  -0.687   1.478  1.00  0.00    -0.021 A 
HETATM   12  C10 UNK     1      -1.871   0.102   2.497  1.00  0.00     0.012 A 
HETATM   13  C14 UNK     1      -2.939  -0.372   3.258  1.00  0.00     0.001 A 
HETATM   14  C16 UNK     1      -3.484  -1.628   2.989  1.00  0.00     0.000 A 
HETATM   15  C15 UNK     1      -2.961  -2.409   1.959  1.00  0.00     0.001 A 
HETATM   16  C11 UNK     1      -1.892  -1.935   1.198  1.00  0.00     0.012 A 
ENDBRANCH   1  11
BRANCH   2  17
HETATM   17  C9  UNK     1       1.846   1.204   0.454  1.00  0.00    -0.035 A 
HETATM   18  C12 UNK     1       3.044   0.505   0.450  1.00  0.00     0.011 A 
HETATM   19  C17 UNK     1       4.139   1.025  -0.240  1.00  0.00     0.001 A 
HETATM   20  C19 UNK     1       4.024   2.238  -0.918  1.00  0.00     0.000 A 
HETATM   21  C18 UNK     1       2.814   2.932  -0.906  1.00  0.00     0.001 A 
HETATM   22  C13 UNK     1       1.719   2.412  -0.216  1.00  0.00     0.011 A 
ENDBRANCH   2  17
TORSDOF 5
