REMARK  2 active torsions:
REMARK  status: ('A' for Active; 'I' for Inactive)
REMARK       I    between atoms: C7_13  and  N1_5 
REMARK       I    between atoms: C6_12  and  N2_6 
REMARK    1  A    between atoms: C1_7  and  C6_12 
REMARK    2  A    between atoms: C7_13  and  C8_14 
ROOT
HETATM    1  O2  UNK     1      -1.777   0.231  -2.471  1.00  0.00    -0.267 OA
HETATM    2  N1  UNK     1      -1.407  -0.981  -0.520  1.00  0.00    -0.348 N 
HETATM    3  C1  UNK     1      -2.705  -2.097   1.823  1.00  0.00     0.081 C 
HETATM    4  C2  UNK     1      -3.503  -1.679   0.586  1.00  0.00     0.034 C 
HETATM    5  C3  UNK     1      -1.422  -1.273   1.938  1.00  0.00     0.034 C 
HETATM    6  C4  UNK     1      -2.640  -1.759  -0.669  1.00  0.00     0.127 C 
HETATM    7  C5  UNK     1      -0.595  -1.338   0.654  1.00  0.00     0.127 C 
HETATM    8  C7  UNK     1      -1.090  -0.024  -1.480  1.00  0.00     0.259 C 
ENDROOT
BRANCH   8   9
HETATM    9  C8  UNK     1       0.163   0.739  -1.306  1.00  0.00     0.108 A 
HETATM   10  C10 UNK     1       0.208   2.012  -0.552  1.00  0.00     0.304 A 
HETATM   11  O3  UNK     1       1.448   2.637  -0.456  1.00  0.00    -0.274 OA
HETATM   12  O4  UNK     1      -0.793   2.496  -0.035  1.00  0.00    -0.259 OA
HETATM   13  C12 UNK     1       2.605   2.090  -1.044  1.00  0.00     0.089 A 
HETATM   14  C11 UNK     1       2.540   0.892  -1.749  1.00  0.00    -0.001 A 
HETATM   15  C14 UNK     1       3.801   2.788  -0.894  1.00  0.00     0.038 A 
HETATM   16  C9  UNK     1       1.258   0.214  -1.867  1.00  0.00     0.037 A 
HETATM   17  C13 UNK     1       3.708   0.381  -2.319  1.00  0.00     0.014 A 
HETATM   18  C15 UNK     1       4.916   1.071  -2.177  1.00  0.00     0.001 A 
HETATM   19  C16 UNK     1       4.961   2.272  -1.465  1.00  0.00     0.003 A 
ENDBRANCH   8   9
BRANCH   3  20
HETATM   20  C6  UNK     1      -3.532  -1.907   3.056  1.00  0.00     0.219 C 
HETATM   21  O1  UNK     1      -4.385  -1.027   3.141  1.00  0.00    -0.273 OA
HETATM   22  N2  UNK     1      -3.229  -2.788   4.068  1.00  0.00    -0.370 N 
HETATM   23  H10 UNK     1      -3.721  -2.752   4.954  1.00  0.00     0.159 HD
HETATM   24  H11 UNK     1      -2.510  -3.498   3.976  1.00  0.00     0.159 HD
ENDBRANCH   3  20
TORSDOF 2
