REMARK  3 active torsions:
REMARK  status: ('A' for Active; 'I' for Inactive)
REMARK    1  A    between atoms: C10_17  and  O2_4 
REMARK    2  A    between atoms: C3_10  and  O2_4 
REMARK       I    between atoms: C11_18  and  N1_7 
REMARK    3  A    between atoms: C11_18  and  C6_13 
ROOT
HETATM    1 Cl1  UNK     1      -1.558  -0.490  -3.441  1.00  0.00    -0.082 Cl
HETATM    2 Cl2  UNK     1       0.979   1.082  -4.529  1.00  0.00    -0.082 Cl
HETATM    3  O1  UNK     1       0.274   0.452   1.301  1.00  0.00    -0.271 OA
HETATM    4  O3  UNK     1      -0.900  -0.320   3.102  1.00  0.00    -0.259 OA
HETATM    5  C1  UNK     1      -0.556   0.028  -0.945  1.00  0.00     0.025 A 
HETATM    6  C2  UNK     1       0.401   0.577  -0.096  1.00  0.00     0.124 A 
HETATM    7  C3  UNK     1       1.509   1.264  -0.587  1.00  0.00     0.105 A 
HETATM    8  C4  UNK     1      -1.689  -0.676  -0.365  1.00  0.00     0.039 A 
HETATM    9  C5  UNK     1      -0.396   0.174  -2.325  1.00  0.00     0.069 A 
HETATM   10  C6  UNK     1      -1.804  -0.792   0.963  1.00  0.00     0.108 A 
HETATM   11  C7  UNK     1       1.661   1.404  -1.965  1.00  0.00     0.065 A 
HETATM   12  C8  UNK     1       0.711   0.861  -2.832  1.00  0.00     0.059 A 
HETATM   13  C9  UNK     1      -0.799  -0.217   1.884  1.00  0.00     0.304 A 
ENDROOT
BRANCH  10  14
HETATM   14  C11 UNK     1      -2.980  -1.520   1.455  1.00  0.00     0.255 C 
HETATM   15  O4  UNK     1      -4.036  -0.945   1.703  1.00  0.00    -0.268 OA
HETATM   16  N1  UNK     1      -2.763  -2.869   1.600  1.00  0.00    -0.366 N 
HETATM   17  H8  UNK     1      -3.500  -3.482   1.934  1.00  0.00     0.159 HD
HETATM   18  H9  UNK     1      -1.873  -3.307   1.385  1.00  0.00     0.159 HD
ENDBRANCH  10  14
BRANCH   7  19
HETATM   19  O2  UNK     1       2.436   1.795   0.254  1.00  0.00    -0.349 OA
BRANCH  19  20
HETATM   20  C10 UNK     1       3.777   1.324   0.124  1.00  0.00     0.171 C 
HETATM   21  C12 UNK     1       4.463   1.412   1.471  1.00  0.00     0.034 C 
ENDBRANCH  19  20
ENDBRANCH   7  19
TORSDOF 3
