REMARK  2 active torsions:
REMARK  status: ('A' for Active; 'I' for Inactive)
REMARK       I    between atoms: C11_17  and  N1_4 
REMARK    1  A    between atoms: C2_8  and  N1_4 
REMARK    2  A    between atoms: C11_17  and  C6_12 
ROOT
HETATM    1  O2  UNK     1       0.201   0.752   1.463  1.00  0.00    -0.267 OA
HETATM    2  N1  UNK     1      -0.903  -0.361  -0.295  1.00  0.00    -0.323 N 
HETATM    3  C11 UNK     1       0.073   0.442   0.280  1.00  0.00     0.262 C 
HETATM    4  H5  UNK     1      -0.854  -0.539  -1.295  1.00  0.00     0.169 HD
ENDROOT
BRANCH   3   5
HETATM    5  C6  UNK     1       1.034   0.941  -0.712  1.00  0.00     0.108 A 
HETATM    6  C13 UNK     1       0.652   1.186  -2.121  1.00  0.00     0.304 A 
HETATM    7  O1  UNK     1       1.652   1.660  -2.966  1.00  0.00    -0.274 OA
HETATM    8  O3  UNK     1      -0.486   0.984  -2.529  1.00  0.00    -0.259 OA
HETATM    9  C7  UNK     1       2.962   1.897  -2.507  1.00  0.00     0.089 A 
HETATM   10  C15 UNK     1       3.894   2.372  -3.427  1.00  0.00     0.038 A 
HETATM   11  C5  UNK     1       3.300   1.660  -1.179  1.00  0.00    -0.001 A 
HETATM   12  C17 UNK     1       5.199   2.616  -3.003  1.00  0.00     0.003 A 
HETATM   13  C16 UNK     1       5.556   2.383  -1.673  1.00  0.00     0.001 A 
HETATM   14  C14 UNK     1       4.610   1.907  -0.761  1.00  0.00     0.014 A 
HETATM   15  C9  UNK     1       2.277   1.164  -0.270  1.00  0.00     0.037 A 
ENDBRANCH   3   5
BRANCH   2  16
HETATM   16  C2  UNK     1      -1.981  -1.009   0.356  1.00  0.00     0.037 A 
HETATM   17  C4  UNK     1      -2.120  -0.853   1.729  1.00  0.00     0.061 A 
HETATM   18  C1  UNK     1      -3.200  -1.513   2.319  1.00  0.00     0.064 A 
HETATM   19  N2  UNK     1      -3.629  -1.576   3.618  1.00  0.00    -0.278 N 
HETATM   20  C3  UNK     1      -4.100  -2.289   1.598  1.00  0.00     0.011 A 
HETATM   21  H6  UNK     1      -3.216  -1.131   4.428  1.00  0.00     0.189 HD
HETATM   22  N3  UNK     1      -4.728  -2.327   3.798  1.00  0.00    -0.186 NA
HETATM   23  C12 UNK     1      -5.012  -2.758   2.567  1.00  0.00     0.152 A 
HETATM   24  C10 UNK     1      -3.932  -2.427   0.210  1.00  0.00     0.017 A 
HETATM   25  C8  UNK     1      -2.855  -1.773  -0.402  1.00  0.00     0.030 A 
ENDBRANCH   2  16
TORSDOF 2
