REMARK  3 active torsions:
REMARK  status: ('A' for Active; 'I' for Inactive)
REMARK    1  A    between atoms: C5_10  and  N1_4 
REMARK       I    between atoms: C6_11  and  N1_4 
REMARK    2  A    between atoms: C2_7  and  C6_11 
REMARK    3  A    between atoms: C5_10  and  C9_14 
ROOT
HETATM    1  O1  UNK     1       2.409   1.285   0.297  1.00  0.00    -0.274 OA
HETATM    2  O3  UNK     1       0.595   0.642   1.528  1.00  0.00    -0.259 OA
HETATM    3  C1  UNK     1       2.253   1.343  -2.129  1.00  0.00    -0.001 A 
HETATM    4  C2  UNK     1       0.328   0.661  -0.826  1.00  0.00     0.108 A 
HETATM    5  C3  UNK     1       2.990   1.529  -0.963  1.00  0.00     0.089 A 
HETATM    6  C4  UNK     1       0.875   0.892  -2.026  1.00  0.00     0.037 A 
HETATM    7  C7  UNK     1       2.864   1.597  -3.360  1.00  0.00     0.014 A 
HETATM    8  C8  UNK     1       1.092   0.853   0.427  1.00  0.00     0.304 A 
HETATM    9  C10 UNK     1       4.315   1.960  -0.993  1.00  0.00     0.038 A 
HETATM   10  C11 UNK     1       4.193   2.029  -3.405  1.00  0.00     0.001 A 
HETATM   11  C12 UNK     1       4.916   2.210  -2.224  1.00  0.00     0.003 A 
ENDROOT
BRANCH   4  12
HETATM   12  C6  UNK     1      -1.068   0.208  -0.826  1.00  0.00     0.258 C 
HETATM   13  O2  UNK     1      -1.519  -0.449  -1.762  1.00  0.00    -0.267 OA
HETATM   14  N1  UNK     1      -1.761   0.604   0.304  1.00  0.00    -0.351 N 
HETATM   15  H4  UNK     1      -1.302   1.161   1.017  1.00  0.00     0.163 HD
BRANCH  14  16
HETATM   16  C5  UNK     1      -3.152   0.279   0.529  1.00  0.00     0.182 C 
BRANCH  16  17
HETATM   17  C9  UNK     1      -3.312  -0.998   1.302  1.00  0.00     0.051 A 
HETATM   18  C13 UNK     1      -3.362  -0.944   2.682  1.00  0.00     0.029 A 
HETATM   19  C14 UNK     1      -3.512  -2.144   3.368  1.00  0.00     0.003 A 
HETATM   20  C16 UNK     1      -3.604  -3.337   2.659  1.00  0.00     0.019 A 
HETATM   21  C15 UNK     1      -3.543  -3.276   1.276  1.00  0.00     0.117 A 
HETATM   22  N2  UNK     1      -3.398  -2.130   0.575  1.00  0.00    -0.264 NA
ENDBRANCH  16  17
ENDBRANCH  14  16
ENDBRANCH   4  12
TORSDOF 3
