REMARK  9 active torsions:
REMARK  status: ('A' for Active; 'I' for Inactive)
REMARK    1  A    between atoms: C11_20  and  O1_2 
REMARK    2  A    between atoms: C6_15  and  O1_2 
REMARK    3  A    between atoms: C12_21  and  O3_4 
REMARK    4  A    between atoms: C21_30  and  O3_4 
REMARK    5  A    between atoms: C3_12  and  N1_9 
REMARK       I    between atoms: C8_17  and  N1_9 
REMARK    6  A    between atoms: C1_10  and  C6_15 
REMARK    7  A    between atoms: C12_21  and  C4_13 
REMARK    8  A    between atoms: C7_16  and  C8_17 
REMARK    9  A    between atoms: C11_20  and  C14_23 
ROOT
HETATM    1  S1  UNK     1      -2.471  -1.161   0.036  1.00  0.00    -0.065 SA
HETATM    2  C1  UNK     1      -1.237  -0.216   2.081  1.00  0.00     0.080 A 
HETATM    3  C2  UNK     1      -2.342  -0.954   2.593  1.00  0.00    -0.020 A 
HETATM    4  C3  UNK     1      -1.188  -0.246   0.705  1.00  0.00     0.094 A 
HETATM    5  C4  UNK     1      -3.097  -1.520   1.589  1.00  0.00     0.089 A 
HETATM    6  C5  UNK     1      -2.646  -1.096   4.040  1.00  0.00     0.051 C 
ENDROOT
BRANCH   4   7
HETATM    7  N1  UNK     1      -0.291   0.330  -0.201  1.00  0.00    -0.316 N 
HETATM    8  C8  UNK     1      -0.347   0.228  -1.584  1.00  0.00     0.262 C 
HETATM    9  O5  UNK     1      -1.169  -0.369  -2.277  1.00  0.00    -0.267 OA
HETATM   10  H4  UNK     1       0.453   0.877   0.226  1.00  0.00     0.169 HD
BRANCH   8  11
HETATM   11  C7  UNK     1       0.753   0.955  -2.230  1.00  0.00     0.108 A 
HETATM   12  C10 UNK     1       1.991   0.558  -1.913  1.00  0.00     0.037 A 
HETATM   13  C9  UNK     1       3.146   1.217  -2.503  1.00  0.00    -0.001 A 
HETATM   14  C13 UNK     1       2.940   2.262  -3.397  1.00  0.00     0.089 A 
HETATM   15  C16 UNK     1       4.455   0.836  -2.201  1.00  0.00     0.014 A 
HETATM   16  O2  UNK     1       1.634   2.675  -3.727  1.00  0.00    -0.274 OA
HETATM   17  C17 UNK     1       4.003   2.936  -3.996  1.00  0.00     0.038 A 
HETATM   18  C15 UNK     1       0.510   2.064  -3.180  1.00  0.00     0.304 A 
HETATM   19  O7  UNK     1      -0.623   2.431  -3.472  1.00  0.00    -0.259 OA
HETATM   20  C20 UNK     1       5.306   2.549  -3.689  1.00  0.00     0.003 A 
HETATM   21  C19 UNK     1       5.532   1.502  -2.794  1.00  0.00     0.001 A 
ENDBRANCH   8  11
ENDBRANCH   4   7
BRANCH   2  22
HETATM   22  C6  UNK     1      -0.263   0.492   2.875  1.00  0.00     0.296 C 
HETATM   23  O4  UNK     1      -0.508   0.999   3.979  1.00  0.00    -0.259 OA
BRANCH  22  24
HETATM   24  O1  UNK     1       0.986   0.560   2.296  1.00  0.00    -0.317 OA
BRANCH  24  25
HETATM   25  C11 UNK     1       2.003   1.250   3.032  1.00  0.00     0.178 C 
BRANCH  25  26
HETATM   26  C14 UNK     1       3.297   1.216   2.234  1.00  0.00     0.022 C 
HETATM   27  C18 UNK     1       3.757  -0.205   1.964  1.00  0.00     0.007 C 
ENDBRANCH  25  26
ENDBRANCH  24  25
ENDBRANCH  22  24
ENDBRANCH   2  22
BRANCH   5  28
HETATM   28  C12 UNK     1      -4.272  -2.325   1.685  1.00  0.00     0.300 C 
HETATM   29  O6  UNK     1      -4.817  -2.651   2.759  1.00  0.00    -0.259 OA
BRANCH  28  30
HETATM   30  O3  UNK     1      -4.786  -2.735   0.468  1.00  0.00    -0.317 OA
BRANCH  30  31
HETATM   31  C21 UNK     1      -5.966  -3.547   0.492  1.00  0.00     0.174 C 
HETATM   32  C22 UNK     1      -6.361  -3.885  -0.930  1.00  0.00     0.034 C 
ENDBRANCH  30  31
ENDBRANCH  28  30
ENDBRANCH   5  28
TORSDOF 9
