REMARK  5 active torsions:
REMARK  status: ('A' for Active; 'I' for Inactive)
REMARK    1  A    between atoms: C4_7  and  O1_1 
REMARK    2  A    between atoms: C14_17  and  O3_3 
REMARK    3  A    between atoms: C1_4  and  C3_6 
REMARK    4  A    between atoms: C2_5  and  C5_8 
REMARK    5  A    between atoms: C3_6  and  C7_10 
ROOT
HETATM    1  O2  UNK     1       0.055  -0.591  -0.370  1.00  0.00    -0.287 OA
HETATM    2  C3  UNK     1      -0.426  -0.173   0.678  1.00  0.00     0.184 C 
ENDROOT
BRANCH   2   3
HETATM    3  C1  UNK     1      -1.792  -0.590   1.078  1.00  0.00     0.047 A 
HETATM    4  C4  UNK     1      -2.311  -1.821   0.678  1.00  0.00     0.079 A 
HETATM    5  C10 UNK     1      -3.598  -2.193   1.064  1.00  0.00     0.037 A 
HETATM    6  C15 UNK     1      -4.367  -1.335   1.850  1.00  0.00     0.003 A 
HETATM    7  C11 UNK     1      -3.847  -0.104   2.251  1.00  0.00     0.001 A 
HETATM    8  C6  UNK     1      -2.560   0.269   1.864  1.00  0.00     0.018 A 
BRANCH   4   9
HETATM    9  O1  UNK     1      -1.576  -2.674  -0.090  1.00  0.00    -0.360 OA
HETATM   10  H11 UNK     1      -2.099  -3.474  -0.266  1.00  0.00     0.217 HD
ENDBRANCH   4   9
ENDBRANCH   2   3
BRANCH   2  11
HETATM   11  C7  UNK     1       0.322   0.724   1.602  1.00  0.00     0.056 C 
HETATM   12  C5  UNK     1       1.251   1.580   1.121  1.00  0.00     0.015 C 
BRANCH  12  13
HETATM   13  C2  UNK     1       1.614   1.722  -0.281  1.00  0.00    -0.036 A 
HETATM   14  C8  UNK     1       2.926   1.483  -0.689  1.00  0.00     0.014 A 
HETATM   15  C12 UNK     1       3.274   1.621  -2.032  1.00  0.00     0.037 A 
HETATM   16  C14 UNK     1       2.311   1.998  -2.968  1.00  0.00     0.065 A 
HETATM   17  C13 UNK     1       0.998   2.237  -2.560  1.00  0.00     0.037 A 
HETATM   18  C9  UNK     1       0.650   2.099  -1.216  1.00  0.00     0.014 A 
BRANCH  16  19
HETATM   19  O3  UNK     1       2.651   2.133  -4.279  1.00  0.00    -0.361 OA
HETATM   20  H12 UNK     1       1.863   2.398  -4.783  1.00  0.00     0.217 HD
ENDBRANCH  16  19
ENDBRANCH  12  13
ENDBRANCH   2  11
TORSDOF 5
