REMARK  4 active torsions:
REMARK  status: ('A' for Active; 'I' for Inactive)
REMARK    1  A    between atoms: C11_16  and  O3_3 
REMARK    2  A    between atoms: C12_17  and  O4_4 
REMARK    3  A    between atoms: C3_8  and  C5_10 
REMARK    4  A    between atoms: C12_17  and  C5_10 
ROOT
HETATM    1  O1  UNK     1      -0.529   0.223  -1.887  1.00  0.00    -0.274 OA
HETATM    2  O2  UNK     1      -2.647  -0.502  -1.512  1.00  0.00    -0.259 OA
HETATM    3  C1  UNK     1      -0.161   0.417   0.913  1.00  0.00    -0.036 A 
HETATM    4  C2  UNK     1       0.926   0.782  -0.019  1.00  0.00     0.005 A 
HETATM    5  C3  UNK     1      -1.353   0.020   0.419  1.00  0.00     0.034 A 
HETATM    6  C4  UNK     1       0.704   0.671  -1.388  1.00  0.00     0.092 A 
HETATM    7  C6  UNK     1      -1.580  -0.109  -1.049  1.00  0.00     0.295 A 
HETATM    8  C7  UNK     1       0.148   0.500   2.387  1.00  0.00     0.050 C 
HETATM    9  C8  UNK     1       2.184   1.252   0.389  1.00  0.00     0.017 A 
HETATM   10  C9  UNK     1       1.677   0.995  -2.337  1.00  0.00     0.074 A 
HETATM   11  C10 UNK     1       3.171   1.582  -0.548  1.00  0.00     0.037 A 
HETATM   12  C11 UNK     1       2.918   1.452  -1.911  1.00  0.00     0.068 A 
ENDROOT
BRANCH   5  13
HETATM   13  C5  UNK     1      -2.562  -0.319   1.254  1.00  0.00     0.155 C 
BRANCH  13  14
HETATM   14  C12 UNK     1      -2.549  -1.780   1.599  1.00  0.00     0.143 C 
HETATM   15  O5  UNK     1      -1.705  -2.609   1.290  1.00  0.00    -0.650 OA
BRANCH  14  16
HETATM   16  O4  UNK     1      -3.655  -2.073   2.331  1.00  0.00    -0.776 OA
HETATM   17  H10 UNK     1      -3.690  -3.022   2.578  1.00  0.00     0.167 HD
ENDBRANCH  14  16
ENDBRANCH  13  14
ENDBRANCH   5  13
BRANCH  12  18
HETATM   18  O3  UNK     1       3.878   1.774  -2.818  1.00  0.00    -0.361 OA
HETATM   19  H9  UNK     1       4.673   2.072  -2.344  1.00  0.00     0.217 HD
ENDBRANCH  12  18
TORSDOF 4
