REMARK  2 active torsions:
REMARK  status: ('A' for Active; 'I' for Inactive)
REMARK    1  A    between atoms: C1_4  and  C3_6 
REMARK    2  A    between atoms: C2_5  and  C4_7 
ROOT
HETATM    1  N1  UNK     1      -0.317   2.874   0.499  1.00  0.00    -0.191 NA
HETATM    2  C3  UNK     1      -0.279   0.298   0.141  1.00  0.00     0.055 C 
HETATM    3  C4  UNK     1       0.770  -0.227  -0.549  1.00  0.00     0.036 C 
HETATM    4  C15 UNK     1      -0.291   1.725   0.334  1.00  0.00     0.100 C 
ENDROOT
BRANCH   2   5
HETATM    5  C1  UNK     1      -1.373  -0.494   0.678  1.00  0.00    -0.015 A 
HETATM    6  C5  UNK     1      -2.504  -0.740  -0.100  1.00  0.00     0.014 A 
HETATM    7  C9  UNK     1      -3.554  -1.500   0.415  1.00  0.00     0.020 A 
HETATM    8  C13 UNK     1      -3.473  -2.014   1.709  1.00  0.00     0.011 A 
HETATM    9 Br1  UNK     1      -4.895  -3.045   2.407  1.00  0.00    -0.051 Br
HETATM   10  C10 UNK     1      -2.342  -1.769   2.487  1.00  0.00     0.020 A 
HETATM   11  C6  UNK     1      -1.292  -1.009   1.972  1.00  0.00     0.014 A 
ENDBRANCH   2   5
BRANCH   3  12
HETATM   12  C2  UNK     1       1.892   0.536  -1.114  1.00  0.00    -0.013 A 
HETATM   13  C7  UNK     1       1.857   1.040  -2.408  1.00  0.00     0.044 A 
HETATM   14  C11 UNK     1       2.948   1.758  -2.897  1.00  0.00     0.024 A 
HETATM   15 Cl1  UNK     1       0.498   0.811  -3.452  1.00  0.00    -0.083 Cl
HETATM   16  C14 UNK     1       4.064   1.967  -2.088  1.00  0.00     0.002 A 
HETATM   17  C12 UNK     1       4.091   1.458  -0.790  1.00  0.00     0.001 A 
HETATM   18  C8  UNK     1       3.000   0.740  -0.301  1.00  0.00     0.013 A 
ENDBRANCH   3  12
TORSDOF 2
