REMARK  3 active torsions:
REMARK  status: ('A' for Active; 'I' for Inactive)
REMARK       I    between atoms: C11_22  and  N1_7 
REMARK    1  A    between atoms: C4_15  and  N1_7 
REMARK    2  A    between atoms: C3_14  and  C9_20 
REMARK    3  A    between atoms: C11_22  and  C12_23 
ROOT
HETATM    1  O1  UNK     1      -3.356  -1.329  -0.729  1.00  0.00    -0.275 OA
HETATM    2  O2  UNK     1      -5.435  -2.251  -0.968  1.00  0.00    -0.260 OA
HETATM    3  C1  UNK     1      -2.381  -1.143   1.503  1.00  0.00     0.013 A 
HETATM    4  C2  UNK     1      -2.302  -0.946   0.124  1.00  0.00     0.092 A 
HETATM    5  C3  UNK     1      -3.594  -1.761   2.057  1.00  0.00     0.066 A 
HETATM    6  C4  UNK     1      -0.113   0.031   0.307  1.00  0.00     0.037 A 
HETATM    7  C5  UNK     1      -1.186  -0.367  -0.484  1.00  0.00     0.067 A 
HETATM    8  C6  UNK     1      -1.290  -0.735   2.282  1.00  0.00     0.017 A 
HETATM    9  C7  UNK     1      -0.165  -0.153   1.688  1.00  0.00     0.030 A 
HETATM   10  C8  UNK     1      -4.581  -2.115   1.222  1.00  0.00     0.099 A 
HETATM   11  C10 UNK     1      -4.512  -1.914  -0.235  1.00  0.00     0.289 A 
ENDROOT
BRANCH   6  12
HETATM   12  N1  UNK     1       1.011   0.612  -0.279  1.00  0.00    -0.320 N 
HETATM   13  C11 UNK     1       1.192   0.852  -1.636  1.00  0.00     0.296 C 
HETATM   14  O3  UNK     1       0.418   0.606  -2.555  1.00  0.00    -0.264 OA
HETATM   15  H5  UNK     1       1.759   0.884   0.355  1.00  0.00     0.169 HD
BRANCH  13  16
HETATM   16  C12 UNK     1       2.478   1.514  -1.979  1.00  0.00     0.256 A 
HETATM   17  N3  UNK     1       2.748   1.780  -3.225  1.00  0.00    -0.126 NA
HETATM   18  N2  UNK     1       3.967   2.352  -3.087  1.00  0.00    -0.069 N 
HETATM   19  C13 UNK     1       4.320   2.374  -1.735  1.00  0.00     0.751 A 
HETATM   20  C14 UNK     1       4.808   2.864  -4.067  1.00  0.00     0.139 A 
HETATM   21  N4  UNK     1       3.351   1.830  -1.027  1.00  0.00    -0.034 NA
HETATM   22  N5  UNK     1       5.513   2.903  -1.332  1.00  0.00    -0.073 NA
HETATM   23  C16 UNK     1       6.276   3.374  -2.271  1.00  0.00     0.138 A 
HETATM   24  C15 UNK     1       5.986   3.395  -3.728  1.00  0.00     0.040 A 
ENDBRANCH  13  16
ENDBRANCH   6  12
BRANCH   5  25
HETATM   25  C9  UNK     1      -3.711  -1.986   3.536  1.00  0.00     0.418 C 
HETATM   26  F1  UNK     1      -2.605  -1.555   4.175  1.00  0.00    -0.166 F 
HETATM   27  F2  UNK     1      -4.769  -1.322   4.042  1.00  0.00    -0.166 F 
HETATM   28  F3  UNK     1      -3.869  -3.295   3.815  1.00  0.00    -0.166 F 
ENDBRANCH   5  25
TORSDOF 3
