REMARK  2 active torsions:
REMARK  status: ('A' for Active; 'I' for Inactive)
REMARK    1  A    between atoms: C7_11  and  O3_3 
REMARK    2  A    between atoms: C3_7  and  C7_11 
ROOT
HETATM    1  O1  UNK     1      -2.390  -1.004  -0.166  1.00  0.00    -0.311 OA
HETATM    2  O2  UNK     1       1.845   0.902   0.436  1.00  0.00    -0.274 OA
HETATM    3  O4  UNK     1       3.909   1.824   0.776  1.00  0.00    -0.260 OA
HETATM    4  C1  UNK     1      -0.345  -0.074   0.062  1.00  0.00     0.041 A 
HETATM    5  C2  UNK     1      -0.801  -0.491   1.341  1.00  0.00    -0.014 A 
HETATM    6  C3  UNK     1      -2.044  -1.048   1.147  1.00  0.00     0.088 A 
HETATM    7  C4  UNK     1      -1.357  -0.412  -0.827  1.00  0.00     0.089 A 
HETATM    8  C5  UNK     1       0.805   0.551  -0.453  1.00  0.00     0.103 A 
HETATM    9  C6  UNK     1       0.919   0.821  -1.826  1.00  0.00     0.005 A 
HETATM   10  C8  UNK     1      -1.300  -0.169  -2.196  1.00  0.00     0.039 A 
HETATM   11  C9  UNK     1      -0.140   0.455  -2.675  1.00  0.00     0.017 A 
HETATM   12  C10 UNK     1       2.145   1.476  -2.312  1.00  0.00    -0.043 A 
HETATM   13  C11 UNK     1      -0.091  -0.357   2.628  1.00  0.00     0.052 C 
HETATM   14  C13 UNK     1       3.109   1.794  -1.437  1.00  0.00     0.090 A 
HETATM   15  C14 UNK     1       2.303   1.781  -3.774  1.00  0.00     0.049 C 
HETATM   16  C15 UNK     1       3.007   1.519   0.004  1.00  0.00     0.288 A 
ENDROOT
BRANCH   6  17
HETATM   17  C7  UNK     1      -3.028  -1.656   2.054  1.00  0.00     0.171 C 
HETATM   18  C12 UNK     1      -4.064  -0.656   2.598  1.00  0.00     0.046 C 
BRANCH  17  19
HETATM   19  O3  UNK     1      -3.751  -2.711   1.393  1.00  0.00    -0.389 OA
HETATM   20  H14 UNK     1      -4.348  -3.110   2.048  1.00  0.00     0.210 HD
ENDBRANCH  17  19
ENDBRANCH   6  17
TORSDOF 2
