REMARK  3 active torsions:
REMARK  status: ('A' for Active; 'I' for Inactive)
REMARK    1  A    between atoms: C16_21  and  O2_2 
REMARK    2  A    between atoms: C17_22  and  O2_2 
REMARK    3  A    between atoms: C14_19  and  C17_22 
ROOT
HETATM    1  O1  UNK     1      -0.948   0.054  -1.424  1.00  0.00    -0.273 OA
HETATM    2  O3  UNK     1      -3.007  -0.823  -0.961  1.00  0.00    -0.259 OA
HETATM    3  N1  UNK     1       3.407   1.976  -2.441  1.00  0.00    -0.380 N 
HETATM    4  C1  UNK     1       2.482   1.479  -1.517  1.00  0.00     0.045 A 
HETATM    5  C2  UNK     1       1.228   0.980  -1.939  1.00  0.00     0.004 A 
HETATM    6  C3  UNK     1       2.979   2.222  -3.815  1.00  0.00     0.123 C 
HETATM    7  C4  UNK     1       4.596   2.672  -1.958  1.00  0.00     0.123 C 
HETATM    8  C5  UNK     1       2.794   1.429  -0.137  1.00  0.00    -0.030 A 
HETATM    9  C6  UNK     1       0.850   0.995  -3.402  1.00  0.00     0.045 C 
HETATM   10  C7  UNK     1       2.079   1.095  -4.297  1.00  0.00     0.025 C 
HETATM   11  C8  UNK     1       5.165   1.969  -0.735  1.00  0.00     0.024 C 
HETATM   12  C9  UNK     1       4.121   1.937   0.374  1.00  0.00     0.042 C 
HETATM   13  C10 UNK     1       0.314   0.512  -0.980  1.00  0.00     0.098 A 
HETATM   14  C11 UNK     1       1.857   0.950   0.796  1.00  0.00     0.023 A 
HETATM   15  C12 UNK     1       0.611   0.491   0.376  1.00  0.00     0.000 A 
HETATM   16  C13 UNK     1      -0.381  -0.007   1.317  1.00  0.00     0.038 A 
HETATM   17  C14 UNK     1      -1.570  -0.441   0.883  1.00  0.00     0.115 A 
HETATM   18  C15 UNK     1      -1.920  -0.430  -0.553  1.00  0.00     0.304 A 
ENDROOT
BRANCH  17  19
HETATM   19  C17 UNK     1      -2.501  -0.925   1.909  1.00  0.00     0.300 C 
HETATM   20  O4  UNK     1      -2.521  -0.503   3.053  1.00  0.00    -0.259 OA
BRANCH  19  21
HETATM   21  O2  UNK     1      -3.290  -1.881   1.360  1.00  0.00    -0.307 OA
BRANCH  21  22
HETATM   22  C16 UNK     1      -4.259  -2.455   2.244  1.00  0.00     0.060 C 
HETATM   23  C18 UNK     1      -5.183  -1.343   2.740  1.00  0.00     0.046 C 
HETATM   24  C19 UNK     1      -5.048  -3.494   1.449  1.00  0.00     0.046 C 
HETATM   25  C20 UNK     1      -3.524  -3.114   3.410  1.00  0.00     0.046 C 
ENDBRANCH  21  22
ENDBRANCH  19  21
ENDBRANCH  17  19
TORSDOF 3
