REMARK  3 active torsions:
REMARK  status: ('A' for Active; 'I' for Inactive)
REMARK       I    between atoms: C16_21  and  N1_5 
REMARK    1  A    between atoms: C6_11  and  N1_5 
REMARK    2  A    between atoms: C1_6  and  C2_7 
REMARK    3  A    between atoms: C16_21  and  C17_22 
ROOT
HETATM    1  C2  UNK     1       0.943   0.794  -1.013  1.00  0.00    -0.020 A 
HETATM    2  C6  UNK     1      -1.281  -0.221   0.330  1.00  0.00     0.035 A 
HETATM    3  C7  UNK     1      -0.223   1.554  -0.922  1.00  0.00     0.014 A 
HETATM    4  C8  UNK     1       0.998  -0.472  -0.433  1.00  0.00     0.014 A 
HETATM    5  C10 UNK     1      -1.335   1.046  -0.251  1.00  0.00     0.030 A 
HETATM    6  C11 UNK     1      -0.114  -0.980   0.239  1.00  0.00     0.030 A 
ENDROOT
BRANCH   1   7
HETATM    7  C1  UNK     1       2.119   1.331  -1.723  1.00  0.00     0.051 A 
HETATM    8  C4  UNK     1       3.025   2.043  -1.036  1.00  0.00     0.032 A 
HETATM    9  C3  UNK     1       4.192   2.605  -1.694  1.00  0.00    -0.001 A 
HETATM   10  C12 UNK     1       5.155   3.344  -1.002  1.00  0.00     0.014 A 
HETATM   11  C5  UNK     1       4.354   2.405  -3.059  1.00  0.00     0.089 A 
HETATM   12  C14 UNK     1       6.259   3.867  -1.683  1.00  0.00     0.001 A 
HETATM   13  C15 UNK     1       6.405   3.654  -3.056  1.00  0.00     0.003 A 
HETATM   14  C13 UNK     1       5.448   2.919  -3.752  1.00  0.00     0.038 A 
HETATM   15  O1  UNK     1       3.405   1.665  -3.789  1.00  0.00    -0.274 OA
HETATM   16  C9  UNK     1       2.284   1.101  -3.185  1.00  0.00     0.299 A 
HETATM   17  O2  UNK     1       1.481   0.441  -3.836  1.00  0.00    -0.259 OA
ENDBRANCH   1   7
BRANCH   2  18
HETATM   18  N1  UNK     1      -2.394  -0.729   1.001  1.00  0.00    -0.323 N 
HETATM   19  C16 UNK     1      -2.524  -1.969   1.640  1.00  0.00     0.256 C 
HETATM   20  O3  UNK     1      -1.670  -2.845   1.726  1.00  0.00    -0.267 OA
HETATM   21  H8  UNK     1      -3.174  -0.080   1.047  1.00  0.00     0.169 HD
BRANCH  19  22
HETATM   22  C17 UNK     1      -3.854  -2.237   2.246  1.00  0.00     0.032 A 
HETATM   23  C18 UNK     1      -3.933  -3.093   3.324  1.00  0.00     0.018 A 
HETATM   24  C20 UNK     1      -5.181  -3.344   3.894  1.00  0.00     0.025 A 
HETATM   25  C22 UNK     1      -6.322  -2.732   3.374  1.00  0.00     0.034 A 
HETATM   26  C21 UNK     1      -6.214  -1.870   2.282  1.00  0.00     0.025 A 
HETATM   27 Cl1  UNK     1      -7.862  -3.042   4.076  1.00  0.00    -0.084 Cl
HETATM   28  C19 UNK     1      -4.966  -1.620   1.712  1.00  0.00     0.018 A 
ENDBRANCH  19  22
ENDBRANCH   2  18
TORSDOF 3
