REMARK  1 active torsions:
REMARK  status: ('A' for Active; 'I' for Inactive)
REMARK    1  A    between atoms: C5_8  and  O2_2 
ROOT
HETATM    1  O1  UNK     1      -0.535  -0.274   1.478  1.00  0.00    -0.275 OA
HETATM    2  O3  UNK     1      -2.146  -1.181   2.830  1.00  0.00    -0.260 OA
HETATM    3  C1  UNK     1      -0.921  -0.179  -0.923  1.00  0.00    -0.002 A 
HETATM    4  C2  UNK     1      -0.109   0.074   0.179  1.00  0.00     0.092 A 
HETATM    5  C3  UNK     1       1.141   0.673   0.047  1.00  0.00     0.075 A 
HETATM    6  C4  UNK     1      -0.465   0.181  -2.193  1.00  0.00     0.017 A 
HETATM    7  C5  UNK     1       1.589   1.028  -1.223  1.00  0.00     0.070 A 
HETATM    8  C6  UNK     1       0.788   0.783  -2.341  1.00  0.00     0.038 A 
HETATM    9  C7  UNK     1      -2.214  -0.807  -0.713  1.00  0.00     0.020 A 
HETATM   10  C8  UNK     1      -2.610  -1.133   0.520  1.00  0.00     0.083 A 
HETATM   11  C9  UNK     1      -1.768  -0.876   1.704  1.00  0.00     0.288 A 
ENDROOT
BRANCH   7  12
HETATM   12  O2  UNK     1       2.808   1.615  -1.377  1.00  0.00    -0.356 OA
HETATM   13  C10 UNK     1       3.575   1.837  -0.195  1.00  0.00     0.210 C 
ENDBRANCH   7  12
TORSDOF 1
