REMARK  5 active torsions:
REMARK  status: ('A' for Active; 'I' for Inactive)
REMARK    1  A    between atoms: C11_19  and  N1_6 
REMARK    2  A    between atoms: C4_12  and  N1_6 
REMARK    3  A    between atoms: C11_19  and  N2_7 
REMARK    4  A    between atoms: N2_7  and  N3_8 
REMARK       I    between atoms: C13_21  and  N3_8 
REMARK    5  A    between atoms: C12_20  and  C13_21 
ROOT
HETATM    1  N1  UNK     1       0.210  -0.218  -1.054  1.00  0.00    -0.332 N 
HETATM    2  H8  UNK     1       1.175  -0.035  -0.787  1.00  0.00     0.168 HD
ENDROOT
BRANCH   1   3
HETATM    3  C11 UNK     1      -0.043   0.056  -2.410  1.00  0.00     0.191 C 
HETATM    4  S1  UNK     1      -1.229  -0.580  -3.409  1.00  0.00    -0.039 SA
BRANCH   3   5
HETATM    5  N2  UNK     1       0.835   0.972  -2.980  1.00  0.00    -0.273 N 
HETATM    6  H9  UNK     1       0.749   1.256  -3.951  1.00  0.00     0.189 HD
BRANCH   5   7
HETATM    7  N3  UNK     1       1.862   1.537  -2.259  1.00  0.00    -0.262 N 
HETATM    8  C13 UNK     1       3.023   1.892  -2.920  1.00  0.00     0.293 C 
HETATM    9  O4  UNK     1       3.223   1.745  -4.123  1.00  0.00    -0.264 OA
HETATM   10  H10 UNK     1       1.695   1.743  -1.280  1.00  0.00     0.190 HD
BRANCH   8  11
HETATM   11  C12 UNK     1       4.089   2.481  -2.069  1.00  0.00     0.144 A 
HETATM   12  O3  UNK     1       3.794   2.593  -0.776  1.00  0.00    -0.317 OA
HETATM   13  C16 UNK     1       4.907   3.146  -0.226  1.00  0.00     0.143 A 
HETATM   14  C15 UNK     1       5.864   3.364  -1.190  1.00  0.00     0.027 A 
HETATM   15  C14 UNK     1       5.304   2.916  -2.409  1.00  0.00     0.045 A 
ENDBRANCH   8  11
ENDBRANCH   5   7
ENDBRANCH   3   5
ENDBRANCH   1   3
BRANCH   1  16
HETATM   16  C4  UNK     1      -0.582  -0.608   0.025  1.00  0.00     0.037 A 
HETATM   17  C6  UNK     1      -1.953  -0.774  -0.139  1.00  0.00     0.067 A 
HETATM   18  C2  UNK     1      -2.728  -1.166   0.954  1.00  0.00     0.092 A 
HETATM   19  C1  UNK     1      -2.175  -1.399   2.214  1.00  0.00     0.004 A 
HETATM   20  O1  UNK     1      -4.110  -1.318   0.726  1.00  0.00    -0.275 OA
HETATM   21  C3  UNK     1      -3.066  -1.809   3.309  1.00  0.00    -0.043 A 
HETATM   22  C5  UNK     1      -0.792  -1.226   2.359  1.00  0.00     0.017 A 
HETATM   23  C8  UNK     1      -4.376  -1.946   3.062  1.00  0.00     0.090 A 
HETATM   24  C9  UNK     1      -2.502  -2.067   4.675  1.00  0.00     0.049 C 
HETATM   25  C10 UNK     1      -4.975  -1.704   1.738  1.00  0.00     0.288 A 
HETATM   26  O2  UNK     1      -6.179  -1.839   1.550  1.00  0.00    -0.260 OA
HETATM   27  C7  UNK     1      -0.003  -0.834   1.273  1.00  0.00     0.030 A 
ENDBRANCH   1  16
TORSDOF 5
