REMARK  6 active torsions:
REMARK  status: ('A' for Active; 'I' for Inactive)
REMARK    1  A    between atoms: C2_11  and  N1_6 
REMARK    2  A    between atoms: C3_12  and  N2_7 
REMARK       I    between atoms: C6_15  and  N2_7 
REMARK    3  A    between atoms: C14_23  and  N4_9 
REMARK    4  A    between atoms: C1_10  and  C2_11 
REMARK    5  A    between atoms: C1_10  and  C3_12 
REMARK    6  A    between atoms: C4_13  and  C6_15 
ROOT
HETATM    1  O1  UNK     1      -0.045   1.337  -2.080  1.00  0.00    -0.274 OA
HETATM    2  O3  UNK     1      -1.762   0.668  -0.730  1.00  0.00    -0.259 OA
HETATM    3  C4  UNK     1       0.415   0.594   0.204  1.00  0.00     0.108 A 
HETATM    4  C5  UNK     1       2.233   1.305  -1.231  1.00  0.00     0.001 A 
HETATM    5  C7  UNK     1       1.726   0.805   0.038  1.00  0.00     0.037 A 
HETATM    6  C8  UNK     1       1.334   1.560  -2.261  1.00  0.00     0.089 A 
HETATM    7  C11 UNK     1       3.593   1.538  -1.449  1.00  0.00     0.050 A 
HETATM    8  C12 UNK     1      -0.560   0.858  -0.878  1.00  0.00     0.304 A 
HETATM    9  C13 UNK     1       1.755   2.041  -3.500  1.00  0.00     0.041 A 
HETATM   10  C14 UNK     1       4.030   2.020  -2.687  1.00  0.00     0.103 A 
HETATM   11  C15 UNK     1       3.113   2.271  -3.709  1.00  0.00     0.039 A 
ENDROOT
BRANCH   3  12
HETATM   12  C6  UNK     1       0.001   0.089   1.519  1.00  0.00     0.257 C 
HETATM   13  O2  UNK     1       0.750  -0.620   2.187  1.00  0.00    -0.267 OA
HETATM   14  N2  UNK     1      -1.273   0.495   1.875  1.00  0.00    -0.357 N 
HETATM   15  H7  UNK     1      -1.805   1.104   1.261  1.00  0.00     0.162 HD
BRANCH  14  16
HETATM   16  C3  UNK     1      -1.899   0.122   3.122  1.00  0.00     0.124 C 
BRANCH  16  17
HETATM   17  C1  UNK     1      -2.689  -1.177   3.008  1.00  0.00     0.040 C 
BRANCH  17  18
HETATM   18  C2  UNK     1      -3.827  -1.080   1.991  1.00  0.00     0.131 C 
BRANCH  18  19
HETATM   19  N1  UNK     1      -4.583  -2.326   1.895  1.00  0.00    -0.350 N 
HETATM   20  C10 UNK     1      -5.672  -2.649   2.637  1.00  0.00     0.209 A 
HETATM   21  N3  UNK     1      -6.129  -3.839   2.318  1.00  0.00    -0.255 NA
HETATM   22  C16 UNK     1      -5.287  -4.284   1.330  1.00  0.00     0.135 A 
HETATM   23  C9  UNK     1      -4.314  -3.352   1.051  1.00  0.00     0.111 A 
ENDBRANCH  18  19
ENDBRANCH  17  18
ENDBRANCH  16  17
ENDBRANCH  14  16
ENDBRANCH   3  12
BRANCH  10  24
HETATM   24  N4  UNK     1       5.413   2.257  -2.904  1.00  0.00    -0.116 N 
HETATM   25  O4  UNK     1       5.787   2.690  -4.021  1.00  0.00    -0.532 OA
HETATM   26  O5  UNK     1       6.223   2.026  -1.974  1.00  0.00    -0.532 OA
ENDBRANCH  10  24
TORSDOF 6
