REMARK  5 active torsions:
REMARK  status: ('A' for Active; 'I' for Inactive)
REMARK    1  A    between atoms: C14_20  and  N1_5 
REMARK    2  A    between atoms: C15_21  and  N2_6 
REMARK    3  A    between atoms: C16_22  and  N2_6 
REMARK    4  A    between atoms: C17_23  and  N2_6 
REMARK    5  A    between atoms: C11_17  and  C4_10 
ROOT
HETATM    1  O1  UNK     1       3.775   2.727  -0.042  1.00  0.00    -0.332 OA
HETATM    2  O2  UNK     1       0.630   0.257  -2.816  1.00  0.00    -0.274 OA
HETATM    3  O3  UNK     1       2.486   0.043   2.000  1.00  0.00    -0.289 OA
HETATM    4  O4  UNK     1      -0.777  -0.919  -4.188  1.00  0.00    -0.260 OA
HETATM    5  C1  UNK     1       3.919   1.627   0.858  1.00  0.00     0.125 C 
HETATM    6  C2  UNK     1       2.113   1.506  -1.343  1.00  0.00     0.048 A 
HETATM    7  C3  UNK     1       2.664   0.763   1.020  1.00  0.00     0.196 C 
HETATM    8  C4  UNK     1       1.689   0.824  -0.110  1.00  0.00     0.044 C 
HETATM    9  C5  UNK     1       3.139   2.455  -1.226  1.00  0.00     0.084 A 
HETATM   10  C6  UNK     1       4.257   2.256   2.217  1.00  0.00     0.055 C 
HETATM   11  C7  UNK     1       5.088   0.742   0.407  1.00  0.00     0.055 C 
HETATM   12  C8  UNK     1       1.592   1.280  -2.629  1.00  0.00     0.103 A 
HETATM   13  C9  UNK     1       2.017   2.011  -3.743  1.00  0.00    -0.001 A 
HETATM   14  C10 UNK     1       3.557   3.211  -2.326  1.00  0.00     0.039 A 
HETATM   15  C12 UNK     1       2.995   2.992  -3.582  1.00  0.00     0.017 A 
HETATM   16  C13 UNK     1       1.433   1.734  -5.046  1.00  0.00     0.020 A 
HETATM   17  C22 UNK     1       0.515   0.776  -5.190  1.00  0.00     0.083 A 
HETATM   18  C23 UNK     1       0.061  -0.035  -4.050  1.00  0.00     0.288 A 
ENDROOT
BRANCH   8  19
HETATM   19  C11 UNK     1       0.455   0.354   0.131  1.00  0.00     0.104 C 
HETATM   20  N1  UNK     1       0.014  -0.278   1.242  1.00  0.00    -0.365 N 
HETATM   21  H10 UNK     1       0.689  -0.421   1.985  1.00  0.00     0.165 HD
BRANCH  20  22
HETATM   22  C14 UNK     1      -1.271  -0.779   1.520  1.00  0.00     0.032 A 
HETATM   23  C18 UNK     1      -1.530  -1.408   2.739  1.00  0.00     0.031 A 
HETATM   24  C20 UNK     1      -2.804  -1.905   3.013  1.00  0.00     0.031 A 
HETATM   25  C15 UNK     1      -3.822  -1.775   2.068  1.00  0.00     0.030 A 
HETATM   26  C21 UNK     1      -3.566  -1.147   0.849  1.00  0.00     0.031 A 
HETATM   27  C19 UNK     1      -2.292  -0.650   0.575  1.00  0.00     0.031 A 
BRANCH  25  28
HETATM   28  N2  UNK     1      -5.110  -2.277   2.346  1.00  0.00    -0.382 N 
BRANCH  28  29
HETATM   29  C16 UNK     1      -5.305  -3.687   2.618  1.00  0.00     0.118 C 
HETATM   30  C24 UNK     1      -5.379  -4.495   1.339  1.00  0.00     0.026 C 
ENDBRANCH  28  29
BRANCH  28  31
HETATM   31  C17 UNK     1      -6.254  -1.388   2.376  1.00  0.00     0.118 C 
HETATM   32  C25 UNK     1      -6.362  -0.668   3.705  1.00  0.00     0.026 C 
ENDBRANCH  28  31
ENDBRANCH  25  28
ENDBRANCH  20  22
ENDBRANCH   8  19
TORSDOF 5
