REMARK  2 active torsions:
REMARK  status: ('A' for Active; 'I' for Inactive)
REMARK       I    between atoms: C5_12  and  N1_4 
REMARK    1  A    between atoms: C6_13  and  N2_5 
REMARK    2  A    between atoms: C5_12  and  C7_14 
ROOT
HETATM    1  O1  UNK     1       2.200   0.227   2.009  1.00  0.00    -0.267 OA
HETATM    2  N1  UNK     1       0.028   0.454   1.216  1.00  0.00    -0.345 N 
HETATM    3  N2  UNK     1      -2.499  -0.794   1.352  1.00  0.00    -0.211 N 
HETATM    4  C1  UNK     1      -0.956   0.704   0.159  1.00  0.00     0.146 C 
HETATM    5  C2  UNK     1      -0.580   0.219   2.524  1.00  0.00     0.146 C 
HETATM    6  C3  UNK     1      -1.919  -0.476   0.039  1.00  0.00     0.161 C 
HETATM    7  C4  UNK     1      -1.545  -0.965   2.460  1.00  0.00     0.161 C 
HETATM    8  C5  UNK     1       1.412   0.444   1.087  1.00  0.00     0.260 C 
ENDROOT
BRANCH   8   9
HETATM    9  C7  UNK     1       1.980   0.705  -0.250  1.00  0.00     0.108 A 
HETATM   10  C10 UNK     1       2.250  -0.384  -1.216  1.00  0.00     0.304 A 
HETATM   11  O2  UNK     1       2.786  -0.011  -2.445  1.00  0.00    -0.274 OA
HETATM   12  O3  UNK     1       2.014  -1.558  -0.951  1.00  0.00    -0.259 OA
HETATM   13  C11 UNK     1       3.061   1.335  -2.759  1.00  0.00     0.089 A 
HETATM   14  C9  UNK     1       2.799   2.343  -1.836  1.00  0.00    -0.001 A 
HETATM   15  C15 UNK     1       3.598   1.610  -4.015  1.00  0.00     0.038 A 
HETATM   16  C12 UNK     1       3.085   3.666  -2.184  1.00  0.00     0.014 A 
HETATM   17  C8  UNK     1       2.239   1.985  -0.543  1.00  0.00     0.037 A 
HETATM   18  C17 UNK     1       3.623   3.958  -3.441  1.00  0.00     0.001 A 
HETATM   19  C18 UNK     1       3.879   2.932  -4.354  1.00  0.00     0.003 A 
ENDBRANCH   8   9
BRANCH   3  20
HETATM   20  C6  UNK     1      -3.706  -1.501   1.419  1.00  0.00     0.724 A 
HETATM   21  N3  UNK     1      -4.301  -1.870   0.247  1.00  0.00    -0.075 NA
HETATM   22  C13 UNK     1      -5.462  -2.550   0.349  1.00  0.00     0.138 A 
HETATM   23  C16 UNK     1      -6.055  -2.879   1.550  1.00  0.00     0.040 A 
HETATM   24  C14 UNK     1      -5.381  -2.465   2.681  1.00  0.00     0.138 A 
HETATM   25  N4  UNK     1      -4.218  -1.782   2.654  1.00  0.00    -0.075 NA
ENDBRANCH   3  20
TORSDOF 2
