REMARK  9 active torsions:
REMARK  status: ('A' for Active; 'I' for Inactive)
REMARK    1  A    between atoms: C5_14  and  S1_1 
REMARK    2  A    between atoms: N1_9  and  S1_1 
REMARK    3  A    between atoms: C4_13  and  O1_3 
REMARK    4  A    between atoms: C8_17  and  O1_3 
REMARK    5  A    between atoms: C1_10  and  N1_9 
REMARK    6  A    between atoms: C1_10  and  C2_11 
REMARK    7  A    between atoms: C1_10  and  C4_13 
REMARK    8  A    between atoms: C2_11  and  C3_12 
REMARK    9  A    between atoms: C19_28  and  C9_18 
ROOT
HETATM    1  O5  UNK     1      -0.369  -1.306  -0.193  1.00  0.00    -0.262 OA
HETATM    2  C4  UNK     1      -1.023  -0.520   0.480  1.00  0.00     0.287 C 
ENDROOT
BRANCH   2   3
HETATM    3  C1  UNK     1      -2.051  -0.908   1.524  1.00  0.00     0.197 C 
BRANCH   3   4
HETATM    4  N1  UNK     1      -2.155  -2.387   1.458  1.00  0.00    -0.301 N 
HETATM    5  H4  UNK     1      -1.341  -2.922   1.787  1.00  0.00     0.173 HD
BRANCH   4   6
HETATM    6  S1  UNK     1      -3.232  -3.109   0.363  1.00  0.00     0.259 S 
HETATM    7  O3  UNK     1      -2.783  -4.454   0.059  1.00  0.00    -0.201 OA
HETATM    8  O4  UNK     1      -3.505  -2.171  -0.710  1.00  0.00    -0.201 OA
BRANCH   6   9
HETATM    9  C5  UNK     1      -4.707  -3.232   1.329  1.00  0.00     0.079 A 
HETATM   10  C15 UNK     1      -4.929  -4.372   2.081  1.00  0.00     0.026 A 
HETATM   11  C21 UNK     1      -6.093  -4.469   2.844  1.00  0.00     0.008 A 
HETATM   12  C20 UNK     1      -7.018  -3.424   2.841  1.00  0.00    -0.062 A 
HETATM   13  C22 UNK     1      -6.778  -2.283   2.076  1.00  0.00     0.008 A 
HETATM   14  C29 UNK     1      -8.263  -3.529   3.655  1.00  0.00     0.048 C 
HETATM   15  C16 UNK     1      -5.614  -2.186   1.314  1.00  0.00     0.026 A 
ENDBRANCH   6   9
ENDBRANCH   4   6
ENDBRANCH   3   4
BRANCH   3  16
HETATM   16  C2  UNK     1      -1.612  -0.506   2.934  1.00  0.00     0.074 C 
BRANCH  16  17
HETATM   17  C3  UNK     1      -2.735  -0.528   3.941  1.00  0.00    -0.056 A 
HETATM   18  C10 UNK     1      -2.993  -1.693   4.647  1.00  0.00     0.007 A 
HETATM   19  C23 UNK     1      -4.031  -1.714   5.578  1.00  0.00     0.001 A 
HETATM   20  C25 UNK     1      -4.799  -0.569   5.791  1.00  0.00     0.000 A 
HETATM   21  C24 UNK     1      -4.529   0.596   5.074  1.00  0.00     0.001 A 
HETATM   22  C11 UNK     1      -3.490   0.617   4.143  1.00  0.00     0.007 A 
ENDBRANCH  16  17
ENDBRANCH   3  16
ENDBRANCH   2   3
BRANCH   2  23
HETATM   23  O1  UNK     1      -0.944   0.883   0.385  1.00  0.00    -0.277 OA
BRANCH  23  24
HETATM   24  C8  UNK     1      -0.045   1.337  -0.529  1.00  0.00     0.082 A 
HETATM   25  C13 UNK     1       1.275   1.580  -0.148  1.00  0.00     0.075 A 
HETATM   26  C7  UNK     1       2.196   2.046  -1.087  1.00  0.00     0.092 A 
HETATM   27  C6  UNK     1       1.798   2.268  -2.400  1.00  0.00     0.049 A 
HETATM   28  O2  UNK     1       3.475   2.266  -0.652  1.00  0.00    -0.313 OA
HETATM   29  C12 UNK     1       2.788   2.758  -3.367  1.00  0.00     0.198 A 
HETATM   30  C17 UNK     1       0.476   2.026  -2.788  1.00  0.00     0.021 A 
HETATM   31  O6  UNK     1       2.486   2.969  -4.535  1.00  0.00    -0.286 OA
HETATM   32  C9  UNK     1       4.171   2.981  -2.855  1.00  0.00     0.054 A 
HETATM   33  C14 UNK     1       4.425   2.727  -1.554  1.00  0.00     0.065 A 
HETATM   34  C26 UNK     1       5.765   2.904  -0.893  1.00  0.00     0.077 C 
HETATM   35  C18 UNK     1      -0.443   1.560  -1.847  1.00  0.00     0.038 A 
BRANCH  32  36
HETATM   36  C19 UNK     1       5.200   3.464  -3.767  1.00  0.00    -0.019 A 
HETATM   37  C27 UNK     1       5.403   4.834  -3.922  1.00  0.00     0.015 A 
HETATM   38  C30 UNK     1       6.388   5.296  -4.796  1.00  0.00     0.043 A 
HETATM   39  C32 UNK     1       7.167   4.387  -5.512  1.00  0.00     0.116 A 
HETATM   40  C31 UNK     1       6.962   3.017  -5.355  1.00  0.00     0.043 A 
HETATM   41  F1  UNK     1       8.112   4.830  -6.352  1.00  0.00    -0.206 F 
HETATM   42  C28 UNK     1       5.977   2.555  -4.482  1.00  0.00     0.015 A 
ENDBRANCH  32  36
ENDBRANCH  23  24
ENDBRANCH   2  23
TORSDOF 9
