REMARK  3 active torsions:
REMARK  status: ('A' for Active; 'I' for Inactive)
REMARK    1  A    between atoms: C3_8  and  N1_5 
REMARK       I    between atoms: C7_12  and  N1_5 
REMARK    2  A    between atoms: C1_6  and  C3_8 
REMARK    3  A    between atoms: C7_12  and  C8_13 
ROOT
HETATM    1  O3  UNK     1       2.474   0.022  -0.168  1.00  0.00    -0.274 OA
HETATM    2  O4  UNK     1       0.883  -1.471   0.511  1.00  0.00    -0.259 OA
HETATM    3  C8  UNK     1       0.208   0.153  -1.078  1.00  0.00     0.108 A 
HETATM    4  C9  UNK     1       0.543   1.205  -1.834  1.00  0.00     0.037 A 
HETATM    5  C10 UNK     1       1.898   1.734  -1.796  1.00  0.00    -0.001 A 
HETATM    6  C11 UNK     1       1.187  -0.507  -0.184  1.00  0.00     0.304 A 
HETATM    7  C12 UNK     1       2.833   1.129  -0.962  1.00  0.00     0.089 A 
HETATM    8  C13 UNK     1       2.292   2.829  -2.568  1.00  0.00     0.014 A 
HETATM    9  C14 UNK     1       4.147   1.586  -0.880  1.00  0.00     0.038 A 
HETATM   10  C15 UNK     1       3.606   3.299  -2.495  1.00  0.00     0.001 A 
HETATM   11  C16 UNK     1       4.532   2.679  -1.653  1.00  0.00     0.003 A 
ENDROOT
BRANCH   3  12
HETATM   12  C7  UNK     1      -1.182  -0.307  -1.185  1.00  0.00     0.258 C 
HETATM   13  O2  UNK     1      -1.813  -0.169  -2.231  1.00  0.00    -0.267 OA
HETATM   14  N1  UNK     1      -1.651  -0.880  -0.017  1.00  0.00    -0.350 N 
HETATM   15  H12 UNK     1      -1.037  -0.969   0.787  1.00  0.00     0.163 HD
BRANCH  14  16
HETATM   16  C3  UNK     1      -2.991  -1.404   0.121  1.00  0.00     0.109 C 
HETATM   17  C6  UNK     1      -3.031  -2.863  -0.314  1.00  0.00     0.035 C 
BRANCH  16  18
HETATM   18  C1  UNK     1      -3.484  -1.241   1.545  1.00  0.00     0.143 C 
HETATM   19  O1  UNK     1      -2.642  -1.986   2.442  1.00  0.00    -0.384 OA
HETATM   20  C5  UNK     1      -2.416  -1.193   3.616  1.00  0.00     0.168 C 
HETATM   21  C4  UNK     1      -3.341   0.003   3.527  1.00  0.00     0.029 C 
HETATM   22  C2  UNK     1      -3.457   0.196   2.036  1.00  0.00     0.036 C 
ENDBRANCH  16  18
ENDBRANCH  14  16
ENDBRANCH   3  12
TORSDOF 3
