REMARK  7 active torsions:
REMARK  status: ('A' for Active; 'I' for Inactive)
REMARK    1  A    between atoms: C21_29  and  O4_4 
REMARK    2  A    between atoms: C23_31  and  O5_5 
REMARK    3  A    between atoms: C5_13  and  N1_6 
REMARK    4  A    between atoms: C6_14  and  N2_7 
REMARK    5  A    between atoms: C17_25  and  N3_8 
REMARK       I    between atoms: C9_17  and  N3_8 
REMARK    6  A    between atoms: C5_13  and  C7_15 
REMARK    7  A    between atoms: C6_14  and  C9_17 
ROOT
HETATM    1  N1  UNK     1       1.715   2.132  -0.320  1.00  0.00     0.096 N 
HETATM    2  N2  UNK     1      -0.036   0.838   1.582  1.00  0.00     0.100 N 
HETATM    3  C1  UNK     1       0.451   1.516  -0.743  1.00  0.00     0.303 C 
HETATM    4  C2  UNK     1       1.618   2.600   1.067  1.00  0.00     0.303 C 
HETATM    5  C3  UNK     1       0.063   0.368   0.195  1.00  0.00     0.303 C 
HETATM    6  C4  UNK     1       1.228   1.453   2.005  1.00  0.00     0.303 C 
ENDROOT
BRANCH   2   7
HETATM    7  C6  UNK     1      -0.405  -0.258   2.476  1.00  0.00     0.375 C 
BRANCH   7   8
HETATM    8  C9  UNK     1      -1.891  -0.542   2.340  1.00  0.00     0.250 C 
HETATM    9  O2  UNK     1      -2.706   0.325   2.042  1.00  0.00    -0.271 OA
HETATM   10  N3  UNK     1      -2.149  -1.888   2.592  1.00  0.00    -0.326 N 
HETATM   11  H15 UNK     1      -1.360  -2.485   2.830  1.00  0.00     0.169 HD
BRANCH  10  12
HETATM   12  C17 UNK     1      -3.401  -2.547   2.566  1.00  0.00     0.037 A 
HETATM   13  C19 UNK     1      -4.559  -1.832   2.261  1.00  0.00     0.069 A 
HETATM   14  C21 UNK     1      -5.794  -2.481   2.237  1.00  0.00     0.103 A 
HETATM   15  C23 UNK     1      -5.870  -3.845   2.517  1.00  0.00     0.101 A 
HETATM   16  C22 UNK     1      -4.712  -4.560   2.821  1.00  0.00     0.042 A 
HETATM   17  C20 UNK     1      -3.477  -3.911   2.846  1.00  0.00     0.032 A 
BRANCH  14  18
HETATM   18  O4  UNK     1      -6.918  -1.772   1.939  1.00  0.00    -0.353 OA
HETATM   19  C24 UNK     1      -6.754  -0.381   1.665  1.00  0.00     0.210 C 
ENDBRANCH  14  18
BRANCH  15  20
HETATM   20  O5  UNK     1      -7.070  -4.490   2.496  1.00  0.00    -0.353 OA
HETATM   21  C25 UNK     1      -7.061  -5.885   2.794  1.00  0.00     0.210 C 
ENDBRANCH  15  20
ENDBRANCH  10  12
ENDBRANCH   7   8
ENDBRANCH   2   7
BRANCH   1  22
HETATM   22  C5  UNK     1       2.083   3.228  -1.214  1.00  0.00     0.312 C 
BRANCH  22  23
HETATM   23  C7  UNK     1       2.648   2.738  -2.502  1.00  0.00    -0.011 A 
HETATM   24  C10 UNK     1       1.859   2.492  -3.557  1.00  0.00     0.092 A 
HETATM   25  C13 UNK     1       2.373   2.007  -4.849  1.00  0.00     0.288 A 
HETATM   26  O1  UNK     1       3.742   1.809  -4.940  1.00  0.00    -0.275 OA
HETATM   27  O3  UNK     1       1.620   1.793  -5.793  1.00  0.00    -0.260 OA
HETATM   28  C11 UNK     1       4.597   2.059  -3.848  1.00  0.00     0.090 A 
HETATM   29  C8  UNK     1       4.095   2.518  -2.629  1.00  0.00     0.006 A 
HETATM   30  C14 UNK     1       5.957   1.823  -4.054  1.00  0.00     0.045 A 
HETATM   31  C12 UNK     1       5.011   2.742  -1.593  1.00  0.00     0.015 A 
HETATM   32  C16 UNK     1       6.378   2.510  -1.783  1.00  0.00     0.007 A 
HETATM   33  C15 UNK     1       6.850   2.052  -3.012  1.00  0.00    -0.059 A 
HETATM   34  C18 UNK     1       8.308   1.807  -3.208  1.00  0.00     0.048 C 
ENDBRANCH  22  23
ENDBRANCH   1  22
TORSDOF 7
