REMARK  4 active torsions:
REMARK  status: ('A' for Active; 'I' for Inactive)
REMARK    1  A    between atoms: C14_17  and  O3_3 
REMARK    2  A    between atoms: C1_4  and  C2_5 
REMARK    3  A    between atoms: C1_4  and  C3_6 
REMARK    4  A    between atoms: C3_6  and  C6_9 
ROOT
HETATM    1  O1  UNK     1      -0.324   0.260  -2.006  1.00  0.00    -0.274 OA
HETATM    2  O2  UNK     1      -2.464  -0.431  -1.700  1.00  0.00    -0.259 OA
HETATM    3  C2  UNK     1      -1.237   0.104   0.270  1.00  0.00     0.024 A 
HETATM    4  C4  UNK     1      -0.058   0.492   0.802  1.00  0.00    -0.037 A 
HETATM    5  C5  UNK     1       1.068   0.828  -0.094  1.00  0.00     0.005 A 
HETATM    6  C7  UNK     1       0.895   0.699  -1.469  1.00  0.00     0.092 A 
HETATM    7  C8  UNK     1      -1.410  -0.045  -1.204  1.00  0.00     0.295 A 
HETATM    8  C9  UNK     1       0.197   0.594   2.286  1.00  0.00     0.050 C 
HETATM    9  C10 UNK     1       2.317   1.287   0.354  1.00  0.00     0.017 A 
HETATM   10  C12 UNK     1       1.908   0.995  -2.385  1.00  0.00     0.074 A 
HETATM   11  C13 UNK     1       3.343   1.589  -0.550  1.00  0.00     0.037 A 
HETATM   12  C14 UNK     1       3.138   1.442  -1.919  1.00  0.00     0.068 A 
ENDROOT
BRANCH   3  13
HETATM   13  C1  UNK     1      -2.480  -0.206   1.064  1.00  0.00     0.045 C 
BRANCH  13  14
HETATM   14  C3  UNK     1      -2.536  -1.676   1.455  1.00  0.00     0.004 C 
BRANCH  14  15
HETATM   15  C6  UNK     1      -3.787  -1.968   2.285  1.00  0.00    -0.004 C 
HETATM   16  C11 UNK     1      -3.841  -3.425   2.717  1.00  0.00     0.005 C 
ENDBRANCH  14  15
ENDBRANCH  13  14
ENDBRANCH   3  13
BRANCH  12  17
HETATM   17  O3  UNK     1       4.136   1.736  -2.795  1.00  0.00    -0.361 OA
HETATM   18  H16 UNK     1       4.917   2.031  -2.296  1.00  0.00     0.217 HD
ENDBRANCH  12  17
TORSDOF 4
