REMARK  3 active torsions:
REMARK  status: ('A' for Active; 'I' for Inactive)
REMARK    1  A    between atoms: C11_16  and  O2_3 
REMARK    2  A    between atoms: C5_10  and  O2_3 
REMARK    3  A    between atoms: C11_16  and  C12_17 
ROOT
HETATM    1 Cl1  UNK     1       0.060   0.432  -3.568  1.00  0.00    -0.081 Cl
HETATM    2  O1  UNK     1      -3.085  -0.947   0.165  1.00  0.00    -0.275 OA
HETATM    3  O3  UNK     1      -4.586  -1.575   1.772  1.00  0.00    -0.260 OA
HETATM    4  C1  UNK     1      -0.764  -0.524   0.797  1.00  0.00     0.007 A 
HETATM    5  C2  UNK     1      -1.111  -0.848   2.188  1.00  0.00    -0.043 A 
HETATM    6  C3  UNK     1      -1.766  -0.584  -0.172  1.00  0.00     0.092 A 
HETATM    7  C4  UNK     1       0.522  -0.156   0.381  1.00  0.00     0.053 A 
HETATM    8  C5  UNK     1       0.782   0.139  -0.962  1.00  0.00     0.091 A 
HETATM    9  C6  UNK     1      -1.522  -0.291  -1.516  1.00  0.00     0.065 A 
HETATM   10  C7  UNK     1      -0.239   0.072  -1.909  1.00  0.00     0.070 A 
HETATM   11  C8  UNK     1      -2.373  -1.191   2.479  1.00  0.00     0.090 A 
HETATM   12  C9  UNK     1      -0.056  -0.792   3.255  1.00  0.00     0.049 C 
HETATM   13  C10 UNK     1      -3.441  -1.259   1.468  1.00  0.00     0.288 A 
ENDROOT
BRANCH   8  14
HETATM   14  O2  UNK     1       2.051   0.493  -1.319  1.00  0.00    -0.342 OA
BRANCH  14  15
HETATM   15  C11 UNK     1       2.597   1.654  -0.698  1.00  0.00     0.253 C 
BRANCH  15  16
HETATM   16  C12 UNK     1       3.600   2.326  -1.611  1.00  0.00     0.146 C 
HETATM   17  O4  UNK     1       3.864   1.895  -2.733  1.00  0.00    -0.296 OA
HETATM   18  C13 UNK     1       4.266   3.565  -1.073  1.00  0.00     0.093 C 
ENDBRANCH  15  16
ENDBRANCH  14  15
ENDBRANCH   8  14
TORSDOF 3
