REMARK  3 active torsions:
REMARK  status: ('A' for Active; 'I' for Inactive)
REMARK    1  A    between atoms: C5_13  and  N1_7 
REMARK       I    between atoms: C6_14  and  N2_8 
REMARK    2  A    between atoms: C6_14  and  C9_17 
REMARK    3  A    between atoms: C10_18  and  C16_24 
ROOT
HETATM    1  O1  UNK     1       3.591  -0.812   0.482  1.00  0.00    -0.267 OA
HETATM    2  N1  UNK     1      -1.357  -0.375   1.408  1.00  0.00    -0.378 N 
HETATM    3  N2  UNK     1       1.401  -0.032   0.601  1.00  0.00    -0.345 N 
HETATM    4  C1  UNK     1      -0.426  -1.506   1.377  1.00  0.00     0.143 C 
HETATM    5  C2  UNK     1      -0.826   0.965   1.149  1.00  0.00     0.143 C 
HETATM    6  C3  UNK     1       1.009  -1.030   1.594  1.00  0.00     0.146 C 
HETATM    7  C4  UNK     1       0.355   0.904   0.179  1.00  0.00     0.146 C 
HETATM    8  C6  UNK     1       2.711  -0.027   0.126  1.00  0.00     0.260 C 
ENDROOT
BRANCH   8   9
HETATM    9  C9  UNK     1       3.058   0.994  -0.885  1.00  0.00     0.108 A 
HETATM   10  C12 UNK     1       2.883   0.643  -2.164  1.00  0.00     0.037 A 
HETATM   11  C15 UNK     1       3.198   1.580  -3.231  1.00  0.00    -0.001 A 
HETATM   12  C17 UNK     1       3.681   2.841  -2.899  1.00  0.00     0.089 A 
HETATM   13  C18 UNK     1       3.030   1.256  -4.580  1.00  0.00     0.014 A 
HETATM   14  O2  UNK     1       3.863   3.205  -1.550  1.00  0.00    -0.274 OA
HETATM   15  C19 UNK     1       4.001   3.784  -3.873  1.00  0.00     0.038 A 
HETATM   16  C14 UNK     1       3.571   2.330  -0.507  1.00  0.00     0.304 A 
HETATM   17  O3  UNK     1       3.733   2.656   0.664  1.00  0.00    -0.259 OA
HETATM   18  C21 UNK     1       3.832   3.453  -5.215  1.00  0.00     0.003 A 
HETATM   19  C20 UNK     1       3.347   2.192  -5.569  1.00  0.00     0.001 A 
ENDBRANCH   8   9
BRANCH   2  20
HETATM   20  C5  UNK     1      -2.697  -0.570   1.737  1.00  0.00     0.030 A 
HETATM   21  C7  UNK     1      -3.357  -1.788   1.450  1.00  0.00     0.045 A 
HETATM   22  C10 UNK     1      -4.698  -1.982   1.781  1.00  0.00     0.050 A 
HETATM   23  C13 UNK     1      -5.417  -0.964   2.407  1.00  0.00     0.016 A 
HETATM   24  C11 UNK     1      -4.795   0.248   2.704  1.00  0.00     0.003 A 
HETATM   25  C8  UNK     1      -3.454   0.443   2.373  1.00  0.00     0.029 A 
BRANCH  22  26
HETATM   26  C16 UNK     1      -5.364  -3.278   1.463  1.00  0.00     0.417 C 
HETATM   27  F1  UNK     1      -6.676  -3.328   1.842  1.00  0.00    -0.166 F 
HETATM   28  F2  UNK     1      -5.368  -3.580   0.131  1.00  0.00    -0.166 F 
HETATM   29  F3  UNK     1      -4.766  -4.341   2.077  1.00  0.00    -0.166 F 
ENDBRANCH  22  26
ENDBRANCH   2  20
TORSDOF 3
