REMARK  2 active torsions:
REMARK  status: ('A' for Active; 'I' for Inactive)
REMARK    1  A    between atoms: C15_20  and  O4_4 
REMARK       I    between atoms: C7_12  and  N1_5 
REMARK    2  A    between atoms: C7_12  and  C8_13 
ROOT
HETATM    1  O2  UNK     1       1.942   0.160   0.962  1.00  0.00    -0.274 OA
HETATM    2  O3  UNK     1       0.372  -0.448   2.507  1.00  0.00    -0.259 OA
HETATM    3  C8  UNK     1      -0.424   0.621   0.548  1.00  0.00     0.108 A 
HETATM    4  C9  UNK     1      -0.135   1.183  -0.632  1.00  0.00     0.037 A 
HETATM    5  C10 UNK     1       1.244   1.266  -1.087  1.00  0.00     0.002 A 
HETATM    6  C11 UNK     1       0.632   0.068   1.425  1.00  0.00     0.304 A 
HETATM    7  C12 UNK     1       2.252   0.752  -0.278  1.00  0.00     0.089 A 
HETATM    8  C13 UNK     1       1.591   1.846  -2.310  1.00  0.00     0.051 A 
HETATM    9  C14 UNK     1       3.592   0.799  -0.656  1.00  0.00     0.041 A 
HETATM   10  C15 UNK     1       2.932   1.901  -2.702  1.00  0.00     0.069 A 
HETATM   11  C16 UNK     1       3.930   1.379  -1.877  1.00  0.00     0.039 A 
ENDROOT
BRANCH   3  12
HETATM   12  C7  UNK     1      -1.854   0.584   0.922  1.00  0.00     0.259 C 
HETATM   13  O1  UNK     1      -2.307   1.544   1.548  1.00  0.00    -0.267 OA
HETATM   14  N1  UNK     1      -2.595  -0.537   0.529  1.00  0.00    -0.348 N 
HETATM   15  C5  UNK     1      -2.018  -1.663  -0.218  1.00  0.00     0.126 C 
HETATM   16  C6  UNK     1      -4.017  -0.580   0.880  1.00  0.00     0.126 C 
HETATM   17  C3  UNK     1      -2.809  -2.971  -0.235  1.00  0.00     0.020 C 
HETATM   18  C1  UNK     1      -3.093  -3.529   1.158  1.00  0.00     0.002 C 
HETATM   19  C2  UNK     1      -4.347  -2.942   1.800  1.00  0.00     0.002 C 
HETATM   20  C4  UNK     1      -4.276  -1.449   2.107  1.00  0.00     0.020 C 
ENDBRANCH   3  12
BRANCH  10  21
HETATM   21  O4  UNK     1       3.266   2.468  -3.895  1.00  0.00    -0.356 OA
HETATM   22  C17 UNK     1       4.651   2.493  -4.235  1.00  0.00     0.210 C 
ENDBRANCH  10  21
TORSDOF 2
