REMARK  3 active torsions:
REMARK  status: ('A' for Active; 'I' for Inactive)
REMARK    1  A    between atoms: C13_18  and  O3_3 
REMARK    2  A    between atoms: C1_6  and  N1_5 
REMARK       I    between atoms: C5_10  and  N1_5 
REMARK    3  A    between atoms: C5_10  and  C6_11 
ROOT
HETATM    1  O1  UNK     1      -0.324   0.132  -2.200  1.00  0.00    -0.274 OA
HETATM    2  O4  UNK     1      -2.181  -0.985  -1.476  1.00  0.00    -0.259 OA
HETATM    3  C6  UNK     1      -0.588  -0.390   0.175  1.00  0.00     0.108 A 
HETATM    4  C7  UNK     1       1.380   0.794  -0.597  1.00  0.00     0.002 A 
HETATM    5  C8  UNK     1       0.581   0.194   0.461  1.00  0.00     0.037 A 
HETATM    6  C9  UNK     1       0.908   0.748  -1.905  1.00  0.00     0.089 A 
HETATM    7  C10 UNK     1      -1.110  -0.450  -1.209  1.00  0.00     0.304 A 
HETATM    8  C11 UNK     1       2.606   1.414  -0.344  1.00  0.00     0.051 A 
HETATM    9  C12 UNK     1       1.624   1.304  -2.963  1.00  0.00     0.041 A 
HETATM   10  C13 UNK     1       3.336   1.975  -1.396  1.00  0.00     0.069 A 
HETATM   11  C14 UNK     1       2.845   1.920  -2.702  1.00  0.00     0.039 A 
ENDROOT
BRANCH   3  12
HETATM   12  C5  UNK     1      -1.320  -0.967   1.309  1.00  0.00     0.258 C 
HETATM   13  O2  UNK     1      -0.721  -1.408   2.288  1.00  0.00    -0.267 OA
HETATM   14  N1  UNK     1      -2.692  -0.946   1.130  1.00  0.00    -0.349 N 
HETATM   15  H1  UNK     1      -3.082  -0.521   0.294  1.00  0.00     0.163 HD
BRANCH  14  16
HETATM   16  C1  UNK     1      -3.621  -1.461   2.110  1.00  0.00     0.022 C 
HETATM   17  C2  UNK     1      -5.047  -1.275   1.583  1.00  0.00     0.037 C 
HETATM   18  C3  UNK     1      -3.325  -2.947   2.327  1.00  0.00     0.037 C 
HETATM   19  C4  UNK     1      -3.440  -0.686   3.418  1.00  0.00     0.037 C 
ENDBRANCH  14  16
ENDBRANCH   3  12
BRANCH  10  20
HETATM   20  O3  UNK     1       4.530   2.579  -1.145  1.00  0.00    -0.356 OA
HETATM   21  C15 UNK     1       5.224   3.133  -2.262  1.00  0.00     0.210 C 
ENDBRANCH  10  20
TORSDOF 3
