REMARK  5 active torsions:
REMARK  status: ('A' for Active; 'I' for Inactive)
REMARK    1  A    between atoms: C5_13  and  N1_6 
REMARK    2  A    between atoms: C6_14  and  N2_7 
REMARK    3  A    between atoms: C17_25  and  N3_8 
REMARK       I    between atoms: C9_17  and  N3_8 
REMARK    4  A    between atoms: C5_13  and  C7_15 
REMARK    5  A    between atoms: C6_14  and  C9_17 
ROOT
HETATM    1  N1  UNK     1       1.420  -0.219  -1.787  1.00  0.00     0.096 N 
HETATM    2  N2  UNK     1      -1.160  -1.319  -1.084  1.00  0.00     0.100 N 
HETATM    3  C1  UNK     1       0.693  -1.105  -2.705  1.00  0.00     0.303 C 
HETATM    4  C2  UNK     1       1.078  -0.531  -0.394  1.00  0.00     0.303 C 
HETATM    5  C3  UNK     1      -0.819  -1.005  -2.477  1.00  0.00     0.303 C 
HETATM    6  C4  UNK     1      -0.434  -0.431  -0.167  1.00  0.00     0.303 C 
ENDROOT
BRANCH   1   7
HETATM    7  C5  UNK     1       2.862  -0.318  -2.003  1.00  0.00     0.312 C 
BRANCH   7   8
HETATM    8  C7  UNK     1       3.593   0.862  -1.465  1.00  0.00    -0.011 A 
HETATM    9  C10 UNK     1       4.049   0.880  -0.204  1.00  0.00     0.092 A 
HETATM   10  C13 UNK     1       4.776   2.023   0.372  1.00  0.00     0.288 A 
HETATM   11  O1  UNK     1       4.981   3.113  -0.459  1.00  0.00    -0.275 OA
HETATM   12  O3  UNK     1       5.179   2.003   1.530  1.00  0.00    -0.260 OA
HETATM   13  C11 UNK     1       4.514   3.125  -1.789  1.00  0.00     0.090 A 
HETATM   14  C8  UNK     1       3.826   2.033  -2.321  1.00  0.00     0.006 A 
HETATM   15  C14 UNK     1       4.777   4.276  -2.534  1.00  0.00     0.045 A 
HETATM   16  C12 UNK     1       3.394   2.123  -3.651  1.00  0.00     0.015 A 
HETATM   17  C16 UNK     1       3.650   3.271  -4.411  1.00  0.00     0.007 A 
HETATM   18  C15 UNK     1       4.341   4.345  -3.853  1.00  0.00    -0.059 A 
HETATM   19  C18 UNK     1       4.610   5.564  -4.667  1.00  0.00     0.048 C 
ENDBRANCH   7   8
ENDBRANCH   1   7
BRANCH   2  20
HETATM   20  C6  UNK     1      -2.602  -1.221  -0.867  1.00  0.00     0.375 C 
BRANCH  20  21
HETATM   21  C9  UNK     1      -2.980  -2.002   0.380  1.00  0.00     0.250 C 
HETATM   22  O2  UNK     1      -2.354  -2.988   0.757  1.00  0.00    -0.271 OA
HETATM   23  N3  UNK     1      -4.094  -1.428   0.988  1.00  0.00    -0.323 N 
HETATM   24  H15 UNK     1      -4.506  -0.608   0.549  1.00  0.00     0.169 HD
BRANCH  23  25
HETATM   25  C17 UNK     1      -4.752  -1.857   2.166  1.00  0.00     0.073 A 
HETATM   26  C19 UNK     1      -5.864  -1.162   2.640  1.00  0.00     0.145 A 
HETATM   27  F1  UNK     1      -6.321  -0.083   1.989  1.00  0.00    -0.204 F 
HETATM   28  C21 UNK     1      -6.510  -1.588   3.801  1.00  0.00     0.086 A 
HETATM   29  C23 UNK     1      -6.043  -2.709   4.487  1.00  0.00     0.119 A 
HETATM   30  C22 UNK     1      -4.931  -3.404   4.013  1.00  0.00     0.044 A 
HETATM   31  F2  UNK     1      -6.664  -3.119   5.601  1.00  0.00    -0.206 F 
HETATM   32  C20 UNK     1      -4.285  -2.978   2.852  1.00  0.00     0.036 A 
ENDBRANCH  23  25
ENDBRANCH  20  21
ENDBRANCH   2  20
TORSDOF 5
