REMARK  5 active torsions:
REMARK  status: ('A' for Active; 'I' for Inactive)
REMARK    1  A    between atoms: C11_14  and  O2_2 
REMARK    2  A    between atoms: C15_18  and  O2_2 
REMARK    3  A    between atoms: C2_5  and  C4_7 
REMARK    4  A    between atoms: C4_7  and  C6_9 
REMARK    5  A    between atoms: C15_18  and  C18_21 
ROOT
HETATM    1  O1  UNK     1       0.071  -1.194   0.717  1.00  0.00    -0.274 OA
HETATM    2  O3  UNK     1      -0.914  -2.643   2.161  1.00  0.00    -0.259 OA
HETATM    3  C1  UNK     1      -2.385  -1.004  -0.678  1.00  0.00    -0.036 A 
HETATM    4  C2  UNK     1      -2.284  -1.819   0.394  1.00  0.00     0.029 A 
HETATM    5  C3  UNK     1      -1.198  -0.250  -1.132  1.00  0.00     0.005 A 
HETATM    6  C5  UNK     1      -0.010  -0.371  -0.416  1.00  0.00     0.092 A 
HETATM    7  C7  UNK     1      -1.011  -1.933   1.164  1.00  0.00     0.295 A 
HETATM    8  C8  UNK     1      -1.183   0.585  -2.260  1.00  0.00     0.017 A 
HETATM    9  C9  UNK     1      -3.663  -0.795  -1.452  1.00  0.00     0.050 C 
HETATM   10  C10 UNK     1       1.157   0.307  -0.776  1.00  0.00     0.075 A 
HETATM   11  C11 UNK     1       1.147   1.133  -1.894  1.00  0.00     0.071 A 
HETATM   12  C12 UNK     1      -0.022   1.271  -2.636  1.00  0.00     0.038 A 
ENDROOT
BRANCH  11  13
HETATM   13  O2  UNK     1       2.273   1.801  -2.262  1.00  0.00    -0.347 OA
BRANCH  13  14
HETATM   14  C15 UNK     1       3.435   1.612  -1.454  1.00  0.00     0.214 C 
BRANCH  14  15
HETATM   15  C18 UNK     1       4.553   2.450  -2.000  1.00  0.00    -0.034 A 
HETATM   16  C20 UNK     1       5.408   1.917  -2.959  1.00  0.00     0.009 A 
HETATM   17  C22 UNK     1       6.448   2.696  -3.467  1.00  0.00     0.001 A 
HETATM   18  C24 UNK     1       6.625   4.004  -3.014  1.00  0.00     0.000 A 
HETATM   19  C23 UNK     1       5.763   4.532  -2.052  1.00  0.00     0.001 A 
HETATM   20  C21 UNK     1       4.724   3.753  -1.544  1.00  0.00     0.009 A 
ENDBRANCH  14  15
ENDBRANCH  13  14
ENDBRANCH  11  13
BRANCH   4  21
HETATM   21  C4  UNK     1      -3.395  -2.690   0.922  1.00  0.00     0.084 C 
BRANCH  21  22
HETATM   22  C6  UNK     1      -3.998  -2.137   2.179  1.00  0.00    -0.054 A 
HETATM   23  C13 UNK     1      -4.301  -0.782   2.259  1.00  0.00     0.007 A 
HETATM   24  C16 UNK     1      -4.863  -0.267   3.428  1.00  0.00     0.001 A 
HETATM   25  C19 UNK     1      -5.118  -1.110   4.509  1.00  0.00     0.000 A 
HETATM   26  C17 UNK     1      -4.811  -2.468   4.422  1.00  0.00     0.001 A 
HETATM   27  C14 UNK     1      -4.250  -2.983   3.253  1.00  0.00     0.007 A 
ENDBRANCH  21  22
ENDBRANCH   4  21
TORSDOF 5
