REMARK  1 active torsions:
REMARK  status: ('A' for Active; 'I' for Inactive)
REMARK    1  A    between atoms: C3_6  and  C7_10 
ROOT
HETATM    1  O1  UNK     1      -0.269   0.754   0.613  1.00  0.00    -0.309 OA
HETATM    2  O2  UNK     1      -2.186  -2.236  -1.383  1.00  0.00    -0.287 OA
HETATM    3  C1  UNK     1      -2.009  -0.941   0.585  1.00  0.00     0.048 A 
HETATM    4  C2  UNK     1      -1.312   0.092   1.210  1.00  0.00     0.090 A 
HETATM    5  C3  UNK     1       0.110   0.373  -0.665  1.00  0.00     0.090 A 
HETATM    6  C4  UNK     1      -3.064  -1.579   1.241  1.00  0.00     0.025 A 
HETATM    7  C5  UNK     1      -3.416  -1.177   2.530  1.00  0.00    -0.061 A 
HETATM    8  C6  UNK     1      -1.616  -1.341  -0.774  1.00  0.00     0.187 A 
HETATM    9  C8  UNK     1      -0.487  -0.600  -1.372  1.00  0.00     0.093 A 
HETATM   10  C9  UNK     1      -1.667   0.493   2.498  1.00  0.00     0.039 A 
HETATM   11  C10 UNK     1      -2.720  -0.143   3.157  1.00  0.00     0.009 A 
HETATM   12  C11 UNK     1      -4.543  -1.851   3.239  1.00  0.00     0.048 C 
ENDROOT
BRANCH   5  13
HETATM   13  C7  UNK     1       1.237   1.154  -1.214  1.00  0.00    -0.002 A 
HETATM   14  C12 UNK     1       1.330   1.379  -2.590  1.00  0.00     0.016 A 
HETATM   15  C14 UNK     1       2.395   2.115  -3.109  1.00  0.00     0.024 A 
HETATM   16  C16 UNK     1       3.369   2.630  -2.254  1.00  0.00     0.034 A 
HETATM   17  C15 UNK     1       3.279   2.407  -0.880  1.00  0.00     0.024 A 
HETATM   18 Cl1  UNK     1       4.683   3.539  -2.894  1.00  0.00    -0.084 Cl
HETATM   19  C13 UNK     1       2.215   1.671  -0.361  1.00  0.00     0.016 A 
ENDBRANCH   5  13
TORSDOF 1
