REMARK  3 active torsions:
REMARK  status: ('A' for Active; 'I' for Inactive)
REMARK    1  A    between atoms: C1_2  and  C3_4 
REMARK    2  A    between atoms: C2_3  and  C4_5 
REMARK    3  A    between atoms: C3_4  and  C5_6 
ROOT
HETATM    1  O1  UNK     1       0.133  -0.009  -2.748  1.00  0.00    -0.288 OA
HETATM    2  C3  UNK     1       0.537   0.313  -1.636  1.00  0.00     0.182 C 
ENDROOT
BRANCH   2   3
HETATM    3  C1  UNK     1       1.799   1.080  -1.506  1.00  0.00     0.014 A 
HETATM    4  C6  UNK     1       2.553   0.939  -0.358  1.00  0.00     0.015 A 
HETATM    5  C10 UNK     1       3.740   1.660  -0.236  1.00  0.00     0.001 A 
HETATM    6  C14 UNK     1       4.150   2.508  -1.264  1.00  0.00     0.000 A 
HETATM    7  C11 UNK     1       3.373   2.635  -2.415  1.00  0.00     0.001 A 
HETATM    8  C7  UNK     1       2.185   1.913  -2.538  1.00  0.00     0.015 A 
ENDBRANCH   2   3
BRANCH   2   9
HETATM    9  C5  UNK     1      -0.209  -0.007  -0.387  1.00  0.00     0.056 C 
HETATM   10  C4  UNK     1      -1.382  -0.678  -0.445  1.00  0.00     0.015 C 
BRANCH  10  11
HETATM   11  C2  UNK     1      -2.203  -1.030   0.702  1.00  0.00    -0.036 A 
HETATM   12  C8  UNK     1      -1.642  -1.063   1.979  1.00  0.00     0.011 A 
HETATM   13  C12 UNK     1      -2.429  -1.402   3.079  1.00  0.00     0.001 A 
HETATM   14  C15 UNK     1      -3.779  -1.707   2.903  1.00  0.00     0.000 A 
HETATM   15  C13 UNK     1      -4.341  -1.674   1.626  1.00  0.00     0.001 A 
HETATM   16  C9  UNK     1      -3.553  -1.336   0.526  1.00  0.00     0.011 A 
ENDBRANCH  10  11
ENDBRANCH   2   9
TORSDOF 3
