REMARK  4 active torsions:
REMARK  status: ('A' for Active; 'I' for Inactive)
REMARK    1  A    between atoms: C1_11  and  N1_7 
REMARK    2  A    between atoms: C13_23  and  N4_10 
REMARK    3  A    between atoms: C1_11  and  C4_14 
REMARK    4  A    between atoms: C2_12  and  C4_14 
ROOT
HETATM    1  O2  UNK     1      -0.889  -1.282  -1.301  1.00  0.00    -0.290 OA
HETATM    2  C4  UNK     1      -0.187  -0.540  -0.612  1.00  0.00     0.185 C 
ENDROOT
BRANCH   2   3
HETATM    3  C1  UNK     1      -0.334  -0.412   0.890  1.00  0.00     0.237 C 
BRANCH   3   4
HETATM    4  N1  UNK     1      -1.701  -0.649   1.350  1.00  0.00    -0.235 N 
HETATM    5  C10 UNK     1      -2.691   0.253   1.502  1.00  0.00     0.198 A 
HETATM    6 Br1  UNK     1      -2.600   2.116   1.158  1.00  0.00    -0.007 Br
HETATM    7  N3  UNK     1      -3.766  -0.361   1.938  1.00  0.00    -0.180 NA
HETATM    8  C13 UNK     1      -3.346  -1.657   2.028  1.00  0.00     0.313 A 
HETATM    9  N2  UNK     1      -2.079  -1.883   1.677  1.00  0.00    -0.125 NA
BRANCH   8  10
HETATM   10  N4  UNK     1      -4.157  -2.711   2.456  1.00  0.00    -0.074 N 
HETATM   11  O4  UNK     1      -5.357  -2.484   2.786  1.00  0.00    -0.529 OA
HETATM   12  O5  UNK     1      -3.684  -3.884   2.509  1.00  0.00    -0.529 OA
ENDBRANCH   8  10
ENDBRANCH   3   4
ENDBRANCH   2   3
BRANCH   2  13
HETATM   13  C2  UNK     1       0.854   0.281  -1.241  1.00  0.00     0.088 A 
HETATM   14  C5  UNK     1       1.926   0.555  -0.488  1.00  0.00     0.035 A 
HETATM   15  C3  UNK     1       3.012   1.362  -1.023  1.00  0.00    -0.001 A 
HETATM   16  C8  UNK     1       4.149   1.673  -0.273  1.00  0.00     0.014 A 
HETATM   17  C6  UNK     1       2.915   1.841  -2.325  1.00  0.00     0.089 A 
HETATM   18  C11 UNK     1       5.164   2.453  -0.833  1.00  0.00     0.001 A 
HETATM   19  C12 UNK     1       5.050   2.925  -2.142  1.00  0.00     0.003 A 
HETATM   20  C9  UNK     1       3.919   2.620  -2.897  1.00  0.00     0.038 A 
HETATM   21  O1  UNK     1       1.785   1.549  -3.114  1.00  0.00    -0.274 OA
HETATM   22  C7  UNK     1       0.731   0.780  -2.629  1.00  0.00     0.302 A 
HETATM   23  O3  UNK     1      -0.250   0.532  -3.322  1.00  0.00    -0.259 OA
ENDBRANCH   2  13
TORSDOF 4
